# generated using pymatgen
data_Zn3H12C22(NO2)6
_symmetry_space_group_name_H-M   'P 1'
_cell_length_a   7.74096852
_cell_length_b   8.72948341
_cell_length_c   19.38000000
_cell_angle_alpha   90.00000000
_cell_angle_beta   90.00000000
_cell_angle_gamma   110.59696830
_symmetry_Int_Tables_number   1
_chemical_formula_structural   Zn3H12C22(NO2)6
_chemical_formula_sum   'Zn6 H24 C44 N12 O24'
_cell_volume   1225.88498817
_cell_formula_units_Z   2
loop_
 _symmetry_equiv_pos_site_id
 _symmetry_equiv_pos_as_xyz
  1  'x, y, z'
loop_
 _atom_site_type_symbol
 _atom_site_label
 _atom_site_symmetry_multiplicity
 _atom_site_fract_x
 _atom_site_fract_y
 _atom_site_fract_z
 _atom_site_occupancy
 _atom_site_hle17_bader_spin_density
 _atom_site_hle17_ddec_charge
 _atom_site_hle17_ddec_spin_density
 _atom_site_hle17_ddec_sum_bond_order
 _atom_site_hle17_magmom
 _atom_site_hse06_10hf_bader_spin_density
 _atom_site_hse06_10hf_ddec_charge
 _atom_site_hse06_10hf_ddec_spin_density
 _atom_site_hse06_10hf_ddec_sum_bond_order
 _atom_site_hse06_10hf_magmom
 _atom_site_hse06_bader_spin_density
 _atom_site_hse06_ddec_charge
 _atom_site_hse06_ddec_spin_density
 _atom_site_hse06_ddec_sum_bond_order
 _atom_site_hse06_magmom
 _atom_site_pbe_bader_charge
 _atom_site_pbe_bader_spin_density
 _atom_site_pbe_cm5_charge
 _atom_site_pbe_ddec_charge
 _atom_site_pbe_ddec_spin_density
 _atom_site_pbe_ddec_sum_bond_order
 _atom_site_pbe_magmom
Zn  Zn0  1  0.49999944  0.99999021  0.49999845  1  0  1.099213  0  1.904433  0  0  0.931897  0  2.372336  0  0  0.975311  0  2.316051  0  1.397558  0  0.716898  0.901566  0  2.410993  0
Zn  Zn1  1  0.00000453  0.00001469  0.99999690  1  0  1.098995  0  1.904336  0  0  0.931723  0  2.372186  0  0  0.975144  0  2.315909  0  1.397489  0  0.716854  0.901387  0  2.410838  0
Zn  Zn2  1  0.97628479  0.29169017  0.47479721  1  0  1.000725  0  1.856299  0  0  0.804131  0  2.34126  0  0  0.851887  0  2.285389  0  1.270431  0  0.716435  0.770725  0  2.379793  0
Zn  Zn3  1  0.52371051  0.70830754  0.97479670  1  0  1.000709  0  1.856319  0  0  0.804086  0  2.341287  0  0  0.851845  0  2.285416  0  1.270398  0  0.716383  0.770676  0  2.379823  0
Zn  Zn4  1  0.02370250  0.70829898  0.52520175  1  0  1.000815  0  1.856122  0  0  0.804117  0  2.341116  0  0  0.851882  0  2.285243  0  1.270438  0  0.716339  0.770701  0  2.379653  0
Zn  Zn5  1  0.47629068  0.29170363  0.02520227  1  0  1.000692  0  1.856125  0  0  0.804014  0  2.34107  0  0  0.85178  0  2.285203  0  1.270362  0  0.716332  0.770597  0  2.379608  0
H  H6  1  0.46238146  0.86805342  0.30876058  1  0  0.103058  0  0.949904  0  0  0.111204  0  1.011605  0  0  0.114381  0  1.010493  0  0.091374  0  0.104308  0.108936  0  1.012424  0
H  H7  1  0.03761753  0.13194430  0.80875800  1  0  0.10295  0  0.94998  0  0  0.111145  0  1.011618  0  0  0.114317  0  1.010526  0  0.090496  0  0.104242  0.10888  0  1.01244  0
H  H8  1  0.53761213  0.13194185  0.69123426  1  0  0.102921  0  0.949851  0  0  0.111109  0  1.011525  0  0  0.114282  0  1.01043  0  0.090421  0  0.10423  0.108836  0  1.012339  0
H  H9  1  0.96238528  0.86806443  0.19123891  1  0  0.102908  0  0.94995  0  0  0.111092  0  1.011607  0  0  0.114259  0  1.010528  0  0.090471  0  0.104186  0.108825  0  1.012427  0
H  H10  1  0.39990252  0.80046957  0.18389009  1  0  0.087555  0  0.972008  0  0  0.097525  0  1.035823  0  0  0.100292  0  1.034432  0  0.061791  0  0.100456  0.095534  0  1.036892  0
H  H11  1  0.10010470  0.19951958  0.68388700  1  0  0.087659  0  0.971842  0  0  0.097549  0  1.035734  0  0  0.100313  0  1.034345  0  0.061972  0  0.100463  0.095559  0  1.036805  0
H  H12  1  0.60011031  0.19955140  0.81610578  1  0  0.087595  0  0.971816  0  0  0.097503  0  1.035699  0  0  0.100276  0  1.03431  0  0.060782  0  0.100475  0.095511  0  1.036768  0
H  H13  1  0.89989648  0.80047201  0.31611094  1  0  0.087672  0  0.971788  0  0  0.097554  0  1.035694  0  0  0.100327  0  1.034305  0  0.060877  0  0.100472  0.095563  0  1.036762  0
H  H14  1  0.89794576  0.19163361  0.13023426  1  0  0.097926  0  0.969252  0  0  0.106702  0  1.032116  0  0  0.110026  0  1.029775  0  0.095217  0  0.103893  0.104276  0  1.033973  0
H  H15  1  0.60204777  0.80836287  0.63023994  1  0  0.097923  0  0.969328  0  0  0.106701  0  1.032195  0  0  0.110025  0  1.029856  0  0.095326  0  0.103894  0.104277  0  1.034052  0
H  H16  1  0.10204703  0.80836287  0.86976987  1  0  0.09787  0  0.969116  0  0  0.106645  0  1.032015  0  0  0.109968  0  1.029677  0  0.094996  0  0.103893  0.10422  0  1.033868  0
H  H17  1  0.39796666  0.19164585  0.36976677  1  0  0.097912  0  0.969124  0  0  0.10669  0  1.031989  0  0  0.11001  0  1.029661  0  0.095156  0  0.103921  0.104265  0  1.033843  0
H  H18  1  0.95767470  0.26576340  0.25474303  1  0  0.094092  0  0.969376  0  0  0.102023  0  1.035548  0  0  0.104947  0  1.034488  0  0.079848  0  0.100248  0.099946  0  1.036313  0
H  H19  1  0.54230946  0.73423553  0.75474458  1  0  0.094057  0  0.9694  0  0  0.10205  0  1.035511  0  0  0.104971  0  1.034455  0  0.079927  0  0.100254  0.099978  0  1.03626  0
H  H20  1  0.04230950  0.73420494  0.74525851  1  0  0.093981  0  0.969308  0  0  0.101958  0  1.035438  0  0  0.104887  0  1.034374  0  0.079662  0  0.100187  0.099863  0  1.036253  0
H  H21  1  0.45769173  0.26577564  0.24525542  1  0  0.094023  0  0.96939  0  0  0.102007  0  1.035511  0  0  0.10493  0  1.034449  0  0.079704  0  0.100255  0.099932  0  1.036263  0
H  H22  1  0.37175500  0.27706736  0.58180960  1  0  0.131421  0  0.933843  0  0  0.140434  0  0.992718  0  0  0.143294  0  0.991172  0  0.155414  0  0.129788  0.138359  0  0.993945  0
H  H23  1  0.12824884  0.72293280  0.08180857  1  0  0.131399  0  0.93385  0  0  0.140408  0  0.992736  0  0  0.143268  0  0.991188  0  0.155439  0  0.129768  0.138333  0  0.993964  0
H  H24  1  0.62824409  0.72293525  0.41818885  1  0  0.131419  0  0.933822  0  0  0.140425  0  0.992711  0  0  0.14329  0  0.991166  0  0.155489  0  0.129774  0.138351  0  0.993936  0
H  H25  1  0.87175057  0.27706736  0.91819401  1  0  0.131447  0  0.933828  0  0  0.140465  0  0.992692  0  0  0.143332  0  0.991141  0  0.155403  0  0.129777  0.13839  0  0.99392  0
H  H26  1  0.61825375  0.59961730  0.59999897  1  0  0.112089  0  0.966267  0  0  0.124428  0  1.022529  0  0  0.126533  0  1.021354  0  0.154057  0  0.125692  0.122867  0  1.023532  0
H  H27  1  0.88174592  0.40039143  0.10000258  1  0  0.112077  0  0.96634  0  0  0.124407  0  1.022608  0  0  0.126509  0  1.021434  0  0.154126  0  0.125703  0.122846  0  1.023611  0
H  H28  1  0.38173904  0.40037919  0.40000361  1  0  0.112101  0  0.966344  0  0  0.124457  0  1.022561  0  0  0.126568  0  1.021383  0  0.154095  0  0.125685  0.122896  0  1.023563  0
H  H29  1  0.11825091  0.59961852  0.90000568  1  0  0.112136  0  0.966335  0  0  0.124508  0  1.022534  0  0  0.126614  0  1.021355  0  0.154101  0  0.125731  0.122947  0  1.023535  0
C  C30  1  0.74485374  0.10971454  0.36399329  1  0  0.682389  0  3.859913  0  0  0.627533  0  4.151844  0  0  0.663631  0  4.142336  0  1.579527  0  0.224685  0.60302  0  4.157506  0
C  C31  1  0.75515110  0.89029419  0.86399484  1  0  0.682175  0  3.860258  0  0  0.627421  0  4.152073  0  0  0.663515  0  4.142565  0  1.579589  0  0.224655  0.602911  0  4.157737  0
C  C32  1  0.25515633  0.89028318  0.63600877  1  0  0.68291  0  3.860389  0  0  0.628113  0  4.152171  0  0  0.66421  0  4.14265  0  1.579331  0  0.224808  0.603604  0  4.157853  0
C  C33  1  0.24484976  0.10970964  0.13600516  1  0  0.682664  0  3.860435  0  0  0.627956  0  4.152132  0  0  0.664052  0  4.142613  0  1.579573  0  0.224756  0.603451  0  4.157815  0
C  C34  1  0.71354735  0.07096390  0.28912848  1  0  -0.066501  0  3.75737  0  0  -0.042979  0  3.985756  0  0  -0.050982  0  4.009362  0  0.049147  0  -0.015893  -0.037719  0  3.969848  0
C  C35  1  0.78643875  0.92903014  0.78912745  1  0  -0.066501  0  3.757644  0  0  -0.04299  0  3.986014  0  0  -0.050991  0  4.009623  0  0.048969  0  -0.015948  -0.037731  0  3.970103  0
C  C36  1  0.28643897  0.92902280  0.71086945  1  0  -0.06655  0  3.757839  0  0  -0.043067  0  3.986236  0  0  -0.05107  0  4.00984  0  0.04885  0  -0.015864  -0.037805  0  3.970324  0
C  C37  1  0.21356664  0.07097859  0.21087049  1  0  -0.066736  0  3.757786  0  0  -0.04329  0  3.986197  0  0  -0.051287  0  4.009797  0  0.048974  0  -0.015984  -0.038036  0  3.970298  0
C  C38  1  0.55725771  0.93849844  0.26932353  1  0  -0.061594  0  3.728747  0  0  -0.081531  0  3.97257  0  0  -0.082362  0  3.993356  0  -0.054069  0  -0.08118  -0.080854  0  3.958465  0
C  C39  1  0.94274292  0.06149315  0.76932405  1  0  -0.061451  0  3.728851  0  0  -0.081433  0  3.972685  0  0  -0.082268  0  3.993467  0  -0.052999  0  -0.081125  -0.080758  0  3.958579  0
C  C40  1  0.44272569  0.06148092  0.73067492  1  0  -0.061609  0  3.728683  0  0  -0.081564  0  3.972472  0  0  -0.082401  0  3.993262  0  -0.052854  0  -0.081175  -0.080876  0  3.958351  0
C  C41  1  0.05727346  0.93852047  0.23067389  1  0  -0.061552  0  3.728801  0  0  -0.08148  0  3.972558  0  0  -0.08232  0  3.993345  0  -0.052946  0  -0.081146  -0.080803  0  3.958451  0
C  C42  1  0.52320284  0.90017245  0.20005160  1  0  -0.072641  0  3.752185  0  0  -0.09746  0  4.001013  0  0  -0.098574  0  4.022114  0  -0.027491  0  -0.086528  -0.096629  0  3.986713  0
C  C43  1  0.97679166  0.09982649  0.70005366  1  0  -0.072724  0  3.752261  0  0  -0.097493  0  4.001043  0  0  -0.098607  0  4.022144  0  -0.028383  0  -0.086485  -0.096666  0  3.986745  0
C  C44  1  0.47677752  0.09983505  0.79994840  1  0  -0.072556  0  3.75201  0  0  -0.097308  0  4.000777  0  0  -0.098428  0  4.021887  0  -0.027196  0  -0.086439  -0.096476  0  3.98647  0
C  C45  1  0.02322277  0.90017245  0.29994685  1  0  -0.0726  0  3.752111  0  0  -0.097358  0  4.000884  0  0  -0.098478  0  4.021991  0  -0.026617  0  -0.086451  -0.096525  0  3.986579  0
C  C46  1  0.64602283  0.99188168  0.14982250  1  0  -0.052488  0  3.744322  0  0  -0.028821  0  3.974638  0  0  -0.035567  0  3.996258  0  0.018169  0  -0.015532  -0.024418  0  3.960128  0
C  C47  1  0.85397699  0.00811114  0.64982353  1  0  -0.052501  0  3.744462  0  0  -0.028668  0  3.974518  0  0  -0.035406  0  3.996138  0  0.018861  0  -0.015518  -0.024262  0  3.96  0
C  C48  1  0.35398320  0.00812215  0.85017957  1  0  -0.052485  0  3.744585  0  0  -0.028771  0  3.974833  0  0  -0.035516  0  3.996454  0  0.018702  0  -0.015566  -0.024368  0  3.960321  0
C  C49  1  0.14602645  0.99188290  0.35017802  1  0  -0.052559  0  3.744741  0  0  -0.028826  0  3.974928  0  0  -0.035571  0  3.996547  0  0.018244  0  -0.015552  -0.024424  0  3.960415  0
C  C50  1  0.80010736  0.12609590  0.16966667  1  0  -0.057668  0  3.719958  0  0  -0.082675  0  3.97161  0  0  -0.08299  0  3.990474  0  -0.067612  0  -0.081913  -0.082406  0  3.958863  0
C  C51  1  0.69989069  0.87390548  0.66966925  1  0  -0.057596  0  3.720056  0  0  -0.082683  0  3.971691  0  0  -0.083003  0  3.990559  0  -0.067924  0  -0.081895  -0.082416  0  3.958945  0
C  C52  1  0.19990449  0.87391282  0.83033437  1  0  -0.057687  0  3.719717  0  0  -0.082727  0  3.971394  0  0  -0.083044  0  3.990261  0  -0.067132  0  -0.081943  -0.082451  0  3.958634  0
C  C53  1  0.30010259  0.12610202  0.33033540  1  0  -0.057686  0  3.719736  0  0  -0.082734  0  3.971399  0  0  -0.083059  0  3.990282  0  -0.067562  0  -0.08195  -0.082456  0  3.958638  0
C  C54  1  0.83395133  0.16590265  0.23890093  1  0  -0.075331  0  3.741835  0  0  -0.097801  0  3.98955  0  0  -0.099069  0  4.011102  0  -0.026616  0  -0.086137  -0.096822  0  3.974915  0
C  C55  1  0.66603913  0.83409261  0.73890299  1  0  -0.075314  0  3.742106  0  0  -0.097824  0  3.989801  0  0  -0.09909  0  4.011352  0  -0.026575  0  -0.086127  -0.096843  0  3.975167  0
C  C56  1  0.16604921  0.83409383  0.76109752  1  0  -0.075188  0  3.74177  0  0  -0.097669  0  3.989482  0  0  -0.098935  0  4.011035  0  -0.026574  0  -0.086026  -0.096701  0  3.974842  0
C  C57  1  0.33395560  0.16590877  0.26109856  1  0  -0.075157  0  3.741894  0  0  -0.09765  0  3.989584  0  0  -0.098916  0  4.011134  0  -0.026636  0  -0.086085  -0.096671  0  3.974955  0
C  C58  1  0.62293678  0.94050420  0.07617441  1  0  0.661559  0  3.871223  0  0  0.609808  0  4.16019  0  0  0.645237  0  4.151298  0  1.531994  0  0.211589  0.585708  0  4.16554  0
C  C59  1  0.87706013  0.05948128  0.57617389  1  0  0.661445  0  3.871078  0  0  0.609703  0  4.159991  0  0  0.645129  0  4.151103  0  1.532075  0  0.21162  0.585605  0  4.165338  0
C  C60  1  0.37705956  0.05949474  0.92381837  1  0  0.661593  0  3.871538  0  0  0.609777  0  4.160558  0  0  0.645206  0  4.151666  0  1.53282  0  0.211534  0.585682  0  4.165905  0
C  C61  1  0.12294606  0.94051643  0.42381992  1  0  0.661495  0  3.871488  0  0  0.609739  0  4.160438  0  0  0.645167  0  4.151547  0  1.532028  0  0.211503  0.585644  0  4.16578  0
C  C62  1  0.51287291  0.33703202  0.56464293  1  0  0.007631  0  3.674251  0  0  -0.027141  0  3.942537  0  0  -0.026352  0  3.959239  0  0.431562  0  0.022452  -0.027745  0  3.931359  0
C  C63  1  0.98712967  0.66297426  0.06464293  1  0  0.007593  0  3.67414  0  0  -0.027168  0  3.942432  0  0  -0.026375  0  3.959127  0  0.431508  0  0.022461  -0.027772  0  3.931256  0
C  C64  1  0.48712521  0.66296814  0.43535759  1  0  0.007645  0  3.674105  0  0  -0.027126  0  3.942392  0  0  -0.02634  0  3.959095  0  0.431438  0  0.022484  -0.027728  0  3.931209  0
C  C65  1  0.01286958  0.33703202  0.93535965  1  0  0.007567  0  3.674223  0  0  -0.027216  0  3.942493  0  0  -0.026428  0  3.959192  0  0.431175  0  0.022476  -0.027819  0  3.931313  0
C  C66  1  0.63351913  0.49675342  0.57296646  1  0  0.015883  0  3.698687  0  0  -0.022028  0  3.961577  0  0  -0.018987  0  3.978749  0  0.385453  0  0.02167  -0.024004  0  3.949965  0
C  C67  1  0.86648038  0.50325163  0.07296852  1  0  0.015979  0  3.698735  0  0  -0.021917  0  3.961649  0  0  -0.018872  0  3.978819  0  0.384901  0  0.021725  -0.023895  0  3.950037  0
C  C68  1  0.36646978  0.50324307  0.42703406  1  0  0.015831  0  3.698837  0  0  -0.022074  0  3.961713  0  0  -0.019039  0  3.978889  0  0.385402  0  0.021701  -0.02405  0  3.950098  0
C  C69  1  0.13351887  0.49675465  0.92703560  1  0  0.015784  0  3.698816  0  0  -0.022141  0  3.961709  0  0  -0.0191  0  3.978882  0  0.385605  0  0.021619  -0.024116  0  3.950093  0
C  C70  1  0.92001312  0.52074296  0.32242518  1  0  0.813767  0  3.799432  0  0  0.741642  0  4.137189  0  0  0.786399  0  4.120142  0  2.118001  0  0.361834  0.711151  0  4.148517  0
C  C71  1  0.57999754  0.47927066  0.82242208  1  0  0.813825  0  3.799774  0  0  0.741696  0  4.137519  0  0  0.786453  0  4.120471  0  2.117489  0  0.361771  0.711204  0  4.148852  0
C  C72  1  0.08001244  0.47924496  0.67757534  1  0  0.814018  0  3.799217  0  0  0.741861  0  4.136982  0  0  0.786611  0  4.119941  0  2.118929  0  0.362007  0.711369  0  4.148316  0
C  C73  1  0.41998411  0.52072705  0.17758566  1  0  0.813811  0  3.799138  0  0  0.741641  0  4.136942  0  0  0.786398  0  4.119902  0  2.118756  0  0.361782  0.711147  0  4.148279  0
N  N74  1  0.60083604  0.25760087  0.52645304  1  0  -0.215271  0  3.205009  0  0  -0.161591  0  3.484036  0  0  -0.171615  0  3.50002  0  -0.683538  0  -0.214967  -0.154545  0  3.47319  0
N  N75  1  0.89916443  0.74239684  0.02644995  1  0  -0.215284  0  3.205034  0  0  -0.161628  0  3.484085  0  0  -0.171651  0  3.500064  0  -0.683589  0  -0.215029  -0.154585  0  3.473241  0
N  N76  1  0.39916353  0.74239317  0.47354644  1  0  -0.215188  0  3.20504  0  0  -0.161485  0  3.48403  0  0  -0.171508  0  3.500016  0  -0.683556  0  -0.214929  -0.154441  0  3.473185  0
N  N77  1  0.10083465  0.25760576  0.97354902  1  0  -0.215295  0  3.20516  0  0  -0.161591  0  3.484164  0  0  -0.171617  0  3.500152  0  -0.683319  0  -0.215015  -0.154546  0  3.473322  0
N  N78  1  0.76804759  0.36337854  0.51118679  1  0  -0.138485  0  3.248193  0  0  -0.081415  0  3.542444  0  0  -0.091589  0  3.558958  0  -0.240226  0  -0.136759  -0.074519  0  3.531283  0
N  N79  1  0.73195466  0.63662040  0.01118679  1  0  -0.138397  0  3.248269  0  0  -0.081313  0  3.542528  0  0  -0.091489  0  3.559046  0  -0.240321  0  -0.136715  -0.074419  0  3.53137  0
N  N80  1  0.23195149  0.63661428  0.48881115  1  0  -0.138454  0  3.248176  0  0  -0.081375  0  3.542442  0  0  -0.091554  0  3.558958  0  -0.240763  0  -0.136741  -0.074479  0  3.531284  0
N  N81  1  0.26804621  0.36338344  0.98881373  1  0  -0.138314  0  3.248135  0  0  -0.081235  0  3.542389  0  0  -0.091411  0  3.558904  0  -0.240127  0  -0.136703  -0.074342  0  3.531234  0
N  N82  1  0.79085973  0.50969355  0.53927812  1  0  -0.255072  0  3.276749  0  0  -0.186026  0  3.574179  0  0  -0.200206  0  3.589106  0  -0.742103  0  -0.241167  -0.176264  0  3.563996  0
N  N83  1  0.70914317  0.49031028  0.03928225  1  0  -0.255137  0  3.276858  0  0  -0.186105  0  3.574287  0  0  -0.200288  0  3.589221  0  -0.741453  0  -0.241184  -0.176345  0  3.564105  0
N  N84  1  0.20913241  0.49029804  0.46071981  1  0  -0.255125  0  3.277139  0  0  -0.186128  0  3.574597  0  0  -0.200308  0  3.589537  0  -0.741519  0  -0.241254  -0.176366  0  3.56441  0
N  N85  1  0.29086254  0.50969600  0.96072085  1  0  -0.25508  0  3.276883  0  0  -0.186075  0  3.574337  0  0  -0.200254  0  3.589268  0  -0.742172  0  -0.241183  -0.176316  0  3.564157  0
O  O86  1  0.60881963  0.04540060  0.40315273  1  0  -0.638647  0  2.178977  0  0  -0.574571  0  2.457954  0  0  -0.601682  0  2.444767  0  -1.200411  0  -0.304899  -0.55568  0  2.466314  0
O  O87  1  0.89118069  0.95460324  0.90314551  1  0  -0.638385  0  2.179181  0  0  -0.574388  0  2.458118  0  0  -0.601518  0  2.444982  0  -1.200439  0  -0.304859  -0.55548  0  2.466425  0
O  O88  1  0.39116151  0.95457631  0.59684572  1  0  -0.638759  0  2.179282  0  0  -0.57478  0  2.458354  0  0  -0.601885  0  2.44516  0  -1.200397  0  -0.305007  -0.555891  0  2.466708  0
O  O89  1  0.10882939  0.04541406  0.09685294  1  0  -0.638519  0  2.179118  0  0  -0.574592  0  2.45813  0  0  -0.601701  0  2.444949  0  -1.200538  0  -0.304913  -0.555689  0  2.466443  0
O  O90  1  0.90640283  0.20716813  0.38202374  1  0  -0.648881  0  2.107976  0  0  -0.57289  0  2.395622  0  0  -0.602506  0  2.379922  0  -1.175902  0  -0.323544  -0.552231  0  2.405756  0
O  O91  1  0.59359296  0.79283080  0.88202270  1  0  -0.648863  0  2.107763  0  0  -0.572965  0  2.395472  0  0  -0.602583  0  2.379774  0  -1.175902  0  -0.323527  -0.552306  0  2.405605  0
O  O92  1  0.09360756  0.79282713  0.61798091  1  0  -0.649327  0  2.107992  0  0  -0.573335  0  2.395665  0  0  -0.602969  0  2.379979  0  -1.175718  0  -0.323588  -0.552625  0  2.405686  0
O  O93  1  0.40639531  0.20717058  0.11798039  1  0  -0.649144  0  2.10819  0  0  -0.573178  0  2.395801  0  0  -0.602802  0  2.380099  0  -1.175889  0  -0.323519  -0.552472  0  2.405818  0
O  O94  1  0.48342762  0.81082632  0.06118679  1  0  -0.633628  0  2.044848  0  0  -0.561529  0  2.319991  0  0  -0.591026  0  2.30589  0  -1.160536  0  -0.324167  -0.540952  0  2.329022  0
O  O95  1  0.01655957  0.18915793  0.56118473  1  0  -0.633381  0  2.044839  0  0  -0.561436  0  2.320089  0  0  -0.590928  0  2.30599  0  -1.160679  0  -0.324152  -0.540862  0  2.329122  0
O  O96  1  0.51656629  0.18916650  0.93880392  1  0  -0.633549  0  2.044903  0  0  -0.561441  0  2.320064  0  0  -0.59094  0  2.305971  0  -1.16059  0  -0.32412  -0.540863  0  2.329092  0
O  O97  1  0.98344275  0.81084957  0.43881011  1  0  -0.633559  0  2.045039  0  0  -0.56147  0  2.320186  0  0  -0.590967  0  2.306087  0  -1.16054  0  -0.32409  -0.540893  0  2.329214  0
O  O98  1  0.74135590  0.01954848  0.03216460  1  0  -0.646318  0  2.067568  0  0  -0.588416  0  2.336675  0  0  -0.612857  0  2.321541  0  -1.197905  0  -0.319947  -0.571355  0  2.346511  0
O  O99  1  0.75864005  0.98044434  0.53215893  1  0  -0.646468  0  2.067418  0  0  -0.588535  0  2.336521  0  0  -0.612979  0  2.321392  0  -1.197849  0  -0.320052  -0.571475  0  2.346361  0
O  O100  1  0.25865951  0.98046269  0.96783127  1  0  -0.646408  0  2.06747  0  0  -0.588495  0  2.336625  0  0  -0.612937  0  2.321493  0  -1.198702  0  -0.319956  -0.571428  0  2.346435  0
O  O101  1  0.24135129  0.01955827  0.46783591  1  0  -0.646379  0  2.067341  0  0  -0.588468  0  2.336392  0  0  -0.612909  0  2.321263  0  -1.197933  0  -0.319983  -0.571401  0  2.346212  0
O  O102  1  0.07566822  0.55662508  0.30637358  1  0  -0.396433  0  1.993972  0  0  -0.36323  0  2.197697  0  0  -0.384932  0  2.189528  0  -1.073201  0  -0.174566  -0.348505  0  2.203033  0
O  O103  1  0.42432950  0.44339221  0.80636894  1  0  -0.396492  0  1.993771  0  0  -0.363303  0  2.197507  0  0  -0.385008  0  2.189335  0  -1.072698  0  -0.174566  -0.348575  0  2.202841  0
O  O104  1  0.92437268  0.44335917  0.69362178  1  0  -0.396347  0  1.99425  0  0  -0.363143  0  2.197997  0  0  -0.38484  0  2.18983  0  -1.073413  0  -0.174526  -0.348421  0  2.203335  0
O  O105  1  0.57562374  0.55661529  0.19363983  1  0  -0.396212  0  1.994163  0  0  -0.362981  0  2.197894  0  0  -0.384672  0  2.189714  0  -1.0734  0  -0.174362  -0.34826  0  2.203224  0
O  O106  1  0.76385376  0.48606503  0.33784778  1  0  -0.398722  0  1.984255  0  0  -0.361161  0  2.185843  0  0  -0.382866  0  2.176351  0  -1.071035  0  -0.174226  -0.346574  0  2.192261  0
O  O107  1  0.73614236  0.51395104  0.83783746  1  0  -0.398717  0  1.984755  0  0  -0.361146  0  2.186341  0  0  -0.382841  0  2.17684  0  -1.071008  0  -0.174181  -0.346556  0  2.192757  0
O  O108  1  0.23619119  0.51394248  0.66215531  1  0  -0.399054  0  1.983804  0  0  -0.361451  0  2.185366  0  0  -0.383138  0  2.175851  0  -1.071757  0  -0.174431  -0.346857  0  2.191777  0
O  O109  1  0.26380892  0.48604177  0.16216099  1  0  -0.398939  0  1.983656  0  0  -0.361365  0  2.185255  0  0  -0.38307  0  2.175759  0  -1.071579  0  -0.174374  -0.346777  0  2.191672  0
