# generated using pymatgen
data_ZnH7C8Br2N5
_symmetry_space_group_name_H-M   'P 1'
_cell_length_a   5.59450490
_cell_length_b   10.72238763
_cell_length_c   19.46273182
_cell_angle_alpha   89.99920484
_cell_angle_beta   90.00098951
_cell_angle_gamma   89.99913444
_symmetry_Int_Tables_number   1
_chemical_formula_structural   ZnH7C8Br2N5
_chemical_formula_sum   'Zn4 H28 C32 Br8 N20'
_cell_volume   1167.50019022
_cell_formula_units_Z   4
loop_
 _symmetry_equiv_pos_site_id
 _symmetry_equiv_pos_as_xyz
  1  'x, y, z'
loop_
 _atom_site_type_symbol
 _atom_site_label
 _atom_site_symmetry_multiplicity
 _atom_site_fract_x
 _atom_site_fract_y
 _atom_site_fract_z
 _atom_site_occupancy
 _atom_site_hle17_bader_spin_density
 _atom_site_hle17_ddec_charge
 _atom_site_hle17_ddec_spin_density
 _atom_site_hle17_ddec_sum_bond_order
 _atom_site_hle17_magmom
 _atom_site_hse06_10hf_bader_spin_density
 _atom_site_hse06_10hf_ddec_charge
 _atom_site_hse06_10hf_ddec_spin_density
 _atom_site_hse06_10hf_ddec_sum_bond_order
 _atom_site_hse06_10hf_magmom
 _atom_site_hse06_bader_spin_density
 _atom_site_hse06_ddec_charge
 _atom_site_hse06_ddec_spin_density
 _atom_site_hse06_ddec_sum_bond_order
 _atom_site_hse06_magmom
 _atom_site_pbe_bader_spin_density
 _atom_site_pbe_cm5_charge
 _atom_site_pbe_ddec_charge
 _atom_site_pbe_ddec_spin_density
 _atom_site_pbe_ddec_sum_bond_order
 _atom_site_pbe_magmom
Zn  Zn0  1  0.69243158  0.20599758  0.10943366  1  0  0.776178  0  2.147512  0  0  0.600185  0  2.63342  0  0  0.641453  0  2.58939  0  0  0.520773  0.572057  0  2.662843  0
Zn  Zn1  1  0.19238196  0.79400865  0.39057574  1  0  0.776199  0  2.147372  0  0  0.600211  0  2.633294  0  0  0.641496  0  2.589281  0  0  0.520816  0.572094  0  2.662706  0
Zn  Zn2  1  0.30759999  0.29399550  0.60942180  1  0  0.776253  0  2.147381  0  0  0.600332  0  2.633279  0  0  0.641597  0  2.589255  0  0  0.520815  0.572201  0  2.662698  0
Zn  Zn3  1  0.80758244  0.70599987  0.89056906  1  0  0.776178  0  2.147391  0  0  0.600209  0  2.633256  0  0  0.641482  0  2.589244  0  0  0.520789  0.57209  0  2.662677  0
H  H4  1  0.97985205  0.01105198  0.98860253  1  0  0.107504  0  0.963921  0  0  0.113178  0  1.033918  0  0  0.116288  0  1.033049  0  0  0.101483  0.110779  0  1.035062  0
H  H5  1  0.47975765  0.98895417  0.51139893  1  0  0.107494  0  0.964286  0  0  0.113147  0  1.034278  0  0  0.11626  0  1.033409  0  0  0.101481  0.11075  0  1.035415  0
H  H6  1  0.02018110  0.48893330  0.48859970  1  0  0.107431  0  0.963903  0  0  0.113135  0  1.033885  0  0  0.116246  0  1.033016  0  0  0.101463  0.110736  0  1.035025  0
H  H7  1  0.52016942  0.51104910  0.01140422  1  0  0.107409  0  0.963923  0  0  0.113053  0  1.033975  0  0  0.116165  0  1.033104  0  0  0.10144  0.110657  0  1.035115  0
H  H8  1  0.29568485  0.03575201  0.07808315  1  0  0.07869  0  0.949313  0  0  0.086262  0  1.015847  0  0  0.088582  0  1.013556  0  0  0.107741  0.084417  0  1.017794  0
H  H9  1  0.79557591  0.96425434  0.42191544  1  0  0.078741  0  0.949381  0  0  0.086311  0  1.015883  0  0  0.088636  0  1.013595  0  0  0.107662  0.084463  0  1.017837  0
H  H10  1  0.70435375  0.46422043  0.57807453  1  0  0.078798  0  0.949561  0  0  0.086342  0  1.01605  0  0  0.088667  0  1.013759  0  0  0.107793  0.084492  0  1.018  0
H  H11  1  0.20434035  0.53575245  0.92192147  1  0  0.078711  0  0.949443  0  0  0.086264  0  1.015952  0  0  0.088587  0  1.013662  0  0  0.107763  0.084415  0  1.017902  0
H  H12  1  0.63279748  0.31546810  0.96655378  1  0  0.074397  0  0.97353  0  0  0.078134  0  1.048071  0  0  0.081144  0  1.045464  0  0  0.100915  0.075848  0  1.050199  0
H  H13  1  0.13273114  0.68453891  0.53344495  1  0  0.074345  0  0.973635  0  0  0.077996  0  1.048256  0  0  0.081024  0  1.045607  0  0  0.100832  0.075711  0  1.050383  0
H  H14  1  0.36726472  0.18450282  0.46654160  1  0  0.074263  0  0.973559  0  0  0.077979  0  1.04811  0  0  0.080987  0  1.045517  0  0  0.10091  0.075694  0  1.050239  0
H  H15  1  0.86721872  0.81547126  0.03344348  1  0  0.074345  0  0.973631  0  0  0.078093  0  1.04818  0  0  0.081105  0  1.045562  0  0  0.100945  0.075808  0  1.050309  0
H  H16  1  0.33286657  0.30086180  0.87175706  1  0  0.12221  0  0.946751  0  0  0.127758  0  1.01212  0  0  0.13173  0  1.010043  0  0  0.10597  0.124855  0  1.013884  0
H  H17  1  0.83281184  0.69914550  0.62824112  1  0  0.122098  0  0.946869  0  0  0.127651  0  1.012229  0  0  0.13162  0  1.010151  0  0  0.105931  0.124751  0  1.013989  0
H  H18  1  0.66720953  0.19911434  0.37175445  1  0  0.122151  0  0.946942  0  0  0.127801  0  1.012182  0  0  0.131774  0  1.010101  0  0  0.10594  0.124892  0  1.013953  0
H  H19  1  0.16714735  0.80086318  0.12823889  1  0  0.122144  0  0.946783  0  0  0.127721  0  1.012114  0  0  0.131692  0  1.010039  0  0  0.105926  0.124815  0  1.013881  0
H  H20  1  0.81292175  0.06349101  0.88197198  1  0  0.0755  0  0.984135  0  0  0.07942  0  1.062  0  0  0.083466  0  1.057247  0  0  0.106314  0.076837  0  1.064756  0
H  H21  1  0.31287288  0.93651738  0.61802918  1  0  0.075356  0  0.984387  0  0  0.079378  0  1.062159  0  0  0.083412  0  1.057411  0  0  0.106295  0.076798  0  1.064917  0
H  H22  1  0.18712637  0.43649979  0.38197294  1  0  0.075366  0  0.984045  0  0  0.079381  0  1.061835  0  0  0.083422  0  1.057085  0  0  0.10625  0.076786  0  1.064595  0
H  H23  1  0.68709999  0.56349156  0.11803181  1  0  0.075454  0  0.983949  0  0  0.079396  0  1.061842  0  0  0.083438  0  1.057092  0  0  0.106287  0.076803  0  1.064607  0
H  H24  1  0.81126072  0.34718192  0.70785147  1  0  0.118408  0  0.952043  0  0  0.12305  0  1.025213  0  0  0.126363  0  1.020425  0  0  0.132336  0.120379  0  1.028704  0
H  H25  1  0.31124319  0.65282276  0.79214609  1  0  0.11844  0  0.952129  0  0  0.122987  0  1.025444  0  0  0.126285  0  1.020672  0  0  0.132319  0.120315  0  1.028939  0
H  H26  1  0.18878040  0.15281425  0.20785509  1  0  0.118446  0  0.951981  0  0  0.123011  0  1.025246  0  0  0.126342  0  1.020438  0  0  0.132352  0.12034  0  1.02874  0
H  H27  1  0.68873669  0.84719107  0.29214350  1  0  0.118404  0  0.952086  0  0  0.123023  0  1.025279  0  0  0.126351  0  1.020471  0  0  0.132324  0.120352  0  1.028772  0
H  H28  1  0.56299990  0.01867923  0.80763357  1  0  0.108766  0  0.984886  0  0  0.107904  0  1.066333  0  0  0.11155  0  1.061649  0  0  0.126256  0.105109  0  1.06961  0
H  H29  1  0.06297749  0.98133952  0.69237253  1  0  0.108881  0  0.984722  0  0  0.107941  0  1.066234  0  0  0.111581  0  1.061562  0  0  0.126283  0.105149  0  1.069508  0
H  H30  1  0.43701153  0.48132839  0.30762976  1  0  0.108868  0  0.984732  0  0  0.107895  0  1.06627  0  0  0.111533  0  1.061582  0  0  0.126308  0.105106  0  1.069529  0
H  H31  1  0.93700169  0.51867778  0.19237570  1  0  0.10871  0  0.984918  0  0  0.107813  0  1.066378  0  0  0.111457  0  1.061682  0  0  0.126246  0.105019  0  1.069655  0
C  C32  1  0.13240212  0.15306370  0.92254650  1  0  0.102416  0  3.766535  0  0  0.119318  0  3.995631  0  0  0.122379  0  4.016561  0  0  0.011068  0.117168  0  3.981698  0
C  C33  1  0.63235788  0.84694797  0.57745891  1  0  0.102962  0  3.766359  0  0  0.119711  0  3.995705  0  0  0.122765  0  4.016626  0  0  0.011121  0.117572  0  3.981769  0
C  C34  1  0.86763953  0.34692606  0.42254171  1  0  0.102478  0  3.766588  0  0  0.119167  0  3.996045  0  0  0.12223  0  4.01697  0  0  0.011027  0.117015  0  3.982111  0
C  C35  1  0.36761789  0.65306107  0.07745570  1  0  0.10248  0  3.766305  0  0  0.119203  0  3.99565  0  0  0.122264  0  4.016577  0  0  0.011117  0.117049  0  3.981721  0
C  C36  1  0.12332823  0.07855160  0.98151792  1  0  -0.131271  0  3.680367  0  0  -0.148556  0  3.922891  0  0  -0.155967  0  3.943406  0  0  -0.076421  -0.143852  0  3.909895  0
C  C37  1  0.62324249  0.92145922  0.51848693  1  0  -0.131678  0  3.680759  0  0  -0.148842  0  3.9232  0  0  -0.156268  0  3.943742  0  0  -0.076561  -0.144135  0  3.910195  0
C  C38  1  0.87671521  0.42143014  0.48151210  1  0  -0.131106  0  3.680614  0  0  -0.148371  0  3.92313  0  0  -0.155793  0  3.943671  0  0  -0.076415  -0.143665  0  3.910122  0
C  C39  1  0.37669037  0.57855040  0.01848638  1  0  -0.131038  0  3.68037  0  0  -0.148254  0  3.922871  0  0  -0.155675  0  3.943412  0  0  -0.076372  -0.143553  0  3.909874  0
C  C40  1  0.29793304  0.09243866  0.03163828  1  0  0.142571  0  3.698705  0  0  0.10892  0  3.948936  0  0  0.117028  0  3.965709  0  0  0.046631  0.103733  0  3.937919  0
C  C41  1  0.79784822  0.90757047  0.46836135  1  0  0.142378  0  3.698862  0  0  0.108812  0  3.949008  0  0  0.116921  0  3.965769  0  0  0.046584  0.103614  0  3.938008  0
C  C42  1  0.70210452  0.40753869  0.53162905  1  0  0.142185  0  3.699147  0  0  0.108757  0  3.949215  0  0  0.116871  0  3.965966  0  0  0.04646  0.10356  0  3.93823  0
C  C43  1  0.20208873  0.59243886  0.96836591  1  0  0.1423  0  3.698878  0  0  0.108768  0  3.948975  0  0  0.116873  0  3.965749  0  0  0.046527  0.103581  0  3.937973  0
C  C44  1  0.48558799  0.24872139  0.96891562  1  0  0.123245  0  3.69179  0  0  0.092031  0  3.943408  0  0  0.097947  0  3.962559  0  0  0.039605  0.088267  0  3.930687  0
C  C45  1  0.98553299  0.75129124  0.53108279  1  0  0.123374  0  3.691941  0  0  0.092334  0  3.943544  0  0  0.09825  0  3.96269  0  0  0.03983  0.088569  0  3.930816  0
C  C46  1  0.51446183  0.25124947  0.46890674  1  0  0.1237  0  3.691965  0  0  0.092622  0  3.943643  0  0  0.098533  0  3.96279  0  0  0.039734  0.088858  0  3.930923  0
C  C47  1  0.01442745  0.74872458  0.03108226  1  0  0.123423  0  3.691655  0  0  0.092165  0  3.943383  0  0  0.098082  0  3.962541  0  0  0.039707  0.088404  0  3.930666  0
C  C48  1  0.31946459  0.23985062  0.91633733  1  0  -0.130264  0  3.65829  0  0  -0.151822  0  3.907245  0  0  -0.158602  0  3.927921  0  0  -0.075368  -0.147456  0  3.893708  0
C  C49  1  0.81940537  0.76015772  0.58366335  1  0  -0.130232  0  3.658359  0  0  -0.151733  0  3.907354  0  0  -0.158539  0  3.928105  0  0  -0.075358  -0.147367  0  3.893809  0
C  C50  1  0.68057847  0.26012625  0.41633125  1  0  -0.130408  0  3.658494  0  0  -0.152006  0  3.907553  0  0  -0.158782  0  3.928228  0  0  -0.075343  -0.147631  0  3.894005  0
C  C51  1  0.18054039  0.73985116  0.08366422  1  0  -0.130237  0  3.657974  0  0  -0.151737  0  3.907032  0  0  -0.158517  0  3.92771  0  0  -0.075396  -0.147377  0  3.893513  0
C  C52  1  0.94431715  0.13732773  0.87146374  1  0  0.086029  0  3.646902  0  0  0.049158  0  3.920958  0  0  0.055876  0  3.930492  0  0  0.079496  0.044507  0  3.913804  0
C  C53  1  0.44426571  0.86269362  0.62853241  1  0  0.085809  0  3.646032  0  0  0.048848  0  3.920196  0  0  0.055587  0  3.929713  0  0  0.079333  0.044172  0  3.91307  0
C  C54  1  0.05572855  0.36265774  0.37145947  1  0  0.086129  0  3.646675  0  0  0.049251  0  3.920737  0  0  0.055974  0  3.93025  0  0  0.07961  0.044607  0  3.913591  0
C  C55  1  0.55569350  0.63733277  0.12854412  1  0  0.085996  0  3.64727  0  0  0.049146  0  3.921314  0  0  0.05587  0  3.930827  0  0  0.079592  0.044498  0  3.914179  0
C  C56  1  0.70300604  0.26568448  0.71988425  1  0  0.176773  0  3.594013  0  0  0.097083  0  3.856286  0  0  0.113395  0  3.866309  0  0  0.170936  0.087917  0  3.84942  0
C  C57  1  0.20299971  0.73431731  0.78011329  1  0  0.176826  0  3.593702  0  0  0.097278  0  3.855963  0  0  0.113616  0  3.86599  0  0  0.170965  0.08809  0  3.849143  0
C  C58  1  0.29702330  0.23431604  0.21988830  1  0  0.176567  0  3.593705  0  0  0.097067  0  3.856037  0  0  0.113381  0  3.86605  0  0  0.170829  0.087888  0  3.849207  0
C  C59  1  0.79698658  0.76568377  0.28011442  1  0  0.17676  0  3.594213  0  0  0.097226  0  3.856437  0  0  0.113541  0  3.866456  0  0  0.171002  0.088052  0  3.849581  0
C  C60  1  0.57431058  0.09660631  0.77210746  1  0  0.128609  0  3.631468  0  0  0.061875  0  3.90509  0  0  0.074085  0  3.917151  0  0  0.152438  0.05534  0  3.896823  0
C  C61  1  0.07429259  0.90340582  0.72789716  1  0  0.128352  0  3.631397  0  0  0.06174  0  3.905063  0  0  0.073969  0  3.917108  0  0  0.152391  0.055205  0  3.896791  0
C  C62  1  0.42570585  0.40339662  0.27210726  1  0  0.128389  0  3.631155  0  0  0.061864  0  3.904893  0  0  0.074108  0  3.916945  0  0  0.152385  0.05534  0  3.896606  0
C  C63  1  0.92568875  0.59660592  0.22789865  1  0  0.128395  0  3.631363  0  0  0.061813  0  3.905052  0  0  0.074046  0  3.91711  0  0  0.152373  0.055274  0  3.896782  0
Br  Br64  1  0.82799014  0.00905438  0.15083643  1  0  -0.531904  0  0.959946  0  0  -0.476476  0  1.253737  0  0  -0.493817  0  1.229469  0  0  -0.283609  -0.463643  0  1.26989  0
Br  Br65  1  0.32795016  0.99094519  0.34917055  1  0  -0.531905  0  0.959975  0  0  -0.476499  0  1.25381  0  0  -0.493843  0  1.22955  0  0  -0.283595  -0.463661  0  1.269961  0
Br  Br66  1  0.17206897  0.49094232  0.65081111  1  0  -0.531937  0  0.959939  0  0  -0.476537  0  1.253746  0  0  -0.493875  0  1.229471  0  0  -0.283641  -0.463708  0  1.269901  0
Br  Br67  1  0.67202960  0.50905879  0.84917086  1  0  -0.531943  0  0.959918  0  0  -0.476531  0  1.253747  0  0  -0.493868  0  1.229474  0  0  -0.283623  -0.463702  0  1.269901  0
Br  Br68  1  0.96280611  0.36858009  0.07915379  1  0  -0.50639  0  1.040106  0  0  -0.44599  0  1.352046  0  0  -0.464755  0  1.33277  0  0  -0.261722  -0.432877  0  1.365222  0
Br  Br69  1  0.46277557  0.63143427  0.42086362  1  0  -0.506378  0  1.040033  0  0  -0.446018  0  1.352018  0  0  -0.464798  0  1.332763  0  0  -0.261766  -0.43291  0  1.365193  0
Br  Br70  1  0.03720038  0.13141936  0.57914748  1  0  -0.506309  0  1.040036  0  0  -0.44595  0  1.352023  0  0  -0.464712  0  1.33276  0  0  -0.261701  -0.432836  0  1.365198  0
Br  Br71  1  0.53719782  0.86858281  0.92085027  1  0  -0.506358  0  1.040044  0  0  -0.44598  0  1.352007  0  0  -0.46475  0  1.332736  0  0  -0.261715  -0.432871  0  1.365186  0
N  N72  1  0.47470689  0.17663943  0.02586634  1  0  -0.309132  0  3.324641  0  0  -0.221306  0  3.593289  0  0  -0.240321  0  3.60968  0  0  -0.333886  -0.208562  0  3.581827  0
N  N73  1  0.97462845  0.82337017  0.47413262  1  0  -0.30895  0  3.324736  0  0  -0.221323  0  3.593529  0  0  -0.240336  0  3.609918  0  0  -0.333839  -0.208603  0  3.582126  0
N  N74  1  0.52533747  0.32333433  0.52585431  1  0  -0.309249  0  3.32465  0  0  -0.22176  0  3.593588  0  0  -0.240774  0  3.609976  0  0  -0.333953  -0.20901  0  3.58211  0
N  N75  1  0.02531243  0.67664088  0.97413465  1  0  -0.309119  0  3.324471  0  0  -0.221365  0  3.593184  0  0  -0.240384  0  3.609586  0  0  -0.333953  -0.208605  0  3.581672  0
N  N76  1  0.93683036  0.20858122  0.81814719  1  0  -0.16167  0  2.951629  0  0  -0.166432  0  3.224531  0  0  -0.169247  0  3.238061  0  0  -0.186375  -0.163043  0  3.215277  0
N  N77  1  0.43680389  0.79142060  0.68186331  1  0  -0.161464  0  2.950656  0  0  -0.166122  0  3.22357  0  0  -0.168925  0  3.237102  0  0  -0.186142  -0.162734  0  3.214321  0
N  N78  1  0.06319779  0.29141959  0.31814504  1  0  -0.161733  0  2.951761  0  0  -0.166346  0  3.224706  0  0  -0.169138  0  3.238239  0  0  -0.186337  -0.16296  0  3.215453  0
N  N79  1  0.56317107  0.70858112  0.18185036  1  0  -0.161753  0  2.952094  0  0  -0.166391  0  3.225047  0  0  -0.169191  0  3.238578  0  0  -0.186461  -0.163012  0  3.215797  0
N  N80  1  0.74930245  0.18797238  0.77386474  1  0  0.016552  0  3.587869  0  0  0.138884  0  3.767929  0  0  0.121024  0  3.796488  0  0  -0.115478  0.146598  0  3.753279  0
N  N81  1  0.24928343  0.81204118  0.72613507  1  0  0.016527  0  3.587927  0  0  0.138671  0  3.768154  0  0  0.12078  0  3.796743  0  0  -0.115595  0.14641  0  3.753454  0
N  N82  1  0.25072660  0.31202584  0.27386336  1  0  0.016812  0  3.587608  0  0  0.138801  0  3.767976  0  0  0.120881  0  3.796596  0  0  -0.115528  0.146508  0  3.753342  0
N  N83  1  0.75069958  0.68797713  0.22613862  1  0  0.016788  0  3.587685  0  0  0.138755  0  3.768096  0  0  0.120852  0  3.796692  0  0  -0.115547  0.146497  0  3.7534  0
N  N84  1  0.51219879  0.22388432  0.68747944  1  0  -0.245786  0  3.253938  0  0  -0.168994  0  3.553876  0  0  -0.186698  0  3.568006  0  0  -0.246139  -0.157337  0  3.543897  0
N  N85  1  0.01218427  0.77612084  0.81251921  1  0  -0.245905  0  3.25362  0  0  -0.16916  0  3.553596  0  0  -0.186868  0  3.567717  0  0  -0.2461  -0.157513  0  3.54363  0
N  N86  1  0.48783395  0.27611796  0.18748411  1  0  -0.245811  0  3.253772  0  0  -0.169071  0  3.553752  0  0  -0.186777  0  3.567879  0  0  -0.246059  -0.157418  0  3.543781  0
N  N87  1  0.98779505  0.72389154  0.31252108  1  0  -0.245785  0  3.253882  0  0  -0.168996  0  3.553771  0  0  -0.186708  0  3.567903  0  0  -0.246109  -0.15734  0  3.543799  0
N  N88  1  0.43113070  0.11702556  0.72002698  1  0  -0.221446  0  2.961429  0  0  -0.203556  0  3.249864  0  0  -0.212872  0  3.266375  0  0  -0.222939  -0.196997  0  3.238102  0
N  N89  1  0.93111917  0.88298283  0.77997476  1  0  -0.221252  0  2.96135  0  0  -0.203344  0  3.249749  0  0  -0.21266  0  3.266251  0  0  -0.222914  -0.196786  0  3.237992  0
N  N90  1  0.56888971  0.38297776  0.22002816  1  0  -0.221283  0  2.961235  0  0  -0.203377  0  3.249617  0  0  -0.212698  0  3.266118  0  0  -0.22291  -0.19682  0  3.237859  0
N  N91  1  0.06886711  0.61703037  0.27998012  1  0  -0.221266  0  2.961264  0  0  -0.203389  0  3.24965  0  0  -0.212706  0  3.266155  0  0  -0.222849  -0.196832  0  3.237889  0
