# generated using pymatgen
data_V8Zn2H16C20N4O21
_symmetry_space_group_name_H-M   'P 1'
_cell_length_a   8.07749174
_cell_length_b   9.71409651
_cell_length_c   11.58876613
_cell_angle_alpha   86.28145954
_cell_angle_beta   72.26816093
_cell_angle_gamma   73.29309870
_symmetry_Int_Tables_number   1
_chemical_formula_structural   V8Zn2H16C20N4O21
_chemical_formula_sum   'V8 Zn2 H16 C20 N4 O21'
_cell_volume   829.30160465
_cell_formula_units_Z   1
loop_
 _symmetry_equiv_pos_site_id
 _symmetry_equiv_pos_as_xyz
  1  'x, y, z'
loop_
 _atom_site_type_symbol
 _atom_site_label
 _atom_site_symmetry_multiplicity
 _atom_site_fract_x
 _atom_site_fract_y
 _atom_site_fract_z
 _atom_site_occupancy
 _atom_site_hle17_ddec_charge
 _atom_site_hle17_ddec_spin_density
 _atom_site_hle17_ddec_sum_bond_order
 _atom_site_hle17_magmom
 _atom_site_hse06_10hf_ddec_charge
 _atom_site_hse06_10hf_ddec_spin_density
 _atom_site_hse06_10hf_ddec_sum_bond_order
 _atom_site_hse06_10hf_magmom
 _atom_site_hse06_ddec_charge
 _atom_site_hse06_ddec_spin_density
 _atom_site_hse06_ddec_sum_bond_order
 _atom_site_hse06_magmom
 _atom_site_pbe_cm5_charge
 _atom_site_pbe_ddec_charge
 _atom_site_pbe_ddec_spin_density
 _atom_site_pbe_ddec_sum_bond_order
 _atom_site_pbe_magmom
V  V0  1  0.53254666  0.96562285  0.74843248  1  2.020959  -0.12411  2.96449  -0.121  2.090834  -0.092811  3.346333  -0.091  2.187031  -0.066402  3.329226  -0.067  1.47228  2.011494  -0.094338  3.385615  -0.091
V  V1  1  0.46744685  0.03438194  0.25156734  1  2.020971  0.124089  2.964403  0.121  2.090838  0.092817  3.346264  0.091  2.187035  0.066407  3.329152  0.067  1.472287  2.01152  0.094349  3.385505  0.091
V  V2  1  0.12820170  0.17251338  0.81648251  1  1.959604  -0.980408  2.636761  -0.941  2.021312  -0.792879  3.014766  -0.765  2.094197  -0.967937  2.95206  -0.938  1.381077  1.971593  -0.643801  3.055182  -0.618
V  V3  1  0.87180272  0.82748289  0.18351728  1  1.959635  0.980226  2.636892  0.941  2.021352  0.792796  3.014876  0.765  2.094201  0.967788  2.952213  0.938  1.381096  1.97162  0.643737  3.055321  0.618
V  V4  1  0.88229367  0.92231784  0.88047338  1  2.038437  0.023398  2.977779  0.023  2.107912  0.01927  3.358739  0.019  2.202138  0.019295  3.346658  0.02  1.470402  2.035772  0.015206  3.381253  0.015
V  V5  1  0.11770373  0.07768699  0.11952650  1  2.038477  -0.02351  2.977806  -0.023  2.107943  -0.019255  3.358775  -0.019  2.202171  -0.019274  3.346685  -0.019  1.470353  2.035705  -0.015198  3.381425  -0.015
V  V6  1  0.19751855  0.00882354  0.53400292  1  2.033291  -0.095667  2.967313  -0.093  2.103094  -0.072755  3.346836  -0.071  2.200275  -0.054051  3.325588  -0.054  1.477699  2.030068  -0.06674  3.375956  -0.064
V  V7  1  0.80247859  0.99117482  0.46599825  1  2.033233  0.095569  2.967426  0.093  2.102966  0.072787  3.347057  0.071  2.200209  0.054054  3.325716  0.054  1.477664  2.029919  0.066766  3.3762  0.064
Zn  Zn8  1  0.32016249  0.71930344  0.71464134  1  1.130133  0.000599  1.87295  0.0  0.991249  0.000503  2.339339  0.0  1.040861  0.000461  2.275002  0.0  0.706857  0.956825  0.000487  2.382514  0.0
Zn  Zn9  1  0.67983865  0.28069820  0.28535967  1  1.130099  -0.000595  1.873025  0.0  0.99123  -0.000503  2.339374  0.0  1.040845  -0.00046  2.275038  0.0  0.706836  0.956803  -0.000487  2.382546  0.0
H  H10  1  0.59525934  0.70471792  0.45347881  1  0.101977  -7.2e-05  0.933017  0.0  0.114088  -6.7e-05  0.989022  0.0  0.11658  -5.3e-05  0.986332  0.0  0.124175  0.112233  -2.8e-05  0.990827  0.0
H  H11  1  0.40474427  0.29528050  0.54652188  1  0.10196  7.4e-05  0.93297  0.0  0.114056  6.7e-05  0.988992  0.0  0.116548  5.4e-05  0.986301  0.0  0.124162  0.112202  2.8e-05  0.9908  0.0
H  H12  1  0.00851225  0.30277681  0.43735892  1  0.10036  1.6e-05  0.933825  0.0  0.112884  3.9e-05  0.988576  0.0  0.114952  2.3e-05  0.987146  0.0  0.115165  0.111346  5.3e-05  0.989606  0.0
H  H13  1  0.99148920  0.69722049  0.56263969  1  0.100353  -8e-06  0.933883  0.0  0.1129  -3.9e-05  0.988606  0.0  0.114964  -2.3e-05  0.987185  0.0  0.11518  0.111364  -5.2e-05  0.989621  0.0
H  H14  1  0.88521387  0.53073382  0.33622443  1  0.126192  -0.000706  0.973626  0.0  0.137547  -0.000596  1.030099  0.0  0.142812  -0.000674  1.028554  0.0  0.110384  0.133838  -0.000498  1.03157  0.0
H  H15  1  0.11478716  0.46926457  0.66377593  1  0.126189  0.000709  0.973633  0.0  0.137556  0.000596  1.030093  0.0  0.142821  0.000674  1.028549  0.0  0.110374  0.133843  0.000498  1.031574  0.0
H  H16  1  0.84052409  0.26100420  0.64883217  1  0.114868  0.000111  0.969038  0.0  0.123468  8.9e-05  1.03358  0.0  0.126946  8.8e-05  1.031517  0.0  0.115003  0.121111  6.6e-05  1.03472  0.0
H  H17  1  0.15947685  0.73899094  0.35116668  1  0.11483  -0.000111  0.969112  0.0  0.123443  -8.9e-05  1.033645  0.0  0.126922  -8.9e-05  1.03158  0.0  0.115025  0.121104  -6.5e-05  1.034765  0.0
H  H18  1  0.69958609  0.25061678  0.83074457  1  0.11498  0.000119  0.9799  0.0  0.124311  0.000129  1.043304  0.0  0.127952  0.000137  1.041404  0.0  0.112446  0.121605  0.000114  1.04481  0.0
H  H19  1  0.30041238  0.74938157  0.16925374  1  0.114968  -0.00012  0.979907  0.0  0.124278  -0.000129  1.043336  0.0  0.127917  -0.000137  1.04144  0.0  0.112444  0.121572  -0.000114  1.044843  0.0
H  H20  1  0.49180087  0.23357193  0.03414820  1  0.105079  -4.3e-05  0.958247  0.0  0.116392  -2.9e-05  1.017537  0.0  0.118508  -2.9e-05  1.015452  0.0  0.112424  0.114775  -2.9e-05  1.018931  0.0
H  H21  1  0.50819849  0.76642752  0.96585159  1  0.105081  4.5e-05  0.958264  0.0  0.116402  2.9e-05  1.017544  0.0  0.118517  3e-05  1.015462  0.0  0.112419  0.114798  2.9e-05  1.018913  0.0
H  H22  1  0.18661615  0.42020679  0.10214605  1  0.113985  -0.000376  0.939836  0.0  0.125637  -0.000368  0.995067  0.0  0.129371  -0.000419  0.993292  0.0  0.11415  0.123033  -0.000305  0.996403  0.0
H  H23  1  0.81338330  0.57979591  0.89785525  1  0.113977  0.000382  0.939869  0.0  0.125638  0.000368  0.995087  0.0  0.129373  0.000419  0.993313  0.0  0.11416  0.123029  0.000305  0.996427  0.0
H  H24  1  0.11044017  0.61681506  0.96161223  1  0.086216  -0.00023  0.958699  0.0  0.093139  -0.000189  1.025751  0.0  0.096756  -0.000203  1.022095  0.0  0.12204  0.090539  -0.000161  1.028343  0.0
H  H25  1  0.88956099  0.38318656  0.03838705  1  0.086198  0.000234  0.958774  0.0  0.093151  0.00019  1.025786  0.0  0.096772  0.000203  1.022122  0.0  0.122041  0.090528  0.000161  1.028406  0.0
C  C26  1  0.65428728  0.60463299  0.49266552  1  0.16183  9.1e-05  3.652847  0.0  0.129455  6e-06  3.904077  0.0  0.13736  3.1e-05  3.921624  0.0  0.057121  0.124324  2.4e-05  3.891871  0.0
C  C27  1  0.34571636  0.39536541  0.50733344  1  0.161938  -0.000113  3.652885  0.0  0.129556  -4e-06  3.904128  0.0  0.137461  -3.4e-05  3.921678  0.0  0.057189  0.124421  -2.4e-05  3.891923  0.0
C  C28  1  0.88283336  0.38158171  0.48507338  1  0.01363  -3.8e-05  3.706188  0.0  -0.001515  -1.5e-05  3.951695  0.0  0.001596  5e-06  3.971125  0.0  -0.056923  -0.003375  3.7e-05  3.938614  0.0
C  C29  1  0.11716808  0.61841560  0.51492610  1  0.0136  3e-06  3.706086  0.0  -0.001572  1.6e-05  3.951613  0.0  0.001536  -4e-06  3.971046  0.0  -0.056989  -0.003423  -3.7e-05  3.93853  0.0
C  C30  1  0.81524061  0.50669006  0.42820951  1  -0.130695  -0.000716  3.699651  -0.001  -0.143655  -0.000419  3.952252  0.0  -0.151206  -0.000493  3.971333  0.0  -0.081034  -0.138603  -0.000369  3.93937  0.0
C  C31  1  0.18476381  0.49330619  0.57178942  1  -0.130729  0.000736  3.699633  0.001  -0.14367  0.000418  3.952198  0.0  -0.151224  0.000494  3.971289  0.0  -0.081017  -0.138613  0.000369  3.939313  0.0
C  C32  1  0.78831684  0.35773536  0.60339367  1  -0.123679  6.5e-05  3.671024  0.0  -0.142466  0.000122  3.916438  0.0  -0.149671  8.7e-05  3.937779  0.0  -0.068484  -0.137902  0.000104  3.901859  0.0
C  C33  1  0.21168423  0.64226301  0.39660410  1  -0.12359  -4.3e-05  3.670986  0.0  -0.142415  -0.000123  3.916405  0.0  -0.149621  -8.7e-05  3.937752  0.0  -0.068492  -0.137864  -0.000104  3.901815  0.0
C  C34  1  0.62666891  0.45957966  0.66223182  1  0.178097  6.7e-05  3.756631  0.0  0.174826  4e-05  3.993326  0.0  0.182223  5e-05  4.014917  0.0  0.123632  0.169933  3e-05  3.978649  0.0
C  C35  1  0.37333251  0.54041766  0.33776853  1  0.177968  -7.8e-05  3.75668  0.0  0.174765  -3.9e-05  3.993314  0.0  0.182161  -5.1e-05  4.01491  0.0  0.123599  0.169869  -3e-05  3.978639  0.0
C  C36  1  0.51383770  0.44170599  0.78633805  1  0.176173  3.6e-05  3.759905  0.0  0.173446  5.8e-05  3.995983  0.0  0.178383  2.2e-05  4.018959  0.0  0.122211  0.169989  6.9e-05  3.98026  0.0
C  C37  1  0.48616297  0.55829346  0.21366060  1  0.176256  -4e-05  3.759773  0.0  0.173453  -5.7e-05  3.99594  0.0  0.178386  -2.3e-05  4.018919  0.0  0.122203  0.169992  -6.9e-05  3.98022  0.0
C  C38  1  0.56767844  0.32955905  0.86041543  1  -0.115252  0.000387  3.662553  0.0  -0.133488  0.000282  3.906245  0.0  -0.139657  0.0003  3.926785  0.0  -0.066806  -0.129231  0.000242  3.892569  0.0
C  C39  1  0.43232261  0.67043934  0.13958407  1  -0.115193  -0.000379  3.662541  0.0  -0.133389  -0.000285  3.906246  0.0  -0.139556  -0.000298  3.926786  0.0  -0.066781  -0.129134  -0.000242  3.892575  0.0
C  C40  1  0.45075849  0.32011450  0.97525481  1  0.022257  0.00016  3.662501  0.0  0.002378  0.000106  3.910246  0.0  0.005549  0.000122  3.928685  0.0  -0.053263  0.000404  8.8e-05  3.897991  0.0
C  C41  1  0.54924308  0.67988604  0.02474359  1  0.022158  -0.000168  3.662535  0.0  0.00229  -0.000103  3.91027  0.0  0.005461  -0.000125  3.928709  0.0  -0.053284  0.000309  -8.8e-05  3.898002  0.0
C  C42  1  0.28306085  0.42264858  0.01342212  1  -0.099478  -0.000244  3.688565  0.0  -0.113653  -0.000312  3.942063  0.0  -0.118616  -0.000324  3.959751  0.0  -0.069431  -0.110559  -0.000251  3.929901  0.0
C  C43  1  0.71694292  0.57735305  0.98657576  1  -0.099423  0.000242  3.688487  0.0  -0.113628  0.00031  3.942015  0.0  -0.118595  0.000325  3.959707  0.0  -0.069455  -0.110532  0.000251  3.929845  0.0
C  C44  1  0.23862517  0.53282280  0.93552714  1  0.16034  -0.000121  3.668503  0.0  0.131078  -5.4e-05  3.914248  0.0  0.140822  -7.5e-05  3.928406  0.0  0.061708  0.124854  -2.1e-05  3.905048  0.0
C  C45  1  0.76137767  0.46717776  0.06447272  1  0.160362  0.000107  3.668634  0.0  0.131111  5.7e-05  3.914342  0.0  0.140854  7.4e-05  3.928497  0.0  0.061735  0.124904  2.1e-05  3.905153  0.0
N  N46  1  0.56245342  0.58099426  0.60623728  1  -0.379064  0.000264  3.285476  0.0  -0.304833  0.000259  3.548999  0.0  -0.326462  0.000111  3.566526  0.0  -0.322545  -0.290412  0.00027  3.537093  0.0
N  N47  1  0.43754852  0.41900522  0.39376284  1  -0.379086  -0.000256  3.285601  0.0  -0.304841  -0.00026  3.549071  0.0  -0.326476  -0.000108  3.566605  0.0  -0.322556  -0.29041  -0.000269  3.537155  0.0
N  N48  1  0.35164131  0.54197665  0.82527747  1  -0.376559  3.9e-05  3.292498  0.0  -0.301084  -9.3e-05  3.553815  0.0  -0.322245  2e-06  3.569904  0.0  -0.324233  -0.287251  -1.5e-05  3.543323  0.0
N  N49  1  0.64836284  0.45802391  0.17472125  1  -0.376564  -4.1e-05  3.29257  0.0  -0.301112  9.1e-05  3.553956  0.0  -0.322267  1e-06  3.570039  0.0  -0.324212  -0.287276  1.5e-05  3.543454  0.0
O  O50  1  0.41040202  0.84972761  0.79608650  1  -0.858197  0.01813  1.506217  0.018  -0.859002  0.008947  1.818509  0.009  -0.887503  0.007999  1.799731  0.008  -0.595071  -0.83651  0.008259  1.833774  0.008
O  O51  1  0.58959144  0.15027722  0.20391678  1  -0.858212  -0.018116  1.506286  -0.018  -0.85901  -0.008945  1.818581  -0.009  -0.887511  -0.007996  1.799802  -0.008  -0.595065  -0.836525  -0.00826  1.833843  -0.008
O  O52  1  0.66975571  0.91975594  0.59549448  1  -0.975706  0.001455  1.574882  0.002  -1.007429  9.6e-05  1.880735  0.001  -1.047887  0.000204  1.8734  0.001  -0.684877  -0.974731  0.00091  1.888196  0.002
O  O53  1  0.33023678  0.08024453  0.40450581  1  -0.975707  -0.001462  1.574822  -0.002  -1.00745  -9.4e-05  1.880677  -0.001  -1.047888  -0.000206  1.873344  -0.001  -0.684849  -0.974768  -0.000908  1.888145  -0.002
O  O54  1  0.30916262  0.84660574  0.56496064  1  -0.84542  0.009647  1.541458  0.01  -0.846396  0.002921  1.85594  0.003  -0.876266  0.004444  1.842945  0.005  -0.59176  -0.822732  0.002725  1.86423  0.003
O  O55  1  0.69083881  0.15339158  0.43503971  1  -0.845361  -0.009609  1.541501  -0.01  -0.846312  -0.002918  1.85598  -0.003  -0.876204  -0.004433  1.842983  -0.005  -0.591719  -0.82264  -0.002724  1.86427  -0.003
O  O56  1  0.04950708  0.79699319  0.78743549  1  -0.892841  -0.000454  1.496017  -0.001  -0.889799  -0.000656  1.807675  -0.001  -0.926313  -0.000987  1.792223  -0.001  -0.610862  -0.862632  -0.00058  1.819103  -0.001
O  O57  1  0.95049146  0.20300843  0.21256693  1  -0.892889  0.000489  1.496096  0.001  -0.889835  0.000657  1.807735  0.001  -0.926358  0.000993  1.792301  0.001  -0.610885  -0.862636  0.00058  1.819184  0.001
O  O58  1  0.99999864  0.99999695  0.50000258  1  -0.997812  5e-06  1.592322  0.0  -1.029093  -1e-06  1.905566  0.0  -1.069426  6e-06  1.895451  0.0  -0.695582  -0.997606  1e-06  1.913594  0.0
O  O59  1  0.03766827  0.34336034  0.81957077  1  -0.701601  0.178366  1.270954  0.174  -0.71337  0.077308  1.509462  0.077  -0.764975  0.108189  1.500478  0.109  -0.568687  -0.681248  0.056729  1.515301  0.056
O  O60  1  0.96232682  0.65665089  0.18042489  1  -0.701627  -0.178155  1.271114  -0.174  -0.713338  -0.077274  1.509578  -0.077  -0.764926  -0.108098  1.500596  -0.109  -0.568726  -0.681224  -0.056697  1.515456  -0.056
O  O61  1  0.67591265  0.95788816  0.83790856  1  -0.981673  0.000849  1.559582  0.001  -1.008527  -0.000954  1.855899  -0.001  -1.048931  -0.000147  1.847936  0.0  -0.691629  -0.975232  -0.000969  1.864148  -0.001
O  O62  1  0.32408683  0.04211452  0.16209014  1  -0.981681  -0.000845  1.559585  -0.001  -1.008532  0.000951  1.855918  0.001  -1.04894  0.000156  1.847956  0.0  -0.691636  -0.975216  0.000968  1.864178  0.001
O  O63  1  0.38686849  0.13439519  0.75470317  1  -0.91204  0.041013  1.552839  0.057  -0.938967  0.01557  1.851706  0.034  -0.975938  0.015666  1.84401  0.035  -0.656808  -0.909928  0.008124  1.856139  0.024
O  O64  1  0.61313316  0.86560861  0.24529761  1  -0.912023  -0.041012  1.552734  -0.057  -0.938963  -0.015572  1.851616  -0.034  -0.975917  -0.015673  1.843903  -0.035  -0.656788  -0.909914  -0.00813  1.856031  -0.024
O  O65  1  0.13908035  0.12207977  0.65386560  1  -0.943748  0.032163  1.616415  0.049  -0.974142  0.012104  1.934552  0.031  -1.00805  0.012575  1.924416  0.033  -0.663506  -0.94882  0.006265  1.94015  0.023
O  O66  1  0.86092017  0.87791646  0.34613499  1  -0.943729  -0.032104  1.616405  -0.049  -0.97411  -0.012108  1.934553  -0.031  -1.008032  -0.012576  1.924411  -0.033  -0.663502  -0.948788  -0.006267  1.940167  -0.023
O  O67  1  0.93772651  0.08117453  0.87121527  1  -0.952578  0.007764  1.594762  0.021  -0.978798  -0.003253  1.903681  0.012  -1.021818  -0.004212  1.895737  0.013  -0.668237  -0.946362  -0.004524  1.907683  0.009
O  O68  1  0.06227204  0.91882709  0.12878629  1  -0.952608  -0.007753  1.594747  -0.021  -0.978846  0.003254  1.903682  -0.012  -1.021857  0.004181  1.895742  -0.013  -0.668201  -0.946379  0.004519  1.907708  -0.009
O  O69  1  0.84171892  0.86452918  0.02661024  1  -0.970972  -0.026858  1.617042  -0.042  -1.0014  -0.01185  1.932414  -0.029  -1.04409  -0.010869  1.924763  -0.03  -0.676841  -0.96943  -0.00786  1.935736  -0.023
O  O70  1  0.15827547  0.13547671  0.97339106  1  -0.970924  0.026913  1.617126  0.042  -1.001341  0.011846  1.932504  0.029  -1.044039  0.010901  1.92485  0.03  -0.676804  -0.969335  0.007859  1.935831  0.023
