# generated using pymatgen
data_Cd5H16C18N16(Cl3O)2
_symmetry_space_group_name_H-M   'P 1'
_cell_length_a   8.81153078
_cell_length_b   9.06726881
_cell_length_c   10.08593701
_cell_angle_alpha   73.90249292
_cell_angle_beta   83.54354193
_cell_angle_gamma   78.28755082
_symmetry_Int_Tables_number   1
_chemical_formula_structural   Cd5H16C18N16(Cl3O)2
_chemical_formula_sum   'Cd5 H16 C18 N16 Cl6 O2'
_cell_volume   756.76297241
_cell_formula_units_Z   1
loop_
 _symmetry_equiv_pos_site_id
 _symmetry_equiv_pos_as_xyz
  1  'x, y, z'
loop_
 _atom_site_type_symbol
 _atom_site_label
 _atom_site_symmetry_multiplicity
 _atom_site_fract_x
 _atom_site_fract_y
 _atom_site_fract_z
 _atom_site_occupancy
 _atom_site_hle17_bader_spin_density
 _atom_site_hle17_ddec_charge
 _atom_site_hle17_ddec_spin_density
 _atom_site_hle17_ddec_sum_bond_order
 _atom_site_hle17_magmom
 _atom_site_hse06_10hf_bader_spin_density
 _atom_site_hse06_10hf_ddec_charge
 _atom_site_hse06_10hf_ddec_spin_density
 _atom_site_hse06_10hf_ddec_sum_bond_order
 _atom_site_hse06_10hf_magmom
 _atom_site_hse06_bader_spin_density
 _atom_site_hse06_ddec_charge
 _atom_site_hse06_ddec_spin_density
 _atom_site_hse06_ddec_sum_bond_order
 _atom_site_hse06_magmom
 _atom_site_pbe_bader_spin_density
 _atom_site_pbe_cm5_charge
 _atom_site_pbe_ddec_charge
 _atom_site_pbe_ddec_spin_density
 _atom_site_pbe_ddec_sum_bond_order
 _atom_site_pbe_magmom
Cd  Cd0  1  0.18637418  0.93420516  0.37782533  1  0  1.04298  0  1.783627  0  0  0.861319  0  2.237702  0  0  0.911642  0  2.193107  0  0  0.69153  0.825204  0  2.267992  0
Cd  Cd1  1  0.81362678  0.06579619  0.62217444  1  0  1.04297  0  1.783647  0  0  0.861308  0  2.237735  0  0  0.911629  0  2.193138  0  0  0.691514  0.82519  0  2.268025  0
Cd  Cd2  1  0.42154180  0.88347291  0.70757493  1  0  0.97854  0  1.866966  0  0  0.797706  0  2.333188  0  0  0.847104  0  2.29127  0  0  0.631498  0.762413  0  2.361388  0
Cd  Cd3  1  0.57845708  0.11652726  0.29242436  1  0  0.978553  0  1.866927  0  0  0.797718  0  2.333142  0  0  0.847115  0  2.291228  0  0  0.631509  0.762424  0  2.361336  0
Cd  Cd4  1  0.50000044  0.49999959  0.99999995  1  0  0.940969  0  1.885519  0  0  0.73429  0  2.35693  0  0  0.784893  0  2.315447  0  0  0.708495  0.698499  0  2.385298  0
H  H5  1  0.86098720  0.53706443  0.30405539  1  0  0.108971  0  0.975796  0  0  0.118004  0  1.040169  0  0  0.120958  0  1.03832  0  0  0.103484  0.115855  0  1.04161  0
H  H6  1  0.13900545  0.46293222  0.69594345  1  0  0.109021  0  0.975755  0  0  0.118025  0  1.040182  0  0  0.120978  0  1.038332  0  0  0.103504  0.115876  0  1.041623  0
H  H7  1  0.68427593  0.78876737  0.22100908  1  0  0.099283  0  0.971667  0  0  0.106329  0  1.041463  0  0  0.109188  0  1.039949  0  0  0.09007  0.104165  0  1.042811  0
H  H8  1  0.31572289  0.21123283  0.77898525  1  0  0.0993  0  0.971586  0  0  0.106347  0  1.041388  0  0  0.109197  0  1.039892  0  0  0.090069  0.104186  0  1.042729  0
H  H9  1  0.00609556  0.90891161  0.86900482  1  0  0.088025  0  0.992941  0  0  0.095972  0  1.064115  0  0  0.098535  0  1.062825  0  0  0.088244  0.094105  0  1.065158  0
H  H10  1  0.99390791  0.09108857  0.13099597  1  0  0.088011  0  0.992904  0  0  0.095945  0  1.064101  0  0  0.098508  0  1.062811  0  0  0.088221  0.094078  0  1.065142  0
H  H11  1  0.17292810  0.65495261  0.94662168  1  0  0.089748  0  1.004603  0  0  0.096976  0  1.076097  0  0  0.099821  0  1.07466  0  0  0.088225  0.094919  0  1.077219  0
H  H12  1  0.82707104  0.34504637  0.05338284  1  0  0.089676  0  1.004541  0  0  0.096847  0  1.076121  0  0  0.099726  0  1.07465  0  0  0.088155  0.09479  0  1.07724  0
H  H13  1  0.32976217  0.54633654  0.34598787  1  0  0.074708  0  1.010808  0  0  0.076841  0  1.102692  0  0  0.078415  0  1.101621  0  0  0.080634  0.075521  0  1.103659  0
H  H14  1  0.67024084  0.45366599  0.65400942  1  0  0.074744  0  1.010764  0  0  0.076878  0  1.102644  0  0  0.078451  0  1.101574  0  0  0.080646  0.075559  0  1.103611  0
H  H15  1  0.20332486  0.43675662  0.47072840  1  0  0.082855  0  0.934409  0  0  0.100594  0  0.99779  0  0  0.10121  0  0.997532  0  0  0.090281  0.100204  0  0.997935  0
H  H16  1  0.79667516  0.56324356  0.52927077  1  0  0.082858  0  0.934385  0  0  0.100608  0  0.997763  0  0  0.101224  0  0.997503  0  0  0.090295  0.100218  0  0.997908  0
H  H17  1  0.32837364  0.53985792  0.52483466  1  0  0.097485  0  0.949967  0  0  0.117346  0  1.010255  0  0  0.117578  0  1.010786  0  0  0.090531  0.116993  0  1.010189  0
H  H18  1  0.67162844  0.46014344  0.47516301  1  0  0.097446  0  0.950029  0  0  0.117293  0  1.010346  0  0  0.117519  0  1.010881  0  0  0.090517  0.11694  0  1.01028  0
H  H19  1  0.06309559  0.67907726  0.36328155  1  0  0.35812  0  0.870546  0  0  0.33991  0  0.933783  0  0  0.347075  0  0.927282  0  0  0.307126  0.334814  0  0.938429  0
H  H20  1  0.93690541  0.32092406  0.63672220  1  0  0.358146  0  0.870567  0  0  0.339951  0  0.933762  0  0  0.347112  0  0.927265  0  0  0.307136  0.334856  0  0.938407  0
C  C21  1  0.13140637  0.43058357  0.18394469  1  0  0.266969  0  3.772377  0  0  0.24796  0  4.038568  0  0  0.256582  0  4.055439  0  0  0.220685  0.242008  0  4.027448  0
C  C22  1  0.86859138  0.56941659  0.81605571  1  0  0.266942  0  3.772468  0  0  0.247955  0  4.038611  0  0  0.256576  0  4.055481  0  0  0.220657  0.242003  0  4.02749  0
C  C23  1  0.03223260  0.58187659  0.13503136  1  0  0.008462  0  3.794627  0  0  0.027521  0  4.025088  0  0  0.026677  0  4.046748  0  0  -0.003708  0.028143  0  4.010426  0
C  C24  1  0.96776155  0.41812470  0.86497312  1  0  0.008504  0  3.794561  0  0  0.027582  0  4.02497  0  0  0.026737  0  4.046635  0  0  -0.003697  0.028204  0  4.010307  0
C  C25  1  0.89311881  0.62153379  0.21078739  1  0  -0.108739  0  3.733918  0  0  -0.127331  0  3.977956  0  0  -0.12894  0  3.996495  0  0  -0.091992  -0.12611  0  3.965315  0
C  C26  1  0.10687979  0.37846170  0.78921408  1  0  -0.108777  0  3.733823  0  0  -0.12737  0  3.97786  0  0  -0.128977  0  3.996396  0  0  -0.09198  -0.126155  0  3.965233  0
C  C27  1  0.79401053  0.76289700  0.16317149  1  0  -0.072518  0  3.71327  0  0  -0.097839  0  3.968328  0  0  -0.099214  0  3.988269  0  0  -0.087964  -0.096839  0  3.954991  0
C  C28  1  0.20598833  0.23710318  0.83682582  1  0  -0.072554  0  3.71337  0  0  -0.097877  0  3.968412  0  0  -0.099253  0  3.988349  0  0  -0.087981  -0.096877  0  3.955079  0
C  C29  1  0.83390737  0.86827659  0.03950375  1  0  -0.000808  0  3.784641  0  0  0.016687  0  4.023503  0  0  0.014229  0  4.045213  0  0  -0.009958  0.018132  0  4.009021  0
C  C30  1  0.16609722  0.13172361  0.96049494  1  0  -0.000815  0  3.784476  0  0  0.0167  0  4.023324  0  0  0.014246  0  4.045033  0  0  -0.009931  0.018144  0  4.008844  0
C  C31  1  0.73712428  0.01989453  0.98592702  1  0  0.309652  0  3.761115  0  0  0.277598  0  4.032247  0  0  0.291557  0  4.047353  0  0  0.221895  0.268026  0  4.021994  0
C  C32  1  0.26287824  0.98010449  0.01407316  1  0  0.309653  0  3.7612  0  0  0.277579  0  4.032343  0  0  0.291532  0  4.047458  0  0  0.221882  0.268008  0  4.022094  0
C  C33  1  0.97304501  0.82831408  0.96466895  1  0  -0.075125  0  3.719259  0  0  -0.098558  0  3.969764  0  0  -0.099958  0  3.990739  0  0  -0.090702  -0.097544  0  3.955639  0
C  C34  1  0.02695442  0.17168957  0.03533439  1  0  -0.075076  0  3.71909  0  0  -0.09851  0  3.969608  0  0  -0.099908  0  3.990582  0  0  -0.090721  -0.097495  0  3.955481  0
C  C35  1  0.07013925  0.68618263  0.01063750  1  0  -0.076627  0  3.717358  0  0  -0.101875  0  3.968591  0  0  -0.104289  0  3.989707  0  0  -0.09303  -0.100221  0  3.954406  0
C  C36  1  0.92986255  0.31381406  0.98936135  1  0  -0.076556  0  3.717375  0  0  -0.101774  0  3.968612  0  0  -0.104214  0  3.989709  0  0  -0.092954  -0.100117  0  3.95442  0
C  C37  1  0.25726350  0.54115665  0.44212435  1  0  -0.036441  0  3.588205  0  0  -0.132908  0  3.859666  0  0  -0.12629  0  3.862691  0  0  -0.166236  -0.137386  0  3.858036  0
C  C38  1  0.74273877  0.45884355  0.55787160  1  0  -0.036412  0  3.588134  0  0  -0.132905  0  3.859661  0  0  -0.126281  0  3.862683  0  0  -0.166248  -0.137384  0  3.858031  0
N  N39  1  0.08052830  0.30976146  0.27712655  1  0  -0.241979  0  2.93086  0  0  -0.232779  0  3.21226  0  0  -0.239187  0  3.226315  0  0  -0.205244  -0.228419  0  3.202749  0
N  N40  1  0.91946988  0.69023636  0.72287439  1  0  -0.241904  0  2.930921  0  0  -0.232707  0  3.212299  0  0  -0.239116  0  3.226358  0  0  -0.205209  -0.228348  0  3.202789  0
N  N41  1  0.20234006  0.19509337  0.29306082  1  0  -0.131507  0  3.275556  0  0  -0.07709  0  3.570381  0  0  -0.086831  0  3.589607  0  0  -0.122536  -0.070069  0  3.556738  0
N  N42  1  0.79766019  0.80490563  0.70694060  1  0  -0.131499  0  3.275625  0  0  -0.077084  0  3.570451  0  0  -0.086826  0  3.589677  0  0  -0.122488  -0.070062  0  3.556807  0
N  N43  1  0.32415857  0.24121592  0.21474421  1  0  -0.127552  0  3.190413  0  0  -0.089485  0  3.477793  0  0  -0.096907  0  3.498341  0  0  -0.12378  -0.084428  0  3.463487  0
N  N44  1  0.67584033  0.75878424  0.78525706  1  0  -0.127561  0  3.190458  0  0  -0.089492  0  3.477837  0  0  -0.096914  0  3.498385  0  0  -0.123804  -0.084437  0  3.463532  0
N  N45  1  0.28275601  0.38995842  0.14420762  1  0  -0.293525  0  3.082574  0  0  -0.242344  0  3.359566  0  0  -0.257032  0  3.377679  0  0  -0.217146  -0.232313  0  3.347308  0
N  N46  1  0.71724060  0.61004174  0.85579291  1  0  -0.293579  0  3.082598  0  0  -0.242403  0  3.359586  0  0  -0.257092  0  3.3777  0  0  -0.217168  -0.232372  0  3.347326  0
N  N47  1  0.73440902  0.09884076  0.85037985  1  0  -0.353964  0  3.116703  0  0  -0.297154  0  3.409354  0  0  -0.316635  0  3.425279  0  0  -0.230485  -0.283201  0  3.397396  0
N  N48  1  0.26559307  0.90116059  0.14961881  1  0  -0.353929  0  3.11671  0  0  -0.297104  0  3.409347  0  0  -0.316582  0  3.425275  0  0  -0.230469  -0.283151  0  3.397389  0
N  N49  1  0.64056268  0.23662033  0.84355224  1  0  -0.039215  0  3.003583  0  0  -0.032107  0  3.290734  0  0  -0.028437  0  3.304615  0  0  -0.083877  -0.033833  0  3.280466  0
N  N50  1  0.35943827  0.76338101  0.15644754  1  0  -0.03927  0  3.003483  0  0  -0.032168  0  3.290641  0  0  -0.028498  0  3.304521  0  0  -0.08389  -0.033891  0  3.28037  0
N  N51  1  0.58771966  0.24239026  0.96871678  1  0  -0.117301  0  3.182324  0  0  -0.069941  0  3.474696  0  0  -0.078337  0  3.492059  0  0  -0.115105  -0.06395  0  3.462244  0
N  N52  1  0.41228015  0.75761109  0.03128213  1  0  -0.117214  0  3.182232  0  0  -0.069854  0  3.474602  0  0  -0.07825  0  3.491962  0  0  -0.115079  -0.063862  0  3.462149  0
N  N53  1  0.64501833  0.10832710  0.06112613  1  0  -0.3236  0  3.111259  0  0  -0.266435  0  3.391573  0  0  -0.284497  0  3.409041  0  0  -0.233522  -0.253565  0  3.378936  0
N  N54  1  0.35498035  0.89167424  0.93887389  1  0  -0.32367  0  3.111308  0  0  -0.266499  0  3.391626  0  0  -0.284559  0  3.409094  0  0  -0.233548  -0.253631  0  3.378994  0
Cl  Cl55  1  0.13159419  0.00276076  0.62378399  1  0  -0.549269  0  1.094118  0  0  -0.478463  0  1.410444  0  0  -0.499495  0  1.386446  0  0  -0.268699  -0.463319  0  1.426804  0
Cl  Cl56  1  0.86840584  0.99723941  0.37621617  1  0  -0.54927  0  1.094101  0  0  -0.478458  0  1.410419  0  0  -0.499492  0  1.386423  0  0  -0.268696  -0.463315  0  1.426779  0
Cl  Cl57  1  0.48597320  0.85394965  0.42686249  1  0  -0.519518  0  1.076855  0  0  -0.440957  0  1.378063  0  0  -0.463546  0  1.356023  0  0  -0.25075  -0.424478  0  1.392494  0
Cl  Cl58  1  0.51402569  0.14605051  0.57313780  1  0  -0.519519  0  1.076848  0  0  -0.44097  0  1.37808  0  0  -0.463538  0  1.356004  0  0  -0.250748  -0.424495  0  1.392516  0
Cl  Cl59  1  0.37270768  0.60254214  0.76210772  1  0  -0.499578  0  1.074062  0  0  -0.429915  0  1.371067  0  0  -0.450568  0  1.350808  0  0  -0.256023  -0.415407  0  1.384903  0
Cl  Cl60  1  0.62729121  0.39745802  0.23789256  1  0  -0.499576  0  1.074059  0  0  -0.42988  0  1.37102  0  0  -0.450538  0  1.350768  0  0  -0.256021  -0.415375  0  1.384851  0
O  O61  1  0.13655192  0.67953308  0.42898733  1  0  -0.509046  0  2.180232  0  0  -0.432754  0  2.428476  0  0  -0.452883  0  2.417871  0  0  -0.407701  -0.41869  0  2.435677  0
O  O62  1  0.86345289  0.32046594  0.57101261  1  0  -0.5091  0  2.180213  0  0  -0.432802  0  2.428475  0  0  -0.452929  0  2.417865  0  0  -0.407713  -0.418739  0  2.435675  0
