# generated using pymatgen
data_Cd3H30C50(N2O7)2
_symmetry_space_group_name_H-M   'P 1'
_cell_length_a   13.91421193
_cell_length_b   14.17342947
_cell_length_c   14.69853729
_cell_angle_alpha   93.96921450
_cell_angle_beta   106.41573863
_cell_angle_gamma   119.55539225
_symmetry_Int_Tables_number   1
_chemical_formula_structural   Cd3H30C50(N2O7)2
_chemical_formula_sum   'Cd6 H60 C100 N8 O28'
_cell_volume   2341.94070155
_cell_formula_units_Z   2
loop_
 _symmetry_equiv_pos_site_id
 _symmetry_equiv_pos_as_xyz
  1  'x, y, z'
loop_
 _atom_site_type_symbol
 _atom_site_label
 _atom_site_symmetry_multiplicity
 _atom_site_fract_x
 _atom_site_fract_y
 _atom_site_fract_z
 _atom_site_occupancy
 _atom_site_pbe_bader_charge
 _atom_site_pbe_bader_spin_density
 _atom_site_pbe_cm5_charge
 _atom_site_pbe_ddec_charge
 _atom_site_pbe_ddec_spin_density
 _atom_site_pbe_ddec_sum_bond_order
 _atom_site_pbe_magmom
Cd  Cd0  1  0.62032974  0.71027069  0.41600503  1  1.269338  0  0.780662  0.880632  0  2.162907  0
Cd  Cd1  1  0.37966585  0.28972903  0.58399349  1  1.269358  0  0.780669  0.88059  0  2.162974  0
Cd  Cd2  1  0.52650734  0.72697485  0.16653709  1  1.345199  0  0.806775  1.021121  0  2.17202  0
Cd  Cd3  1  0.47349278  0.27303151  0.83346723  1  1.345203  0  0.806756  1.021082  0  2.172147  0
Cd  Cd4  1  0.28344980  0.79744857  0.14190069  1  1.266859  0  0.764317  0.911845  0  2.053924  0
Cd  Cd5  1  0.71655380  0.20255207  0.85809661  1  1.266834  0  0.764319  0.911849  0  2.053965  0
H  H6  1  0.60922519  0.18510585  0.23693949  1  0.090967  0  0.096774  0.097661  0  1.065752  0
H  H7  1  0.39077904  0.81489721  0.76306429  1  0.090999  0  0.096761  0.097647  0  1.065798  0
H  H8  1  0.80275960  0.34953633  0.35337653  1  0.040851  0  0.097764  0.097249  0  1.008377  0
H  H9  1  0.19724527  0.65046254  0.64662777  1  0.040795  0  0.097792  0.097281  0  1.008332  0
H  H10  1  0.94912664  0.31516517  0.46745866  1  0.065661  0  0.105668  0.116062  0  1.00674  0
H  H11  1  0.05088044  0.68483632  0.53253963  1  0.065733  0  0.105676  0.11605  0  1.006757  0
H  H12  1  0.79695264  0.13208779  0.57424417  1  0.115831  0  0.107435  0.130191  0  1.009442  0
H  H13  1  0.20305122  0.86791198  0.42575517  1  0.115761  0  0.107434  0.130184  0  1.009483  0
H  H14  1  0.01069863  0.10688628  0.83483108  1  0.048433  0  0.094733  0.095817  0  1.033981  0
H  H15  1  0.98930541  0.89311509  0.16517319  1  0.048524  0  0.094751  0.095876  0  1.033922  0
H  H16  1  0.13770190  0.09817675  0.74603074  1  0.109558  0  0.096678  0.107255  0  1.039524  0
H  H17  1  0.86230447  0.90182212  0.25397463  1  0.109689  0  0.096694  0.107262  0  1.039504  0
H  H18  1  0.09024704  0.10190434  0.57161678  1  0.097219  0  0.104417  0.120534  0  1.010332  0
H  H19  1  0.90975631  0.89808784  0.42838591  1  0.097189  0  0.104447  0.120495  0  1.010421  0
H  H20  1  0.30317063  0.31505650  0.26182354  1  0.091881  0  0.099964  0.103813  0  1.037967  0
H  H21  1  0.69683740  0.68494671  0.73817241  1  0.091982  0  0.099961  0.103867  0  1.037852  0
H  H22  1  0.14202606  0.15831028  0.11656846  1  0.070695  0  0.101722  0.101869  0  0.99038  0
H  H23  1  0.85798136  0.84169717  0.88342357  1  0.070554  0  0.101758  0.10188  0  0.990328  0
H  H24  1  0.03848701  0.20175027  0.96986148  1  0.135338  0  0.108728  0.135595  0  1.02432  0
H  H25  1  0.96152105  0.79825963  0.03013501  1  0.135228  0  0.10873  0.135547  0  1.024307  0
H  H26  1  0.26099272  0.38474411  0.92502928  1  0.110437  0  0.106768  0.127866  0  1.014158  0
H  H27  1  0.73900672  0.61526251  0.07495855  1  0.110447  0  0.10672  0.127755  0  1.014254  0
H  H28  1  0.15466692  0.39769874  0.62458457  1  0.060589  0  0.093326  0.092458  0  1.047335  0
H  H29  1  0.84531641  0.60230186  0.37540465  1  0.061198  0  0.093356  0.092488  0  1.047304  0
H  H30  1  0.98943247  0.41556262  0.64212958  1  0.051722  0  0.096328  0.090681  0  1.000982  0
H  H31  1  0.01055518  0.58444292  0.35786730  1  0.051944  0  0.096359  0.090705  0  1.001044  0
H  H32  1  0.95851949  0.41310614  0.80146771  1  0.130155  0  0.107878  0.133462  0  1.025807  0
H  H33  1  0.04147274  0.58689689  0.19853153  1  0.130566  0  0.107927  0.133492  0  1.025693  0
H  H34  1  0.45208883  0.56800253  0.51699657  1  0.128158  0  0.114534  0.090903  0  1.038358  0
H  H35  1  0.54791775  0.43200465  0.48301224  1  0.128338  0  0.114532  0.090862  0  1.03838  0
H  H36  1  0.43287901  0.57286893  0.67996222  1  0.115553  0  0.107559  0.121865  0  1.033164  0
H  H37  1  0.56712785  0.42713745  0.32004456  1  0.115944  0  0.107542  0.121796  0  1.033264  0
H  H38  1  0.64602676  0.93495555  0.74379504  1  0.151896  0  0.111552  0.128277  0  1.030805  0
H  H39  1  0.35399288  0.06505088  0.25621512  1  0.152329  0  0.111585  0.128381  0  1.030753  0
H  H40  1  0.65682387  0.91309640  0.57667341  1  0.152381  0  0.118758  0.097334  0  1.011812  0
H  H41  1  0.34318577  0.08690161  0.42333480  1  0.151837  0  0.11871  0.097277  0  1.011794  0
H  H42  1  0.36386236  0.60815726  0.78354349  1  0.08485  0  0.108039  0.111977  0  1.033914  0
H  H43  1  0.63614658  0.39184748  0.21646166  1  0.084715  0  0.10802  0.111922  0  1.033945  0
H  H44  1  0.36712218  0.61323685  0.95314314  1  0.142752  0  0.115231  0.093982  0  1.040423  0
H  H45  1  0.63287911  0.38677958  0.04685957  1  0.143009  0  0.115212  0.093955  0  1.040462  0
H  H46  1  0.70323872  0.90046389  0.06720205  1  0.110222  0  0.117946  0.084031  0  1.000716  0
H  H47  1  0.29676031  0.09955251  0.93280209  1  0.110175  0  0.118002  0.084017  0  1.000695  0
H  H48  1  0.71192918  0.91387881  0.90053186  1  0.089761  0  0.115595  0.127372  0  0.997107  0
H  H49  1  0.28807508  0.08613094  0.09947178  1  0.089972  0  0.115567  0.127295  0  0.996935  0
H  H50  1  0.30753301  0.93302161  0.97827167  1  0.106767  0  0.118508  0.09024  0  1.006484  0
H  H51  1  0.69244460  0.06696218  0.02171947  1  0.1065  0  0.118478  0.090172  0  1.006435  0
H  H52  1  0.17784851  0.92171686  0.81428263  1  0.084274  0  0.107652  0.112064  0  1.025634  0
H  H53  1  0.82213739  0.07827366  0.18571055  1  0.084048  0  0.107683  0.112179  0  1.025554  0
H  H54  1  0.94025039  0.57143850  0.79543435  1  0.115038  0  0.110023  0.117486  0  1.029109  0
H  H55  1  0.05973768  0.42854514  0.20457111  1  0.115251  0  0.110005  0.11744  0  1.029246  0
H  H56  1  0.08012265  0.59727696  0.95674751  1  0.121725  0  0.121995  0.097793  0  0.99849  0
H  H57  1  0.91986966  0.40270757  0.04325710  1  0.121743  0  0.122011  0.097756  0  0.998323  0
H  H58  1  0.99939295  0.90791750  0.74960676  1  0.084832  0  0.108774  0.111651  0  1.028931  0
H  H59  1  0.00058616  0.09206628  0.25038613  1  0.084477  0  0.108776  0.111714  0  1.028968  0
H  H60  1  0.84116936  0.88839142  0.60535083  1  0.105365  0  0.117066  0.084765  0  1.025831  0
H  H61  1  0.15882211  0.11159840  0.39463629  1  0.105434  0  0.117034  0.0847  0  1.025858  0
H  H62  1  0.73144473  0.56183201  0.48816506  1  0.080666  0  0.118986  0.087223  0  1.008247  0
H  H63  1  0.26856381  0.43816554  0.51181833  1  0.081321  0  0.118977  0.0873  0  1.008207  0
H  H64  1  0.88366973  0.56601960  0.63009983  1  0.084506  0  0.114029  0.12366  0  0.981856  0
H  H65  1  0.11632462  0.43396598  0.36989247  1  0.084724  0  0.114075  0.123745  0  0.981782  0
C  C66  1  0.83605006  0.13685170  0.41242942  1  0.497707  0  0.083054  0.221871  0  4.033203  0
C  C67  1  0.16395945  0.86315143  0.58757236  1  0.497777  0  0.083011  0.221832  0  4.033125  0
C  C68  1  0.72735313  0.04460914  0.34849292  1  -0.013107  0  -0.008077  -0.124602  0  3.907538  0
C  C69  1  0.27266041  0.95539318  0.65150986  1  -0.013035  0  -0.008105  -0.12462  0  3.907372  0
C  C70  1  0.70526840  0.92932242  0.34683347  1  1.613377  0  0.214395  0.622106  0  4.210533  0
C  C71  1  0.29474251  0.07068316  0.65317295  1  1.613307  0  0.214354  0.622181  0  4.210419  0
C  C72  1  0.64442391  0.06318543  0.28553523  1  -0.058702  0  -0.01251  -0.038197  0  3.931806  0
C  C73  1  0.35558208  0.93681013  0.71446706  1  -0.058443  0  -0.012487  -0.03816  0  3.931606  0
C  C74  1  0.52173346  0.96907594  0.22009217  1  1.55066  0  0.198542  0.571663  0  4.18626  0
C  C75  1  0.47827587  0.03092556  0.77990671  1  1.550802  0  0.198599  0.571665  0  4.18644  0
C  C76  1  0.67385768  0.17332024  0.28771012  1  0.023673  0  -0.088149  -0.096933  0  3.980288  0
C  C77  1  0.32614532  0.82667537  0.71228798  1  0.022819  0  -0.088219  -0.097024  0  3.98033  0
C  C78  1  0.78174540  0.26441049  0.35286851  1  -0.021983  0  -0.094558  -0.074071  0  4.033378  0
C  C79  1  0.21825723  0.73558842  0.64713180  1  -0.021439  0  -0.094558  -0.074056  0  4.033245  0
C  C80  1  0.86319137  0.24622609  0.41640771  1  -0.03552  0  -0.092597  -0.178996  0  4.002562  0
C  C81  1  0.13681466  0.75377621  0.58359173  1  -0.035655  0  -0.092583  -0.178977  0  4.002528  0
C  C82  1  0.94038376  0.11546494  0.56243419  1  0.382838  0  0.081709  0.258067  0  4.051524  0
C  C83  1  0.05961848  0.88453060  0.43756779  1  0.382664  0  0.081686  0.257999  0  4.051583  0
C  C84  1  0.87027195  0.12244092  0.61080226  1  -0.009731  0  -0.101379  -0.233669  0  3.969906  0
C  C85  1  0.12972822  0.87755627  0.38919998  1  -0.009617  0  -0.101345  -0.233675  0  3.970067  0
C  C86  1  0.89637299  0.11914767  0.70957702  1  -0.041844  0  -0.020115  -0.007564  0  3.993683  0
C  C87  1  0.10363340  0.88085124  0.29042564  1  -0.041951  0  -0.020103  -0.007392  0  3.993751  0
C  C88  1  0.82853410  0.13511950  0.76593262  1  1.538629  0  0.183762  0.548405  0  4.246759  0
C  C89  1  0.17146445  0.86487346  0.23407158  1  1.538729  0  0.183781  0.548274  0  4.246512  0
C  C90  1  0.99111785  0.10811666  0.75797546  1  -0.019353  0  -0.102451  -0.135673  0  4.016309  0
C  C91  1  0.00888410  0.89187970  0.24202719  1  -0.01949  0  -0.102488  -0.135843  0  4.016343  0
C  C92  1  0.06104592  0.10268004  0.70874695  1  -0.075367  0  -0.098316  -0.070788  0  4.038467  0
C  C93  1  0.93895667  0.89731214  0.29125621  1  -0.075246  0  -0.098316  -0.070766  0  4.03858  0
C  C94  1  0.03603333  0.10576602  0.61078631  1  -0.004694  0  -0.097663  -0.178172  0  3.952497  0
C  C95  1  0.96397175  0.89423455  0.38921614  1  -0.004673  0  -0.097671  -0.178093  0  3.952765  0
C  C96  1  0.14568285  0.37813921  0.03577966  1  0.386796  0  0.082863  0.22244  0  4.030628  0
C  C97  1  0.85432014  0.62187230  0.96421766  1  0.386916  0  0.082883  0.222474  0  4.030537  0
C  C98  1  0.23267467  0.46602516  0.11789986  1  0.002648  0  -0.011227  -0.136449  0  3.940156  0
C  C99  1  0.76733214  0.53398381  0.88210099  1  0.002563  0  -0.011319  -0.136509  0  3.940254  0
C  C100  1  0.25143109  0.57976280  0.11685453  1  1.600132  0  0.20507  0.600493  0  4.228664  0
C  C101  1  0.74856797  0.42024434  0.88315297  1  1.600082  0  0.205061  0.600439  0  4.228841  0
C  C102  1  0.29192334  0.44276606  0.19927126  1  -0.019912  0  -0.016545  -0.047535  0  3.956459  0
C  C103  1  0.70807865  0.55723704  0.80072853  1  -0.019864  0  -0.016513  -0.047508  0  3.956302  0
C  C104  1  0.39472168  0.53398916  0.28537876  1  1.554715  0  0.202744  0.580859  0  4.174118  0
C  C105  1  0.60527523  0.46601549  0.71462593  1  1.554655  0  0.202689  0.580789  0  4.174054  0
C  C106  1  0.25795654  0.33149485  0.19748883  1  -0.011121  0  -0.091072  -0.10553  0  3.989551  0
C  C107  1  0.74204868  0.66851000  0.80250786  1  -0.011127  0  -0.091084  -0.105537  0  3.989244  0
C  C108  1  0.16852421  0.24456960  0.11588514  1  -0.108845  0  -0.09342  -0.072999  0  4.030609  0
C  C109  1  0.83147886  0.75543940  0.88411200  1  -0.108571  0  -0.093472  -0.073117  0  4.030499  0
C  C110  1  0.11191057  0.26740027  0.03382878  1  0.046397  0  -0.088403  -0.17121  0  3.95205  0
C  C111  1  0.88809911  0.73261384  0.96616711  1  0.046074  0  -0.088381  -0.171058  0  3.951686  0
C  C112  1  0.10896982  0.40181656  0.87262733  1  0.371261  0  0.085425  0.263948  0  4.0235  0
C  C113  1  0.89102725  0.59819244  0.12736686  1  0.371016  0  0.085311  0.263744  0  4.023821  0
C  C114  1  0.20182815  0.39304086  0.86415292  1  -0.027554  0  -0.099768  -0.226497  0  3.956611  0
C  C115  1  0.79816419  0.60695978  0.13583868  1  -0.027816  0  -0.099692  -0.22629  0  3.956496  0
C  C116  1  0.21783648  0.39188582  0.77410139  1  -0.027268  0  -0.020014  -0.011913  0  3.971749  0
C  C117  1  0.78215266  0.60811313  0.22588924  1  -0.027289  0  -0.019986  -0.011801  0  3.971501  0
C  C118  1  0.31298802  0.37513438  0.76169499  1  1.578334  0  0.207802  0.591301  0  4.199931  0
C  C119  1  0.68700227  0.62486794  0.23829485  1  1.578531  0  0.20778  0.591261  0  4.199942  0
C  C120  1  0.14238317  0.40157426  0.69439993  1  -0.017281  0  -0.102626  -0.137465  0  4.019317  0
C  C121  1  0.85760211  0.59842049  0.30559002  1  -0.017944  0  -0.10265  -0.137612  0  4.019305  0
C  C122  1  0.05063665  0.41118525  0.70465277  1  -0.056657  0  -0.094811  -0.065122  0  4.055201  0
C  C123  1  0.94935544  0.58882288  0.29534140  1  -0.056861  0  -0.094808  -0.065111  0  4.055359  0
C  C124  1  0.03262861  0.41060126  0.79315393  1  -0.013069  0  -0.098227  -0.188457  0  3.961023  0
C  C125  1  0.96736064  0.58940184  0.20683909  1  -0.013359  0  -0.098296  -0.188424  0  3.961156  0
C  C126  1  0.49177240  0.64722923  0.56927147  1  0.448694  0  0.042192  0.094214  0  3.96289  0
C  C127  1  0.50823509  0.35277291  0.43073854  1  0.44778  0  0.042125  0.094073  0  3.963142  0
C  C128  1  0.48083005  0.65125429  0.66016512  1  -0.028909  0  -0.080847  -0.166281  0  3.931094  0
C  C129  1  0.51918321  0.34875543  0.33984497  1  -0.02905  0  -0.080743  -0.166071  0  3.93099  0
C  C130  1  0.54026768  0.75542926  0.72699628  1  0.018023  0  0.012933  0.095944  0  3.982387  0
C  C131  1  0.45974819  0.24457714  0.27301356  1  0.017871  0  0.0129  0.096004  0  3.982029  0
C  C132  1  0.60269405  0.85199151  0.69613911  1  -0.082529  0  -0.077274  -0.162664  0  3.897059  0
C  C133  1  0.39731748  0.14800986  0.30386919  1  -0.083208  0  -0.077434  -0.16304  0  3.897175  0
C  C134  1  0.60814772  0.84046516  0.60322653  1  0.471505  0  0.050171  0.102844  0  3.924818  0
C  C135  1  0.39186260  0.15953538  0.39678070  1  0.47248  0  0.050263  0.102992  0  3.924837  0
C  C136  1  0.53915667  0.75977999  0.82716046  1  -0.046884  0  0.021423  0.11352  0  3.96434  0
C  C137  1  0.46084675  0.24023223  0.17284519  1  -0.046802  0  0.021373  0.113273  0  3.96459  0
C  C138  1  0.44166229  0.67511955  0.84373661  1  0.016543  0  -0.076733  -0.159221  0  3.915931  0
C  C139  1  0.55833718  0.32489098  0.15626787  1  0.016497  0  -0.076646  -0.15904  0  3.916126  0
C  C140  1  0.44247730  0.67669173  0.93823765  1  0.477164  0  0.049807  0.112621  0  3.919496  0
C  C141  1  0.55752773  0.32332465  0.06177012  1  0.476632  0  0.049883  0.112658  0  3.91923  0
C  C142  1  0.62957011  0.83846034  0.00154778  1  0.438699  0  0.050058  0.095772  0  3.957531  0
C  C143  1  0.37042688  0.16155776  0.99845323  1  0.438609  0  0.049947  0.095727  0  3.957512  0
C  C144  1  0.63447347  0.84447039  0.90881173  1  0.042673  0  -0.070723  -0.152895  0  3.91486  0
C  C145  1  0.36553353  0.15554024  0.09119065  1  0.042626  0  -0.070621  -0.152586  0  3.91448  0
C  C146  1  0.22468947  0.85503013  0.93445265  1  0.471116  0  0.050494  0.10134  0  3.942564  0
C  C147  1  0.77529614  0.14496117  0.06554392  1  0.471425  0  0.050487  0.101402  0  3.942598  0
C  C148  1  0.15153997  0.84826345  0.84416504  1  0.01682  0  -0.080685  -0.170525  0  3.936225  0
C  C149  1  0.84844637  0.15172120  0.15582915  1  0.016487  0  -0.080676  -0.170595  0  3.936044  0
C  C150  1  0.04443392  0.74612434  0.79221179  1  0.000264  0  0.015381  0.105288  0  3.96912  0
C  C151  1  0.95555557  0.25385525  0.20778692  1  0.000246  0  0.015376  0.105367  0  3.968752  0
C  C152  1  0.02141039  0.65324064  0.83141593  1  -0.063864  0  -0.07669  -0.167501  0  3.925249  0
C  C153  1  0.97857590  0.34674385  0.16858844  1  -0.064581  0  -0.076711  -0.167523  0  3.925309  0
C  C154  1  0.09900509  0.66713286  0.92254957  1  0.518702  0  0.054858  0.112708  0  3.922123  0
C  C155  1  0.90098383  0.33284834  0.07745252  1  0.519319  0  0.054937  0.112831  0  3.922068  0
C  C156  1  0.95576986  0.73824201  0.70319901  1  -0.06431  0  0.017596  0.108133  0  3.971875  0
C  C157  1  0.04421775  0.26174085  0.29680287  1  -0.063833  0  0.017532  0.107824  0  3.972205  0
C  C158  1  0.94265384  0.82923869  0.69364171  1  0.004933  0  -0.074955  -0.155697  0  3.926582  0
C  C159  1  0.05733183  0.17074347  0.30635075  1  0.004581  0  -0.074899  -0.155651  0  3.926663  0
C  C160  1  0.85329974  0.81858066  0.61310544  1  0.505943  0  0.052691  0.102041  0  3.94601  0
C  C161  1  0.14669065  0.18140322  0.38688636  1  0.506357  0  0.052739  0.102109  0  3.945963  0
C  C162  1  0.79197964  0.63636673  0.54867041  1  0.503209  0  0.052378  0.107299  0  3.949054  0
C  C163  1  0.20801839  0.36362143  0.45131966  1  0.50262  0  0.05228  0.106936  0  3.948924  0
C  C164  1  0.87779143  0.63973586  0.62768200  1  0.01468  0  -0.076634  -0.168948  0  3.934186  0
C  C165  1  0.12220790  0.36025059  0.37231100  1  0.014888  0  -0.0766  -0.168825  0  3.934232  0
N  N166  1  0.55583579  0.73958599  0.54142960  1  -1.251014  0  -0.33051  -0.248336  0  3.488465  0
N  N167  1  0.44416927  0.26041452  0.45857624  1  -1.250697  0  -0.330455  -0.248178  0  3.488533  0
N  N168  1  0.53534927  0.75654730  0.01642664  1  -1.230138  0  -0.3259  -0.239837  0  3.504866  0
N  N169  1  0.46465558  0.24346745  0.98357822  1  -1.229664  0  -0.325918  -0.239876  0  3.50472  0
N  N170  1  0.19722776  0.76690469  0.97458623  1  -1.232604  0  -0.325491  -0.234168  0  3.509601  0
N  N171  1  0.80276470  0.23308417  0.02540991  1  -1.2329  0  -0.325584  -0.234264  0  3.509671  0
N  N172  1  0.77821879  0.72348837  0.54163134  1  -1.222538  0  -0.325647  -0.239938  0  3.492163  0
N  N173  1  0.22177726  0.27649892  0.45835951  1  -1.222649  0  -0.325613  -0.239696  0  3.491915  0
O  O174  1  0.45297215  0.99223280  0.16417295  1  -1.162783  0  -0.322141  -0.548964  0  2.163979  0
O  O175  1  0.54703493  0.00776869  0.83582533  1  -1.162914  0  -0.322136  -0.548966  0  2.164274  0
O  O176  1  0.48722590  0.86783537  0.22711909  1  -1.159592  0  -0.334502  -0.572496  0  2.298157  0
O  O177  1  0.51278312  0.13216685  0.77288724  1  -1.159593  0  -0.334508  -0.57245  0  2.298187  0
O  O178  1  0.69454123  0.89418109  0.42259415  1  -1.149508  0  -0.312929  -0.531918  0  2.276283  0
O  O179  1  0.30546189  0.10582527  0.57741164  1  -1.14934  0  -0.312925  -0.531972  0  2.276292  0
O  O180  1  0.70278235  0.87755846  0.27112135  1  -1.184825  0  -0.335477  -0.593468  0  2.311546  0
O  O181  1  0.29722319  0.12244293  0.72888265  1  -1.184983  0  -0.335443  -0.593487  0  2.311579  0
O  O182  1  0.92263478  0.11850977  0.46541282  1  -1.112537  0  -0.157533  -0.227197  0  2.596854  0
O  O183  1  0.07737197  0.88149242  0.53459428  1  -1.112468  0  -0.157504  -0.227136  0  2.596643  0
O  O184  1  0.84907619  0.12549326  0.85377557  1  -1.176371  0  -0.344535  -0.588457  0  2.143861  0
O  O185  1  0.15091715  0.87448386  0.14622260  1  -1.17636  0  -0.344593  -0.588445  0  2.143657  0
O  O186  1  0.75376819  0.16091717  0.72340207  1  -1.143691  0  -0.340155  -0.541529  0  2.147258  0
O  O187  1  0.24623903  0.83908581  0.27660794  1  -1.143735  0  -0.340134  -0.541466  0  2.147003  0
O  O188  1  0.43218661  0.51038433  0.36334257  1  -1.158962  0  -0.308409  -0.535208  0  2.196841  0
O  O189  1  0.56781029  0.48961372  0.63665616  1  -1.158912  0  -0.30848  -0.535287  0  2.196797  0
O  O190  1  0.44589616  0.63610810  0.27600747  1  -1.162945  0  -0.339213  -0.578671  0  2.355184  0
O  O191  1  0.55410046  0.36389736  0.72399857  1  -1.162809  0  -0.339076  -0.578537  0  2.355203  0
O  O192  1  0.18968088  0.60471556  0.14930102  1  -1.137117  0  -0.304445  -0.513181  0  2.169616  0
O  O193  1  0.81031574  0.39528990  0.85070502  1  -1.137252  0  -0.304364  -0.513081  0  2.169714  0
O  O194  1  0.32447780  0.64426954  0.07979724  1  -1.179833  0  -0.330461  -0.596979  0  2.355587  0
O  O195  1  0.67552013  0.35573426  0.92020902  1  -1.179797  0  -0.330452  -0.596942  0  2.355557  0
O  O196  1  0.08576898  0.40352228  0.95824563  1  -1.097219  0  -0.154628  -0.224559  0  2.573255  0
O  O197  1  0.91423503  0.59648837  0.04175393  1  -1.096721  0  -0.154563  -0.224534  0  2.573482  0
O  O198  1  0.32275953  0.37562472  0.67798051  1  -1.186235  0  -0.336254  -0.584282  0  2.317758  0
O  O199  1  0.67722606  0.62437590  0.32200862  1  -1.186042  0  -0.336264  -0.584278  0  2.317763  0
O  O200  1  0.37534852  0.36191898  0.83548808  1  -1.159246  0  -0.336867  -0.572873  0  2.258083  0
O  O201  1  0.62463820  0.63807835  0.16449837  1  -1.159434  0  -0.336868  -0.572895  0  2.258109  0
