# generated using pymatgen
data_CuH15C27N4O4F
_symmetry_space_group_name_H-M   'P 1'
_cell_length_a   9.69190853
_cell_length_b   10.86399159
_cell_length_c   11.86500000
_cell_angle_alpha   62.48412410
_cell_angle_beta   69.88901038
_cell_angle_gamma   79.88591383
_symmetry_Int_Tables_number   1
_chemical_formula_structural   CuH15C27N4O4F
_chemical_formula_sum   'Cu2 H30 C54 N8 O8 F2'
_cell_volume   1040.21590700
_cell_formula_units_Z   2
loop_
 _symmetry_equiv_pos_site_id
 _symmetry_equiv_pos_as_xyz
  1  'x, y, z'
loop_
 _atom_site_type_symbol
 _atom_site_label
 _atom_site_symmetry_multiplicity
 _atom_site_fract_x
 _atom_site_fract_y
 _atom_site_fract_z
 _atom_site_occupancy
 _atom_site_hle17_ddec_charge
 _atom_site_hle17_ddec_spin_density
 _atom_site_hle17_ddec_sum_bond_order
 _atom_site_hle17_magmom
 _atom_site_hse06_10hf_ddec_charge
 _atom_site_hse06_10hf_ddec_spin_density
 _atom_site_hse06_10hf_ddec_sum_bond_order
 _atom_site_hse06_10hf_magmom
 _atom_site_hse06_ddec_charge
 _atom_site_hse06_ddec_spin_density
 _atom_site_hse06_ddec_sum_bond_order
 _atom_site_hse06_magmom
 _atom_site_pbe_bader_charge
 _atom_site_pbe_bader_spin_density
 _atom_site_pbe_cm5_charge
 _atom_site_pbe_ddec_charge
 _atom_site_pbe_ddec_spin_density
 _atom_site_pbe_ddec_sum_bond_order
 _atom_site_pbe_magmom
Cu  Cu0  1  0.51565472  0.13168192  0.84335222  1  0.883426  0.726102  1.774594  0.507  0.863193  0.812185  2.167262  0.627  0.955439  0.889575  2.096744  0.715  1.082533  0.569177  0.746266  0.805576  0.753331  2.218205  0.568
Cu  Cu1  1  0.48434619  0.86831940  0.15664301  1  0.883472  -0.726116  1.77467  -0.507  0.863155  -0.812189  2.16748  -0.627  0.955509  -0.889583  2.096875  -0.715  1.082585  -0.569359  0.746269  0.805517  -0.753566  2.218448  -0.568
H  H2  1  0.49033280  0.00207720  0.66823328  1  0.085654  0.00131  0.956164  0.002  0.094394  0.001129  1.020115  0.002  0.097002  0.00079  1.017151  0.002  0.116916  0.002914  0.118877  0.092452  0.001399  1.022059  0.002
H  H3  1  0.50966169  0.99791581  0.33176895  1  0.085627  -0.001312  0.956112  -0.002  0.094366  -0.00113  1.020071  -0.002  0.096974  -0.00079  1.017106  -0.002  0.116976  -0.002916  0.118891  0.092422  -0.0014  1.022018  -0.002
H  H4  1  0.29611769  0.01500965  0.56524345  1  0.110809  0.000604  0.955063  0.001  0.117281  0.000589  1.017552  0.001  0.120382  0.000428  1.017159  0.0  0.091024  0.001342  0.106185  0.11483  0.000698  1.018459  0.001
H  H5  1  0.70386900  0.98498855  0.43476384  1  0.110823  -0.000598  0.955006  -0.001  0.117338  -0.000589  1.017452  -0.001  0.120439  -0.000428  1.017057  0.0  0.091084  -0.001343  0.106191  0.114883  -0.000698  1.018355  -0.001
H  H6  1  0.08353866  0.17887008  0.57917430  1  0.100021  0.000296  0.970168  0.001  0.112371  2.2e-05  1.028217  0.0  0.114176  -7e-06  1.02807  0.0  0.131145  0.000111  0.108107  0.111203  5.3e-05  1.028066  0.0
H  H7  1  0.91645568  0.82113020  0.42083080  1  0.100047  -0.000294  0.970172  -0.001  0.112396  -2.2e-05  1.028198  0.0  0.114205  6e-06  1.028053  0.0  0.131525  -0.000111  0.108109  0.111226  -5.3e-05  1.028045  0.0
H  H8  1  0.48096220  0.32633190  0.97868667  1  0.10046  0.001457  0.972795  0.002  0.105464  0.001262  1.036259  0.002  0.108636  0.0009  1.033175  0.001  0.18115  0.003037  0.118725  0.102641  0.001557  1.039531  0.002
H  H9  1  0.51903449  0.67366111  0.02132000  1  0.100416  -0.001455  0.972828  -0.002  0.105508  -0.001261  1.036169  -0.002  0.108688  -0.0009  1.033083  -0.001  0.181234  -0.003037  0.118745  0.102682  -0.001557  1.039448  -0.002
H  H10  1  0.29789121  0.52046076  0.99722142  1  0.12517  0.000559  0.947586  0.001  0.132766  0.000484  1.008531  0.001  0.136194  0.00034  1.007335  0.0  0.131095  0.001129  0.113014  0.130216  0.000589  1.009843  0.001
H  H11  1  0.70210655  0.47953329  0.00278620  1  0.125198  -0.000557  0.947627  -0.001  0.132791  -0.000484  1.008569  -0.001  0.136218  -0.000339  1.007375  0.0  0.131043  -0.00113  0.113029  0.130238  -0.00059  1.00988  -0.001
H  H12  1  0.09393296  0.57652661  0.89680618  1  0.108186  0.000299  0.926213  0.0  0.120799  3.9e-05  0.984218  0.0  0.123815  1.9e-05  0.981521  0.0  0.105219  0.000111  0.114984  0.118731  7.2e-05  0.985766  0.0
H  H13  1  0.90606693  0.42347055  0.10320036  1  0.10814  -0.000299  0.926151  0.0  0.120736  -3.9e-05  0.984188  0.0  0.123754  -2e-05  0.981489  0.0  0.105252  -0.000111  0.114953  0.118666  -7.2e-05  0.985735  0.0
H  H14  1  0.69244028  0.46814655  0.56554083  1  0.106151  3.9e-05  0.964977  0.0  0.116146  2e-05  1.028319  0.0  0.119525  1.1e-05  1.025915  0.0  0.098759  2.5e-05  0.105143  0.113781  2.8e-05  1.029856  0.0
H  H15  1  0.30756264  0.53186307  0.43446718  1  0.106234  -3.9e-05  0.964971  0.0  0.11624  -2e-05  1.02829  0.0  0.119622  -1.1e-05  1.025883  0.0  0.098751  -2.5e-05  0.105177  0.113876  -2.8e-05  1.029825  0.0
H  H16  1  0.45623361  0.59360204  0.53392315  1  0.125373  1e-05  0.933549  0.0  0.135713  1.7e-05  0.993966  0.0  0.138719  1.4e-05  0.992976  0.0  0.089402  2.7e-05  0.108838  0.13383  1.9e-05  0.993985  0.0
H  H17  1  0.54376848  0.40639512  0.46608530  1  0.125273  -1.6e-05  0.933725  0.0  0.135631  -1.7e-05  0.994129  0.0  0.138647  -1.5e-05  0.993112  0.0  0.089342  -2.8e-05  0.108778  0.133746  -2e-05  0.994152  0.0
H  H18  1  0.45804876  0.78450973  0.78007955  1  0.130694  -0.000103  0.954583  0.0  0.138033  -9.2e-05  1.017016  0.0  0.141684  -6.2e-05  1.01498  0.0  0.130063  -0.000117  0.11011  0.135495  -0.00011  1.018481  0.0
H  H19  1  0.54194335  0.21549158  0.21992995  1  0.130719  0.0001  0.954713  0.0  0.138101  9.2e-05  1.01709  0.0  0.141751  6.2e-05  1.015056  0.0  0.130285  0.000116  0.110133  0.13556  0.000109  1.018564  0.0
H  H20  1  0.70291882  0.67336733  0.79848785  1  0.096428  6e-06  0.974694  0.0  0.103988  1.7e-05  1.042246  0.0  0.106878  6e-06  1.04026  0.0  0.096111  3.5e-05  0.106828  0.102204  2.8e-05  1.043129  0.0
H  H21  1  0.29707754  0.32664125  0.20151991  1  0.096362  -1e-05  0.974671  0.0  0.103928  -1.7e-05  1.042226  0.0  0.106833  -6e-06  1.040217  0.0  0.096086  -3.5e-05  0.10684  0.102133  -2.8e-05  1.043142  0.0
H  H22  1  0.86486851  0.84358706  0.73282651  1  0.101454  0.000106  0.947569  0.0  0.111208  0.000124  1.009635  0.0  0.114498  8.2e-05  1.007673  0.0  0.086986  0.000121  0.104064  0.108956  0.000159  1.010924  0.0
H  H23  1  0.13514092  0.15642671  0.26715347  1  0.101384  -0.000106  0.947676  0.0  0.111169  -0.000124  1.0097  0.0  0.114462  -8.2e-05  1.00773  0.0  0.087201  -0.000123  0.104052  0.108899  -0.00016  1.011012  0.0
H  H24  1  0.92936971  0.25026738  0.40221670  1  0.104666  3e-06  0.968332  0.0  0.106315  0.0  1.042594  0.0  0.110317  3e-06  1.039771  0.0  0.123473  -4e-06  0.099107  0.103656  2e-06  1.044501  0.0
H  H25  1  0.07063207  0.74974432  0.59776967  1  0.104826  1e-06  0.968183  0.0  0.106463  -0.0  1.042449  0.0  0.110466  -3e-06  1.039623  0.0  0.123142  3e-06  0.099153  0.103803  -2e-06  1.044354  0.0
H  H26  1  0.84483806  0.93863605  0.90526983  1  0.103573  -0.000224  0.958037  0.0  0.112739  -7.3e-05  1.019938  0.0  0.116  -6.5e-05  1.018532  0.0  0.103883  -0.000144  0.10032  0.110322  -7.8e-05  1.021133  0.0
H  H27  1  0.15516080  0.06135800  0.09473242  1  0.103548  0.000224  0.958111  0.0  0.112744  7.3e-05  1.019988  0.0  0.116006  6.4e-05  1.018579  0.0  0.103906  0.000143  0.10031  0.110331  7.7e-05  1.021186  0.0
H  H28  1  0.91027170  0.18166563  0.08205679  1  0.09706  -0.000102  0.944204  0.0  0.107512  6e-06  1.004909  0.0  0.111113  2e-06  1.0027  0.0  0.069102  2.8e-05  0.10111  0.105026  9e-06  1.006385  0.0
H  H29  1  0.08972828  0.81832738  0.91794474  1  0.097108  0.0001  0.944175  0.0  0.107556  -6e-06  1.0049  0.0  0.111164  -2e-06  1.002682  0.0  0.069192  -2.9e-05  0.101138  0.105068  -9e-06  1.006379  0.0
H  H30  1  0.87180066  0.33756811  0.63853237  1  0.324554  1.5e-05  0.917872  0.0  0.305868  1e-05  0.980303  0.0  0.314569  6e-06  0.973051  0.0  0.555895  -1.6e-05  0.308683  0.299857  1.4e-05  0.985044  0.0
H  H31  1  0.12819574  0.66243839  0.36146867  1  0.324495  -1.7e-05  0.918079  0.0  0.305805  -1e-05  0.980519  0.0  0.314506  -6e-06  0.973266  0.0  0.555844  1.5e-05  0.308616  0.299792  -1.5e-05  0.985261  0.0
C  C32  1  0.39369562  0.06987028  0.67399135  1  0.13985  -0.008152  3.672081  -0.009  0.105116  -0.001101  3.934993  -0.002  0.11689  -0.002188  3.950181  -0.004  0.492708  -0.002127  0.052986  0.098696  -0.000358  3.92381  -0.002
C  C33  1  0.60630315  0.93012792  0.32600495  1  0.140225  0.008149  3.671881  0.009  0.105485  0.0011  3.934769  0.002  0.117269  0.002188  3.949946  0.004  0.492829  0.002105  0.053093  0.099065  0.000342  3.923586  0.002
C  C34  1  0.28572209  0.07912687  0.61616144  1  -0.109369  0.010005  3.718794  0.011  -0.122298  0.004765  3.976736  0.006  -0.12944  0.004222  3.996201  0.005  -0.003097  0.007513  -0.078822  -0.118104  0.005225  3.963482  0.006
C  C35  1  0.71427002  0.92087445  0.38383878  1  -0.109598  -0.01001  3.718744  -0.011  -0.122583  -0.004765  3.976725  -0.006  -0.129726  -0.004222  3.99619  -0.005  -0.003521  -0.007508  -0.078906  -0.118385  -0.005221  3.96346  -0.006
C  C36  1  0.16708785  0.16948580  0.62495904  1  -0.023231  -0.00968  3.67216  -0.009  -0.050049  -0.003419  3.918327  -0.003  -0.045327  -0.00357  3.934653  -0.004  -0.029663  -0.004981  -0.061262  -0.052732  -0.003376  3.907098  -0.003
C  C37  1  0.83290764  0.83051136  0.37504536  1  -0.023321  0.00967  3.672155  0.009  -0.050096  0.00342  3.918284  0.003  -0.045383  0.003569  3.934614  0.004  -0.029684  0.004969  -0.061268  -0.052771  0.003368  3.907041  0.003
C  C38  1  0.15657869  0.25090164  0.69186312  1  -0.022605  0.005451  3.798241  0.006  -0.007153  0.002673  4.031275  0.003  -0.010007  0.002318  4.053298  0.003  0.00728  0.004119  0.007219  -0.006217  0.003002  4.015974  0.003
C  C39  1  0.84342006  0.74909759  0.30813864  1  -0.02246  -0.005447  3.798197  -0.006  -0.007058  -0.002671  4.031234  -0.003  -0.009906  -0.002316  4.053257  -0.003  0.007301  -0.00411  0.007227  -0.00612  -0.002995  4.015928  -0.003
C  C40  1  0.27000410  0.23490063  0.74831274  1  0.12511  -0.001513  3.777457  -0.002  0.118405  0.000678  4.020352  0.0  0.123522  -0.000325  4.044084  -0.001  0.466972  0.000849  0.113508  0.116202  0.001401  4.004341  0.001
C  C41  1  0.72999355  0.76509861  0.25169018  1  0.125126  0.00151  3.77747  0.002  0.118455  -0.000676  4.020367  0.0  0.123569  0.000325  4.044108  0.001  0.466982  -0.000873  0.113514  0.116246  -0.001417  4.004365  -0.001
C  C42  1  0.27077745  0.31408874  0.81730132  1  0.1197  -0.000518  3.774156  -0.001  0.112549  0.001133  4.019825  0.001  0.117711  0.000352  4.043381  0.0  0.522548  0.001512  0.109281  0.107666  0.001694  4.005263  0.001
C  C43  1  0.72922245  0.68590842  0.18270354  1  0.119743  0.000534  3.774044  0.001  0.112463  -0.001132  4.019833  -0.001  0.117623  -0.000351  4.043398  0.0  0.522322  -0.001522  0.109213  0.107582  -0.001701  4.005275  -0.001
C  C44  1  0.38894041  0.35520827  0.93720887  1  0.142807  -0.007345  3.640801  -0.008  0.115732  -0.001352  3.895326  -0.002  0.126776  -0.002181  3.911199  -0.003  0.459322  -0.002197  0.05544  0.106941  -0.000624  3.888042  -0.002
C  C45  1  0.61105843  0.64478682  0.06279548  1  0.142963  0.007365  3.640565  0.008  0.115804  0.001351  3.895089  0.002  0.126843  0.002181  3.910971  0.003  0.459326  0.002187  0.055463  0.107012  0.000617  3.887809  0.002
C  C46  1  0.28716993  0.46234885  0.94665066  1  -0.110299  0.007933  3.706977  0.008  -0.122791  0.003753  3.962716  0.004  -0.129466  0.003303  3.981392  0.004  -0.020078  0.005931  -0.076295  -0.119602  0.004135  3.952878  0.005
C  C47  1  0.71282898  0.53764312  0.05335836  1  -0.110493  -0.00796  3.707009  -0.008  -0.122979  -0.003751  3.962767  -0.004  -0.129654  -0.003302  3.981445  -0.004  -0.020693  -0.005929  -0.076333  -0.119786  -0.004135  3.952922  -0.005
C  C48  1  0.17387993  0.49396680  0.89102496  1  -0.023709  -0.007698  3.66769  -0.007  -0.056422  -0.002681  3.925347  -0.003  -0.05097  -0.002807  3.938222  -0.003  -0.018443  -0.003689  -0.060038  -0.058944  -0.002495  3.9173  -0.002
C  C49  1  0.82611781  0.50602829  0.10898390  1  -0.023455  0.007719  3.667504  0.007  -0.056155  0.00268  3.925066  0.003  -0.050703  0.002806  3.937935  0.003  -0.017997  0.003682  -0.059968  -0.058667  0.002491  3.917014  0.002
C  C50  1  0.16253352  0.41877738  0.82473208  1  -0.015884  0.004181  3.768337  0.004  -0.002547  0.002045  4.000551  0.002  -0.005348  0.001737  4.022787  0.002  0.004583  0.003141  0.004861  -0.002759  0.002306  3.987089  0.002
C  C51  1  0.83746528  0.58121978  0.17527477  1  -0.016121  -0.0042  3.768291  -0.004  -0.002709  -0.002042  4.000433  -0.002  -0.005509  -0.001736  4.022666  -0.002  0.004634  -0.003136  0.004823  -0.002933  -0.002303  3.986992  -0.002
C  C52  1  0.04889524  0.43615697  0.76649318  1  0.107223  0.000689  3.825989  0.001  0.099586  0.000538  4.087988  0.001  0.101569  0.000477  4.111159  0.001  0.457823  0.001025  0.093452  0.098334  0.000693  4.072969  0.001
C  C53  1  0.95110793  0.56384123  0.23351200  1  0.107411  -0.00068  3.825899  -0.001  0.099788  -0.00054  4.087794  -0.001  0.101773  -0.000475  4.110963  -0.001  0.45797  -0.001034  0.093513  0.09854  -0.000699  4.072777  -0.001
C  C54  1  0.04510412  0.35142238  0.70681307  1  0.109593  4e-05  3.781928  0.0  0.088069  0.000471  4.041561  0.0  0.090686  0.000294  4.064909  0.0  0.42699  0.00089  0.095532  0.088832  0.000599  4.02346  0.001
C  C55  1  0.95489578  0.64857479  0.29319094  1  0.109366  -4.1e-05  3.782041  0.0  0.08788  -0.000471  4.041618  0.0  0.090492  -0.000297  4.064968  0.0  0.4267  -0.000908  0.095489  0.088644  -0.000612  4.02351  -0.001
C  C56  1  0.85329463  0.49588933  0.70454418  1  0.348788  0.0002  3.734013  0.0  0.317514  0.000225  4.008786  0.0  0.332216  0.000228  4.022896  0.0  0.953231  0.000303  0.223606  0.306591  0.000234  4.000937  0.0
C  C57  1  0.14670845  0.50411303  0.29546011  1  0.34862  -0.000204  3.734253  0.0  0.317343  -0.000221  4.008922  0.0  0.332042  -0.000226  4.023033  0.0  0.953725  -0.000313  0.223544  0.306423  -0.000242  4.001066  0.0
C  C58  1  0.71461266  0.56372704  0.68374842  1  -0.019569  0.000131  3.790708  0.0  -0.003801  2.7e-05  4.028704  0.0  -0.007725  9e-06  4.052085  0.0  0.002529  4.7e-05  -0.007782  -0.002072  3.8e-05  4.014381  0.0
C  C59  1  0.28538928  0.43627739  0.31625785  1  -0.019682  -0.000105  3.790991  0.0  -0.003698  -1.4e-05  4.028637  0.0  -0.007618  -1.3e-05  4.052019  0.0  0.003057  -4.8e-05  -0.007733  -0.001968  -3.9e-05  4.014315  0.0
C  C60  1  0.64419688  0.53990822  0.60995467  1  -0.066536  -0.000181  3.716188  0.0  -0.094843  1.4e-05  3.978632  0.0  -0.094986  1.7e-05  3.999127  0.0  -0.021715  7.2e-05  -0.085136  -0.094375  4.1e-05  3.96555  0.0
C  C61  1  0.35580618  0.46009517  0.39005341  1  -0.066744  0.000159  3.716509  0.0  -0.09514  -2.4e-05  3.9789  0.0  -0.095285  -1.2e-05  3.999384  0.0  -0.021744  -7.9e-05  -0.085284  -0.094671  -4.6e-05  3.965817  0.0
C  C62  1  0.51163959  0.60758814  0.59292305  1  -0.188061  9.5e-05  3.763008  0.0  -0.215696  5e-06  4.030455  0.0  -0.221408  -1.3e-05  4.051679  0.0  0.025969  -1.4e-05  -0.105201  -0.211481  -4e-06  4.015492  0.0
C  C63  1  0.48836023  0.39241214  0.40708640  1  -0.187924  -6.6e-05  3.76312  0.0  -0.215566  -1e-05  4.030578  0.0  -0.221272  1.1e-05  4.051811  0.0  0.025901  1.7e-05  -0.105146  -0.211349  6e-06  4.01561  0.0
C  C64  1  0.44990247  0.69666089  0.65237029  1  0.306569  1.2e-05  3.803851  0.0  0.291627  0.0001  4.086209  0.0  0.302371  0.000123  4.098407  0.0  0.340383  0.000104  0.09469  0.284325  8.1e-05  4.079069  0.0
C  C65  1  0.55009957  0.30333835  0.34764067  1  0.306715  -3.2e-05  3.803781  0.0  0.291774  -8.9e-05  4.086165  0.0  0.302512  -0.00012  4.098375  0.0  0.340064  -0.000113  0.094785  0.284474  -8.8e-05  4.079022  0.0
C  C66  1  0.51416327  0.72061570  0.72841761  1  -0.192053  -2.9e-05  3.763246  0.0  -0.213946  -7.8e-05  4.01828  0.0  -0.219764  -6.7e-05  4.037792  0.0  0.015897  -0.000139  -0.099716  -0.210398  -0.000102  4.006046  0.0
C  C67  1  0.48583434  0.27938562  0.27159203  1  -0.192151  5.9e-05  3.763532  0.0  -0.214106  7.4e-05  4.018587  0.0  -0.219925  6.4e-05  4.038109  0.0  0.015694  0.000141  -0.099723  -0.21055  0.000104  4.006344  0.0
C  C68  1  0.64813368  0.65525278  0.74161877  1  -0.050379  5.4e-05  3.714103  0.0  -0.070929  5.8e-05  3.95935  0.0  -0.070695  6.7e-05  3.980247  0.0  -0.00222  6.1e-05  -0.07626  -0.070295  4e-05  3.944538  0.0
C  C69  1  0.35186713  0.34475269  0.25838906  1  -0.050176  -7.5e-05  3.714188  0.0  -0.070783  -6.5e-05  3.959387  0.0  -0.070555  -6.3e-05  3.980279  0.0  -0.002257  -6.7e-05  -0.076286  -0.070149  -4.3e-05  3.944566  0.0
C  C70  1  0.76238713  0.11143099  0.65668763  1  0.630346  -0.004471  3.910598  -0.008  0.583885  -0.000369  4.217218  -0.003  0.620785  -0.000781  4.210297  -0.003  1.543143  -0.001344  0.202049  0.559058  -8e-06  4.220816  -0.003
C  C71  1  0.23761579  0.88857863  0.34329256  1  0.630316  0.004472  3.910452  0.008  0.583854  0.000372  4.217098  0.003  0.620745  0.00078  4.21018  0.003  1.542277  0.001332  0.201947  0.559059  -3e-06  4.220705  0.003
C  C72  1  0.88385597  0.05270453  0.57587546  1  -0.065356  0.009151  3.759814  0.01  -0.042554  0.004637  3.990789  0.005  -0.048962  0.003422  4.011799  0.004  -0.022284  0.00731  -0.018805  -0.038272  0.005276  3.976505  0.006
C  C73  1  0.11615135  0.94730509  0.42410518  1  -0.06507  -0.009149  3.759557  -0.01  -0.042355  -0.004638  3.990615  -0.005  -0.048734  -0.003422  4.011586  -0.004  -0.02245  -0.007304  -0.018689  -0.038165  -0.005272  3.976438  -0.006
C  C74  1  0.92410652  0.91165627  0.63076962  1  -0.070127  -0.001726  3.715682  -0.002  -0.091817  -0.000285  3.963315  -0.001  -0.092814  -0.00038  3.983856  -0.001  -0.063427  -0.000431  -0.082577  -0.090643  -0.00021  3.94859  -0.001
C  C75  1  0.07589965  0.08835543  0.36921215  1  -0.070278  0.001721  3.71553  0.002  -0.091949  0.000286  3.963157  0.001  -0.092955  0.00038  3.983688  0.001  -0.062841  0.000429  -0.082643  -0.090737  0.000209  3.948467  0.001
C  C76  1  0.96034857  0.14071740  0.44460075  1  -0.075457  -0.000877  3.735329  -0.001  -0.101256  0.000294  3.992331  0.0  -0.102111  6e-06  4.011375  0.0  -0.058199  0.001007  -0.087637  -0.100677  0.000743  3.978871  0.001
C  C77  1  0.03965871  0.85929430  0.55538156  1  -0.075954  0.000872  3.735566  0.001  -0.101714  -0.000296  3.992614  0.0  -0.102578  -7e-06  4.011645  0.0  -0.056733  -0.001009  -0.087793  -0.10111  -0.000745  3.979183  -0.001
C  C78  1  0.71793754  0.14126966  0.98331580  1  0.640322  -0.001184  3.889331  -0.004  0.598069  0.003276  4.196041  0.002  0.635837  0.002175  4.186998  0.001  1.578808  0.003785  0.201878  0.572043  0.00437  4.201169  0.003
C  C79  1  0.28206356  0.85872232  0.01668753  1  0.640133  0.00118  3.88936  0.004  0.597776  -0.003277  4.196239  -0.002  0.635537  -0.002177  4.187202  -0.001  1.578508  -0.003793  0.201721  0.571754  -0.004378  4.201371  -0.003
C  C80  1  0.86327794  0.06725120  0.99284843  1  -0.054401  0.003963  3.734291  0.004  -0.036653  0.001543  3.971447  0.002  -0.043602  0.000744  3.993941  0.001  -0.04573  0.002711  -0.020146  -0.031969  0.002062  3.956211  0.002
C  C81  1  0.13672527  0.93274493  0.00715003  1  -0.054577  -0.003962  3.734316  -0.004  -0.036764  -0.00155  3.971469  -0.002  -0.043709  -0.00074  3.99396  -0.001  -0.045962  -0.002717  -0.020181  -0.032091  -0.002066  3.956241  -0.002
C  C82  1  0.91389330  0.96463278  0.94658510  1  -0.079564  0.002363  3.727592  0.002  -0.102731  0.001209  3.980986  0.001  -0.104024  0.001082  4.001842  0.001  -0.066362  0.001929  -0.091481  -0.101677  0.001288  3.966825  0.001
C  C83  1  0.08610771  0.03536335  0.05341566  1  -0.07953  -0.002359  3.727629  -0.002  -0.102761  -0.001207  3.981032  -0.001  -0.104051  -0.001082  4.00188  -0.001  -0.066367  -0.00193  -0.09151  -0.101711  -0.001288  3.966875  -0.001
C  C84  1  0.95069624  0.10195640  0.04631347  1  -0.083165  0.002993  3.751427  0.003  -0.108121  0.001607  4.009056  0.002  -0.109509  0.001285  4.030672  0.001  -0.027371  0.003344  -0.090814  -0.106825  0.002223  3.993877  0.002
C  C85  1  0.04930589  0.89803869  0.95368573  1  -0.08313  -0.002993  3.751517  -0.003  -0.10812  -0.001604  4.009139  -0.002  -0.10951  -0.001288  4.03075  -0.001  -0.027316  -0.003347  -0.090817  -0.106821  -0.002225  3.993963  -0.002
N  N86  1  0.38472447  0.14521230  0.73870156  1  -0.326957  0.083954  3.35763  0.102  -0.283845  0.062009  3.653675  0.081  -0.314856  0.051451  3.675657  0.071  -1.220379  0.098406  -0.344501  -0.265882  0.067154  3.640397  0.085
N  N87  1  0.61527320  0.85478590  0.26129757  1  -0.327162  -0.083944  3.35769  -0.102  -0.284019  -0.06201  3.653708  -0.081  -0.315054  -0.051448  3.675711  -0.071  -1.220433  -0.098394  -0.344528  -0.266041  -0.067145  3.640417  -0.084
N  N88  1  0.38062891  0.28362619  0.87370154  1  -0.329878  0.071093  3.321995  0.087  -0.290426  0.051021  3.627592  0.067  -0.320359  0.042525  3.646366  0.059  -1.216322  0.082021  -0.339342  -0.272079  0.055975  3.618765  0.07
N  N89  1  0.61936878  0.71637098  0.12630224  1  -0.329915  -0.071119  3.321771  -0.087  -0.290398  -0.051026  3.627435  -0.067  -0.32036  -0.042527  3.646239  -0.059  -1.215947  -0.082034  -0.339302  -0.272034  -0.055982  3.618594  -0.07
N  N90  1  0.93037217  0.52611209  0.76284935  1  -0.430782  0.000332  2.947004  0.0  -0.404197  0.000148  3.222991  0.0  -0.418946  0.000127  3.237393  0.0  -1.152223  0.000311  -0.331168  -0.395901  0.000168  3.214944  0.0
N  N91  1  0.06963421  0.47389026  0.23715318  1  -0.430672  -0.000332  2.947111  0.0  -0.404124  -0.00015  3.223067  0.0  -0.418874  -0.000128  3.237474  0.0  -1.1525  -0.000311  -0.331084  -0.395822  -0.000168  3.215015  0.0
N  N92  1  0.92010829  0.39148928  0.66796100  1  -0.366409  0.000493  3.335102  0.001  -0.307554  0.000212  3.566571  0.0  -0.325481  0.000175  3.580445  0.0  -1.262473  0.000473  -0.370726  -0.294192  0.000283  3.555969  0.0
N  N93  1  0.07989150  0.60851307  0.33204338  1  -0.366242  -0.000491  3.335157  -0.001  -0.307448  -0.000212  3.56664  0.0  -0.325372  -0.000175  3.580512  0.0  -1.26268  -0.00047  -0.370692  -0.294084  -0.00028  3.556034  0.0
O  O94  1  0.75955592  0.23923566  0.62784061  1  -0.641398  -0.000332  1.979692  0.001  -0.608129  -0.000686  2.228538  0.0  -0.632983  -0.001333  2.215922  -0.001  -1.190315  0.000449  -0.327123  -0.590481  -3.3e-05  2.23597  0.001
O  O95  1  0.24045151  0.76076877  0.37214557  1  -0.641407  0.000336  1.979565  -0.001  -0.608114  0.000687  2.228404  0.0  -0.632981  0.001339  2.215808  0.001  -1.190336  -0.000454  -0.327071  -0.590458  3.1e-05  2.235827  -0.001
O  O96  1  0.66451335  0.02573720  0.75358327  1  -0.567232  0.098625  2.016999  0.126  -0.540447  0.059938  2.288721  0.085  -0.584197  0.04531  2.283794  0.068  -1.101302  0.104724  -0.316465  -0.511292  0.06934  2.292251  0.094
O  O97  1  0.33549067  0.97427242  0.24639830  1  -0.567218  -0.098624  2.017069  -0.126  -0.540406  -0.059939  2.288787  -0.085  -0.584178  -0.045314  2.283876  -0.068  -1.100765  -0.104711  -0.316388  -0.511237  -0.069327  2.29231  -0.094
O  O98  1  0.62903459  0.07614030  0.96828225  1  -0.657629  0.081284  2.140411  0.102  -0.643265  0.04484  2.46394  0.061  -0.688131  0.033619  2.450272  0.048  -1.154275  0.08057  -0.353228  -0.611886  0.053233  2.473313  0.07
O  O99  1  0.37097100  0.92384752  0.03171569  1  -0.657532  -0.081265  2.140454  -0.102  -0.643091  -0.044838  2.463966  -0.061  -0.687993  -0.033615  2.450378  -0.048  -1.154182  -0.080556  -0.353205  -0.611703  -0.053222  2.473345  -0.07
O  O100  1  0.69114098  0.25400240  0.99138924  1  -0.578618  0.008583  1.918551  0.011  -0.535714  0.005581  2.137959  0.007  -0.558299  0.003826  2.130131  0.005  -1.170277  0.010762  -0.306522  -0.519192  0.006655  2.142434  0.008
O  O101  1  0.30885476  0.74598334  0.00862161  1  -0.578498  -0.008587  1.918592  -0.011  -0.53556  -0.005577  2.137997  -0.007  -0.558154  -0.003826  2.130199  -0.005  -1.170107  -0.010767  -0.306382  -0.519023  -0.006657  2.142436  -0.008
F  F102  1  0.31913382  0.76228644  0.63664677  1  -0.225143  -3e-06  1.223547  0.0  -0.156984  7e-06  1.377057  0.0  -0.167734  2e-06  1.369522  0.0  -0.645469  1e-05  -0.093796  -0.149368  3e-06  1.382441  0.0
F  F103  1  0.68086175  0.23770760  0.36336821  1  -0.225158  4e-06  1.223591  0.0  -0.157022  -7e-06  1.37713  0.0  -0.167773  -4e-06  1.369597  0.0  -0.645541  -1.2e-05  -0.093802  -0.149403  -4e-06  1.382512  0.0
