# generated using pymatgen
data_AlH18C24(NO2)3
_symmetry_space_group_name_H-M   'P 1'
_cell_length_a   3.95832287
_cell_length_b   27.89505811
_cell_length_c   27.89505077
_cell_angle_alpha   120.00321594
_cell_angle_beta   89.99491999
_cell_angle_gamma   90.01228471
_symmetry_Int_Tables_number   1
_chemical_formula_structural   AlH18C24(NO2)3
_chemical_formula_sum   'Al2 H36 C48 N6 O12'
_cell_volume   2667.36340969
_cell_formula_units_Z   2
loop_
 _symmetry_equiv_pos_site_id
 _symmetry_equiv_pos_as_xyz
  1  'x, y, z'
loop_
 _atom_site_type_symbol
 _atom_site_label
 _atom_site_symmetry_multiplicity
 _atom_site_fract_x
 _atom_site_fract_y
 _atom_site_fract_z
 _atom_site_occupancy
 _atom_site_pbe_bader_charge
 _atom_site_pbe_bader_spin_density
 _atom_site_pbe_cm5_charge
 _atom_site_pbe_ddec_charge
 _atom_site_pbe_ddec_spin_density
 _atom_site_pbe_ddec_sum_bond_order
 _atom_site_pbe_magmom
Al  Al0  1  0.01276465  0.50000813  0.50000567  1  2.503499  0  0.424804  1.590799  0  2.578906  0
Al  Al1  1  0.01279342  0.16666075  0.83332757  1  2.503441  0  0.424737  1.591077  0  2.578621  0
H  H2  1  0.40012843  0.17756439  0.68839464  1  0.045812  0  0.106357  0.108626  0  0.987008  0
H  H3  1  0.39860365  0.23273272  0.63958629  1  0.133994  0  0.10586  0.10689  0  1.014866  0
H  H4  1  0.52887383  0.38146350  0.79580917  1  0.057962  0  0.105069  0.108939  0  1.001123  0
H  H5  1  0.52902297  0.28521146  0.53753137  1  0.058599  0  0.105095  0.108991  0  1.001052  0
H  H6  1  0.39844277  0.43393193  0.69374615  1  0.13397  0  0.105921  0.106918  0  1.015069  0
H  H7  1  0.39987631  0.48909643  0.64493519  1  0.046024  0  0.106356  0.108628  0  0.986969  0
H  H8  1  0.39997732  0.01083401  0.82244231  1  0.113648  0  0.106293  0.108587  0  0.98674  0
H  H9  1  0.39853370  0.90686384  0.76728670  1  0.080417  0  0.105914  0.106968  0  1.014863  0
H  H10  1  0.52889882  0.91433453  0.61853204  1  0.057951  0  0.105129  0.109181  0  1.000808  0
H  H11  1  0.52888825  0.75232421  0.71481828  1  0.057502  0  0.105  0.108958  0  1.000843  0
H  H12  1  0.39868090  0.75980677  0.56606776  1  0.080375  0  0.105908  0.107033  0  1.014514  0
H  H13  1  0.40019163  0.65583462  0.51090194  1  0.113869  0  0.106393  0.108687  0  0.986842  0
H  H14  1  0.39996599  0.31158797  0.98915561  1  0.050658  0  0.106314  0.10872  0  0.986806  0
H  H15  1  0.39845479  0.36039374  0.09313474  1  0.077469  0  0.105815  0.106816  0  1.014687  0
H  H16  1  0.52888915  0.20418337  0.08566073  1  0.058433  0  0.105091  0.109017  0  1.000893  0
H  H17  1  0.52882386  0.46246902  0.24765695  1  0.058074  0  0.105058  0.10906  0  1.000867  0
H  H18  1  0.39850131  0.30625965  0.24020227  1  0.082179  0  0.105867  0.106916  0  1.014992  0
H  H19  1  0.39999580  0.35507061  0.34417861  1  0.050529  0  0.106344  0.108671  0  0.986702  0
H  H20  1  0.82944638  0.33641659  0.87439164  1  0.055886  0  0.095265  0.138311  0  1.00635  0
H  H21  1  0.41835159  0.31671907  0.88174118  1  0.038611  0  0.09571  0.137776  0  1.004747  0
H  H22  1  0.48130754  0.37957863  0.88074854  1  0.051697  0  0.090027  0.122509  0  1.000633  0
H  H23  1  0.82951559  0.33026579  0.45895429  1  0.056673  0  0.095245  0.138312  0  1.006511  0
H  H24  1  0.41844903  0.34993704  0.45158493  1  0.038539  0  0.095741  0.137816  0  1.00489  0
H  H25  1  0.48132415  0.28708574  0.45259283  1  0.051262  0  0.090095  0.122557  0  1.00067  0
H  H26  1  0.82942628  0.03796359  0.66357464  1  0.071596  0  0.095338  0.138529  0  1.006315  0
H  H27  1  0.41836203  0.06499872  0.68325979  1  0.046765  0  0.095687  0.13777  0  1.005192  0
H  H28  1  0.48122284  0.00114212  0.62039763  1  0.020568  0  0.090123  0.122697  0  1.000312  0
H  H29  1  0.82940431  0.62870227  0.66976057  1  0.071533  0  0.095313  0.13852  0  1.006289  0
H  H30  1  0.41831479  0.60165771  0.65007244  1  0.04779  0  0.095727  0.1378  0  1.005041  0
H  H31  1  0.48122695  0.66550879  0.71293857  1  0.019925  0  0.090134  0.12266  0  1.000455  0
H  H32  1  0.82945429  0.12562152  0.96202908  1  0.078038  0  0.095287  0.138356  0  1.006361  0
H  H33  1  0.41842182  0.11824698  0.93497831  1  0.058516  0  0.095719  0.137863  0  1.004892  0
H  H34  1  0.48126325  0.11924447  0.99883640  1  0.043992  0  0.09009  0.122696  0  1.000489  0
H  H35  1  0.82941422  0.54105735  0.37129885  1  0.078961  0  0.095301  0.13845  0  1.006386  0
H  H36  1  0.41835858  0.54840190  0.39834140  1  0.058914  0  0.0957  0.137763  0  1.005094  0
H  H37  1  0.48125477  0.54741454  0.33448595  1  0.043389  0  0.090176  0.122717  0  1.00045  0
C  C38  1  0.50769640  0.46114271  0.41487439  1  1.55653  0  0.277658  0.660629  0  4.054121  0
C  C39  1  0.50765219  0.45373953  0.53886608  1  1.562215  0  0.277624  0.660563  0  4.054177  0
C  C40  1  0.50775855  0.58513350  0.54627846  1  1.566896  0  0.277866  0.660927  0  4.053942  0
C  C41  1  0.50779734  0.21293569  0.79447543  1  1.562575  0  0.277652  0.66063  0  4.054467  0
C  C42  1  0.50770613  0.08153406  0.78706284  1  1.56748  0  0.277715  0.660761  0  4.054187  0
C  C43  1  0.50769755  0.20552382  0.91845430  1  1.559788  0  0.277854  0.660903  0  4.054122  0
C  C44  1  0.48865087  0.24848256  0.76884164  1  -0.002478  0  -0.004699  -0.088325  0  3.900826  0
C  C45  1  0.43503302  0.22233332  0.71134824  1  0.039975  0  -0.079704  -0.077683  0  3.994745  0
C  C46  1  0.43249629  0.25244272  0.68420158  1  -0.058196  0  -0.084458  -0.144609  0  3.965363  0
C  C47  1  0.47218518  0.31021555  0.71536463  1  0.277367  0  0.088258  0.179251  0  4.056764  0
C  C48  1  0.50945772  0.33639636  0.77297413  1  0.019201  0  -0.080386  -0.201877  0  3.912777  0
C  C49  1  0.52370387  0.30646708  0.80079572  1  0.018836  0  0.001797  0.166283  0  3.939635  0
C  C50  1  0.50951856  0.33027724  0.56036615  1  0.01791  0  -0.08044  -0.201883  0  3.912401  0
C  C51  1  0.47221658  0.35645851  0.61797413  1  0.278297  0  0.088203  0.179383  0  4.05663  0
C  C52  1  0.43238694  0.41422607  0.64913205  1  -0.059078  0  -0.084539  -0.144845  0  3.965962  0
C  C53  1  0.43484728  0.44433078  0.62198149  1  0.059372  0  -0.079617  -0.077447  0  3.995354  0
C  C54  1  0.48845666  0.41818472  0.56448971  1  -0.022318  0  -0.004731  -0.088695  0  3.901196  0
C  C55  1  0.52370111  0.36020357  0.53253976  1  0.018756  0  0.001815  0.166488  0  3.939073  0
C  C56  1  0.48846814  0.02035403  0.75151260  1  0.000438  0  -0.004907  -0.088927  0  3.900975  0
C  C57  1  0.43488806  0.98901968  0.77767143  1  -0.02279  0  -0.079525  -0.07731  0  3.994934  0
C  C58  1  0.43241460  0.93176239  0.74756932  1  -0.075697  0  -0.084485  -0.144911  0  3.965664  0
C  C59  1  0.47219697  0.90514727  0.68979666  1  0.383629  0  0.088333  0.179652  0  4.056695  0
C  C60  1  0.50944593  0.93656172  0.66360205  1  0.11394  0  -0.080561  -0.202561  0  3.912672  0
C  C61  1  0.52363715  0.99431595  0.69352664  1  -0.082275  0  0.002037  0.167192  0  3.938576  0
C  C62  1  0.50947114  0.73010035  0.66974691  1  0.114224  0  -0.080226  -0.201868  0  3.912321  0
C  C63  1  0.47223654  0.76151913  0.64355838  1  0.382807  0  0.088282  0.179436  0  4.056436  0
C  C64  1  0.43255345  0.73490836  0.58578316  1  -0.074599  0  -0.084635  -0.14505  0  3.96526  0
C  C65  1  0.43506442  0.67764974  0.55567307  1  -0.022579  0  -0.079581  -0.077338  0  3.994681  0
C  C66  1  0.48862170  0.64631336  0.58182797  1  0.00052  0  -0.004902  -0.088877  0  3.900935  0
C  C67  1  0.52368842  0.67234735  0.63981548  1  -0.08238  0  0.001809  0.166519  0  3.939302  0
C  C68  1  0.48853490  0.23115018  0.97963483  1  -0.050907  0  -0.004769  -0.088593  0  3.900592  0
C  C69  1  0.43488399  0.28864137  0.01097731  1  0.195381  0  -0.079557  -0.077626  0  3.995174  0
C  C70  1  0.43236825  0.31578023  0.06823366  1  -0.10746  0  -0.084533  -0.144794  0  3.96555  0
C  C71  1  0.47212931  0.28462739  0.09484898  1  0.328973  0  0.088156  0.17944  0  4.056498  0
C  C72  1  0.50942030  0.22701916  0.06342822  1  -0.042425  0  -0.08018  -0.201841  0  3.912294  0
C  C73  1  0.52366010  0.19920464  0.00567396  1  0.017114  0  0.001793  0.166542  0  3.938926  0
C  C74  1  0.50938735  0.43963747  0.26989438  1  -0.041987  0  -0.080259  -0.202123  0  3.912627  0
C  C75  1  0.47213414  0.38202575  0.23847891  1  0.329377  0  0.088215  0.17948  0  4.057014  0
C  C76  1  0.43238930  0.35087562  0.26509833  1  -0.113863  0  -0.084498  -0.144852  0  3.966141  0
C  C77  1  0.43491610  0.37801704  0.32235429  1  0.195528  0  -0.079633  -0.077543  0  3.995062  0
C  C78  1  0.48851452  0.43551306  0.35369124  1  -0.050151  0  -0.004781  -0.088598  0  3.900515  0
C  C79  1  0.52363689  0.46745663  0.32764771  1  0.017473  0  0.001942  0.166737  0  3.939092  0
C  C80  1  0.56415969  0.33639948  0.86275907  1  -0.078214  0  -0.237777  -0.413783  0  3.963531  0
C  C81  1  0.56420130  0.33027024  0.47057700  1  -0.078404  0  -0.237842  -0.413914  0  3.963816  0
C  C82  1  0.56412322  0.02633846  0.66358369  1  -0.073209  0  -0.238013  -0.41452  0  3.963738  0
C  C83  1  0.56411901  0.64032178  0.66975326  1  -0.073493  0  -0.237945  -0.414248  0  3.963675  0
C  C84  1  0.56415139  0.13723937  0.97364607  1  -0.117134  0  -0.237951  -0.414304  0  3.963677  0
C  C85  1  0.56410854  0.52942326  0.35967629  1  -0.118089  0  -0.238043  -0.414329  0  3.96403  0
N  N86  1  0.47328071  0.34570278  0.69289790  1  -0.403661  0  -0.14934  -0.136311  0  3.276057  0
N  N87  1  0.47335685  0.32097021  0.64043979  1  -0.544344  0  -0.149439  -0.136601  0  3.276061  0
N  N88  1  0.47334266  0.84719248  0.65431042  1  -0.569447  0  -0.14952  -0.136641  0  3.276557  0
N  N89  1  0.47330643  0.81947439  0.67904632  1  -0.453262  0  -0.149289  -0.13637  0  3.276458  0
N  N90  1  0.47327084  0.30709948  0.15280604  1  -0.407592  0  -0.149386  -0.136555  0  3.276629  0
N  N91  1  0.47324861  0.35955412  0.18052355  1  -0.526784  0  -0.149372  -0.136352  0  3.276662  0
O  O92  1  0.75139150  0.56028768  0.55467394  1  -1.25447  0  -0.229481  -0.588191  0  2.380205  0
O  O93  1  0.75137175  0.49439075  0.43972005  1  -1.249464  0  -0.229565  -0.588147  0  2.380306  0
O  O94  1  0.75125698  0.44534336  0.50561438  1  -1.253481  0  -0.22944  -0.587986  0  2.380537  0
O  O95  1  0.28156163  0.56120084  0.50896439  1  -1.270754  0  -0.241849  -0.60873  0  2.363764  0
O  O96  1  0.28144891  0.49104463  0.55224133  1  -1.268812  0  -0.241706  -0.608652  0  2.363862  0
O  O97  1  0.28145564  0.44777176  0.43881146  1  -1.265215  0  -0.241674  -0.608652  0  2.363975  0
O  O98  1  0.75133212  0.17228054  0.89360758  1  -1.253001  0  -0.229598  -0.588385  0  2.380412  0
O  O99  1  0.75149742  0.22132743  0.82770944  1  -1.254054  0  -0.229355  -0.588199  0  2.380613  0
O  O100  1  0.75135026  0.10638029  0.77865988  1  -1.255232  0  -0.229519  -0.588194  0  2.380552  0
O  O101  1  0.28154217  0.21889718  0.89451775  1  -1.264945  0  -0.241739  -0.608746  0  2.364236  0
O  O102  1  0.28144880  0.10546752  0.82436756  1  -1.270348  0  -0.241704  -0.608717  0  2.363514  0
O  O103  1  0.28159436  0.17561826  0.78109467  1  -1.269063  0  -0.241859  -0.608697  0  2.363729  0
