# generated using pymatgen
data_BaH30C18(N6O7)2
_symmetry_space_group_name_H-M   'P 1'
_cell_length_a   7.43075191
_cell_length_b   7.70297987
_cell_length_c   28.30559217
_cell_angle_alpha   86.14401792
_cell_angle_beta   82.53158116
_cell_angle_gamma   61.16267437
_symmetry_Int_Tables_number   1
_chemical_formula_structural   BaH30C18(N6O7)2
_chemical_formula_sum   'Ba2 H60 C36 N24 O28'
_cell_volume   1407.20792485
_cell_formula_units_Z   2
loop_
 _symmetry_equiv_pos_site_id
 _symmetry_equiv_pos_as_xyz
  1  'x, y, z'
loop_
 _atom_site_type_symbol
 _atom_site_label
 _atom_site_symmetry_multiplicity
 _atom_site_fract_x
 _atom_site_fract_y
 _atom_site_fract_z
 _atom_site_occupancy
 _atom_site_hle17_bader_spin_density
 _atom_site_hle17_ddec_charge
 _atom_site_hle17_ddec_spin_density
 _atom_site_hle17_ddec_sum_bond_order
 _atom_site_hle17_magmom
 _atom_site_hse06_10hf_bader_spin_density
 _atom_site_hse06_10hf_ddec_charge
 _atom_site_hse06_10hf_ddec_spin_density
 _atom_site_hse06_10hf_ddec_sum_bond_order
 _atom_site_hse06_10hf_magmom
 _atom_site_hse06_bader_spin_density
 _atom_site_hse06_ddec_charge
 _atom_site_hse06_ddec_spin_density
 _atom_site_hse06_ddec_sum_bond_order
 _atom_site_hse06_magmom
 _atom_site_pbe_bader_charge
 _atom_site_pbe_bader_spin_density
 _atom_site_pbe_cm5_charge
 _atom_site_pbe_ddec_charge
 _atom_site_pbe_ddec_spin_density
 _atom_site_pbe_ddec_sum_bond_order
 _atom_site_pbe_magmom
Ba  Ba0  1  0.55671251  0.24996217  0.74997424  1  0  1.669667  0  1.082339  0  0  1.52608  0  1.479948  0  0  1.564957  0  1.432126  0  1.718753  0  0.923529  1.497609  0  1.513597  0
Ba  Ba1  1  0.44328940  0.75003621  0.25002456  1  0  1.669673  0  1.082331  0  0  1.526094  0  1.479939  0  0  1.564969  0  1.432117  0  1.718827  0  0.923528  1.497619  0  1.513596  0
H  H2  1  0.25958368  0.12956045  0.86776659  1  0  0.309908  0  0.928139  0  0  0.286307  0  0.998477  0  0  0.296112  0  0.990731  0  0.552801  0  0.309506  0.279414  0  1.003882  0
H  H3  1  0.74240371  0.62959743  0.36775344  1  0  0.310107  0  0.928482  0  0  0.286342  0  0.998675  0  0  0.29616  0  0.990943  0  0.546568  0  0.30943  0.279447  0  1.004072  0
H  H4  1  0.74041244  0.87044237  0.13223171  1  0  0.309906  0  0.928186  0  0  0.286305  0  0.998509  0  0  0.29611  0  0.990763  0  0.552707  0  0.30952  0.279412  0  1.003911  0
H  H5  1  0.25759583  0.37040095  0.63224637  1  0  0.310107  0  0.928502  0  0  0.286351  0  0.998664  0  0  0.296168  0  0.990934  0  0.546614  0  0.309464  0.279457  0  1.00406  0
H  H6  1  0.91250794  0.05769703  0.88823241  1  0  0.104389  0  0.922277  0  0  0.113589  0  0.988857  0  0  0.114944  0  0.988625  0  0.092437  0  0.117492  0.112641  0  0.989051  0
H  H7  1  0.14066711  0.55798299  0.38841488  1  0  0.10369  0  0.923417  0  0  0.113453  0  0.988767  0  0  0.114745  0  0.988566  0  0.096182  0  0.117491  0.112534  0  0.98895  0
H  H8  1  0.08748916  0.94230431  0.11176699  1  0  0.10443  0  0.922204  0  0  0.113611  0  0.988808  0  0  0.114966  0  0.988577  0  0.09249  0  0.117512  0.112666  0  0.988996  0
H  H9  1  0.85932843  0.44201836  0.61158337  1  0  0.103664  0  0.923286  0  0  0.113448  0  0.988645  0  0  0.114732  0  0.988452  0  0.096101  0  0.117524  0.11253  0  0.988829  0
H  H10  1  0.03648955  0.07902590  0.83214065  1  0  0.132545  0  0.924181  0  0  0.144969  0  0.979587  0  0  0.148874  0  0.976047  0  0.161455  0  0.130842  0.142058  0  0.982345  0
H  H11  1  0.05145327  0.57886282  0.33227303  1  0  0.132244  0  0.923555  0  0  0.144469  0  0.978955  0  0  0.148373  0  0.975339  0  0.166007  0  0.130701  0.141537  0  0.981781  0
H  H12  1  0.96350345  0.92097841  0.16785866  1  0  0.132522  0  0.924233  0  0  0.14502  0  0.979529  0  0  0.148926  0  0.975987  0  0.161467  0  0.130876  0.142107  0  0.982291  0
H  H13  1  0.94854214  0.42114001  0.66772597  1  0  0.132181  0  0.923601  0  0  0.144403  0  0.979029  0  0  0.148287  0  0.975438  0  0.166034  0  0.130669  0.141472  0  0.981856  0
H  H14  1  0.85115863  0.52628015  0.88915023  1  0  0.269265  0  0.96361  0  0  0.236234  0  1.058361  0  0  0.243814  0  1.052437  0  0.492762  0  0.299327  0.230772  0  1.062697  0
H  H15  1  0.73317768  0.02651289  0.38926089  1  0  0.268644  0  0.96421  0  0  0.235721  0  1.058515  0  0  0.243265  0  1.052629  0  0.502491  0  0.299229  0.230291  0  1.062839  0
H  H16  1  0.14883809  0.47372268  0.11084882  1  0  0.26927  0  0.963597  0  0  0.236274  0  1.058341  0  0  0.243846  0  1.052408  0  0.49289  0  0.299338  0.230812  0  1.062682  0
H  H17  1  0.26682480  0.97348697  0.61073795  1  0  0.268619  0  0.96422  0  0  0.235696  0  1.058521  0  0  0.243241  0  1.052632  0  0.502452  0  0.299213  0.230264  0  1.062848  0
H  H18  1  0.50603194  0.78775002  0.89427850  1  0  0.088751  0  0.955967  0  0  0.100919  0  1.025418  0  0  0.102342  0  1.024324  0  0.052846  0  0.110687  0.099921  0  1.0263  0
H  H19  1  0.81191150  0.28784345  0.39437276  1  0  0.089656  0  0.955263  0  0  0.101166  0  1.02568  0  0  0.102596  0  1.024541  0  0.047346  0  0.110962  0.100131  0  1.026604  0
H  H20  1  0.49396665  0.21225429  0.10572065  1  0  0.088764  0  0.955911  0  0  0.100957  0  1.025369  0  0  0.102379  0  1.024275  0  0.052953  0  0.1107  0.099959  0  1.026252  0
H  H21  1  0.18809006  0.71215493  0.60562639  1  0  0.089578  0  0.955249  0  0  0.101139  0  1.025629  0  0  0.102567  0  1.024495  0  0.047188  0  0.110963  0.100109  0  1.026548  0
H  H22  1  0.45178955  0.67185356  0.84970830  1  0  0.117365  0  0.918405  0  0  0.132448  0  0.974901  0  0  0.135802  0  0.971462  0  0.135912  0  0.129731  0.129977  0  0.977533  0
H  H23  1  0.02657121  0.17151129  0.34990280  1  0  0.117855  0  0.918861  0  0  0.132552  0  0.975864  0  0  0.135905  0  0.972471  0  0.146019  0  0.12982  0.130099  0  0.978451  0
H  H24  1  0.54820515  0.32814927  0.15029141  1  0  0.11741  0  0.918361  0  0  0.132475  0  0.974906  0  0  0.135834  0  0.971459  0  0.135947  0  0.129751  0.130005  0  0.977539  0
H  H25  1  0.97343296  0.82848710  0.65009645  1  0  0.11785  0  0.918825  0  0  0.132545  0  0.975853  0  0  0.135897  0  0.972461  0  0.146055  0  0.129802  0.130092  0  0.978441  0
H  H26  1  0.40338064  0.26815366  0.89169930  1  0  0.122616  0  0.963735  0  0  0.135916  0  1.033491  0  0  0.137696  0  1.032578  0  0.088834  0  0.117745  0.134517  0  1.034285  0
H  H27  1  0.43614469  0.76803059  0.39157898  1  0  0.122339  0  0.964477  0  0  0.136358  0  1.033579  0  0  0.138157  0  1.032625  0  0.116033  0  0.117677  0.134938  0  1.034399  0
H  H28  1  0.59661993  0.73184620  0.10829874  1  0  0.122521  0  0.963822  0  0  0.135854  0  1.033543  0  0  0.137635  0  1.032629  0  0.088907  0  0.117714  0.134455  0  1.034338  0
H  H29  1  0.56385154  0.23197372  0.60842117  1  0  0.122353  0  0.964515  0  0  0.136374  0  1.033618  0  0  0.138171  0  1.032664  0  0.116067  0  0.117688  0.134955  0  1.034439  0
H  H30  1  0.54916681  0.02835946  0.91752546  1  0  0.106032  0  0.950939  0  0  0.123235  0  1.019349  0  0  0.12333  0  1.019586  0  0.094992  0  0.105858  0.122988  0  1.019355  0
H  H31  1  0.50458041  0.52819785  0.41739519  1  0  0.105802  0  0.951208  0  0  0.12298  0  1.019675  0  0  0.12306  0  1.01991  0  0.09944  0  0.105697  0.122731  0  1.019693  0
H  H32  1  0.45083436  0.97164041  0.08247334  1  0  0.106061  0  0.950961  0  0  0.123258  0  1.019403  0  0  0.123352  0  1.01964  0  0.094984  0  0.105845  0.123012  0  1.019406  0
H  H33  1  0.49541861  0.47180349  0.58260501  1  0  0.105826  0  0.951157  0  0  0.122986  0  1.019643  0  0  0.123067  0  1.019881  0  0.099437  0  0.1057  0.122737  0  1.019662  0
H  H34  1  0.52108714  0.24416906  0.94415124  1  0  0.115824  0  0.947808  0  0  0.133484  0  1.013272  0  0  0.135802  0  1.01081  0  0.099051  0  0.110335  0.13169  0  1.015197  0
H  H35  1  0.29021952  0.74397929  0.44399378  1  0  0.116803  0  0.946591  0  0  0.134284  0  1.012402  0  0  0.13659  0  1.00993  0  0.067712  0  0.110745  0.132496  0  1.014325  0
H  H36  1  0.47890972  0.75583229  0.05584706  1  0  0.115774  0  0.947838  0  0  0.133534  0  1.013218  0  0  0.135855  0  1.010751  0  0.099198  0  0.110343  0.131739  0  1.015145  0
H  H37  1  0.70977914  0.25602205  0.55600678  1  0  0.116798  0  0.946607  0  0  0.134277  0  1.012412  0  0  0.136582  0  1.009945  0  0.067727  0  0.110738  0.132491  0  1.014334  0
H  H38  1  0.60875176  0.27822678  0.01931230  1  0  0.357041  0  0.90408  0  0  0.335997  0  0.968698  0  0  0.345712  0  0.959278  0  0.543727  0  0.308577  0.329123  0  0.975431  0
H  H39  1  0.09321019  0.77849051  0.51944941  1  0  0.35661  0  0.903885  0  0  0.33568  0  0.96827  0  0  0.345363  0  0.958952  0  0.559106  0  0.308634  0.328805  0  0.974999  0
H  H40  1  0.39125172  0.72177160  0.98068765  1  0  0.357079  0  0.904174  0  0  0.336037  0  0.96878  0  0  0.345752  0  0.959357  0  0.543704  0  0.308589  0.329163  0  0.975513  0
H  H41  1  0.90679395  0.22150935  0.48054913  1  0  0.356672  0  0.903882  0  0  0.335729  0  0.968283  0  0  0.345411  0  0.958967  0  0.559187  0  0.308665  0.328855  0  0.975009  0
H  H42  1  0.71045473  0.32211310  0.06916029  1  0  0.327633  0  0.937722  0  0  0.302133  0  1.00964  0  0  0.311955  0  1.001258  0  0.531498  0  0.303821  0.295197  0  1.015522  0
H  H43  1  0.89818508  0.82216787  0.56927620  1  0  0.328346  0  0.936739  0  0  0.302269  0  1.009465  0  0  0.312067  0  1.001122  0  0.532011  0  0.304154  0.295345  0  1.015336  0
H  H44  1  0.28955224  0.67788231  0.93083900  1  0  0.327661  0  0.937638  0  0  0.302161  0  1.009562  0  0  0.311979  0  1.001184  0  0.531492  0  0.303811  0.295223  0  1.015445  0
H  H45  1  0.10182037  0.17783199  0.43072239  1  0  0.328457  0  0.936648  0  0  0.302347  0  1.009418  0  0  0.312145  0  1.001076  0  0.531911  0  0.304179  0.295423  0  1.015291  0
H  H46  1  0.55029516  0.96456092  0.66308322  1  0  0.404908  0  0.903139  0  0  0.368181  0  0.978025  0  0  0.379619  0  0.96098  0  0.622264  0  0.285711  0.360059  0  0.990118  0
H  H47  1  0.82176127  0.46514934  0.16315279  1  0  0.404174  0  0.904065  0  0  0.367729  0  0.978458  0  0  0.379149  0  0.961441  0  0.618234  0  0.285474  0.359632  0  0.990513  0
H  H48  1  0.44970641  0.03544339  0.33691567  1  0  0.404953  0  0.903077  0  0  0.368232  0  0.977955  0  0  0.379671  0  0.960909  0  0.62165  0  0.285732  0.360108  0  0.990052  0
H  H49  1  0.17823976  0.53485201  0.83684676  1  0  0.40421  0  0.904008  0  0  0.367746  0  0.978425  0  0  0.379166  0  0.961409  0  0.618238  0  0.285488  0.35965  0  0.990479  0
H  H50  1  0.39417217  0.94242880  0.70109426  1  0  0.421455  0  0.878419  0  0  0.393207  0  0.936942  0  0  0.403489  0  0.921892  0  0.635211  0  0.293166  0.385926  0  0.947597  0
H  H51  1  0.96247624  0.44266451  0.20114722  1  0  0.422036  0  0.877529  0  0  0.393004  0  0.937204  0  0  0.403322  0  0.92213  0  0.660344  0  0.29305  0.385712  0  0.947852  0
H  H52  1  0.60582935  0.05757106  0.29890419  1  0  0.421408  0  0.878484  0  0  0.393171  0  0.936982  0  0  0.403453  0  0.921933  0  0.635177  0  0.293163  0.385897  0  0.947626  0
H  H53  1  0.03752352  0.55733536  0.79885299  1  0  0.422048  0  0.877509  0  0  0.393024  0  0.937169  0  0  0.403343  0  0.922095  0  0.66033  0  0.293056  0.385731  0  0.947818  0
H  H54  1  0.74981669  0.59426667  0.75430915  1  0  0.42037  0  0.878924  0  0  0.39193  0  0.937707  0  0  0.401683  0  0.923484  0  0.62453  0  0.294559  0.385082  0  0.947699  0
H  H55  1  0.90168512  0.09425637  0.25426376  1  0  0.420794  0  0.878389  0  0  0.392355  0  0.937123  0  0  0.402084  0  0.922946  0  0.639311  0  0.294785  0.385504  0  0.947121  0
H  H56  1  0.25018129  0.40573171  0.24568951  1  0  0.42033  0  0.878979  0  0  0.391941  0  0.937681  0  0  0.401692  0  0.923462  0  0.624631  0  0.294591  0.385094  0  0.947672  0
H  H57  1  0.09831669  0.90574201  0.74573649  1  0  0.420799  0  0.878382  0  0  0.392361  0  0.937116  0  0  0.402091  0  0.922935  0  0.639306  0  0.294789  0.385508  0  0.947116  0
H  H58  1  0.58399134  0.61949467  0.72171973  1  0  0.401933  0  0.910572  0  0  0.370664  0  0.976353  0  0  0.381058  0  0.960996  0  0.639574  0  0.290255  0.363352  0  0.98715  0
H  H59  1  0.07465187  0.11952883  0.22169623  1  0  0.401436  0  0.911141  0  0  0.370007  0  0.977259  0  0  0.380428  0  0.961855  0  0.62966  0  0.290049  0.362685  0  0.98807  0
H  H60  1  0.41600664  0.38050371  0.27827893  1  0  0.401924  0  0.910582  0  0  0.370656  0  0.976358  0  0  0.381047  0  0.961006  0  0.639599  0  0.290261  0.363345  0  0.987153  0
H  H61  1  0.92534877  0.88046807  0.77830323  1  0  0.401435  0  0.911146  0  0  0.370006  0  0.977265  0  0  0.380428  0  0.96186  0  0.629651  0  0.290035  0.362682  0  0.988078  0
C  C62  1  0.09904791  0.20059544  0.93614580  1  0  0.548511  0  3.815295  0  0  0.484308  0  4.110548  0  0  0.51539  0  4.115519  0  1.58524  0  0.357642  0.46352  0  4.106523  0
C  C63  1  0.76364765  0.70062205  0.43616754  1  0  0.550875  0  3.813399  0  0  0.485557  0  4.109076  0  0  0.516672  0  4.114126  0  1.602687  0  0.358472  0.464749  0  4.105014  0
C  C64  1  0.90095326  0.79940442  0.06385300  1  0  0.548454  0  3.815116  0  0  0.484216  0  4.11038  0  0  0.515296  0  4.115354  0  1.58495  0  0.357602  0.463428  0  4.106353  0
C  C65  1  0.23635111  0.29937930  0.56383156  1  0  0.5509  0  3.813382  0  0  0.485577  0  4.109095  0  0  0.51669  0  4.114148  0  1.602715  0  0.35845  0.464769  0  4.105036  0
C  C66  1  0.96551430  0.15201564  0.86678671  1  0  -0.096014  0  3.637993  0  0  -0.154015  0  3.892153  0  0  -0.152512  0  3.897282  0  0.287374  0  -0.048069  -0.154925  0  3.888554  0
C  C67  1  0.01483657  0.65215340  0.36688543  1  0  -0.094166  0  3.639534  0  0  -0.151557  0  3.89179  0  0  -0.149793  0  3.896711  0  0.273144  0  -0.047295  -0.152601  0  3.888342  0
C  C68  1  0.03448171  0.84798719  0.13321305  1  0  -0.096019  0  3.637991  0  0  -0.154026  0  3.892195  0  0  -0.15253  0  3.897313  0  0.287241  0  -0.048044  -0.154933  0  3.888596  0
C  C69  1  0.98515788  0.34784943  0.63311318  1  0  -0.093998  0  3.639373  0  0  -0.151491  0  3.891705  0  0  -0.149711  0  3.896631  0  0.273177  0  -0.047306  -0.152538  0  3.888262  0
C  C70  1  0.77157483  0.34268468  0.85665297  1  0  0.585091  0  3.780357  0  0  0.542582  0  4.065366  0  0  0.571839  0  4.064378  0  1.422987  0  0.257615  0.522773  0  4.065313  0
C  C71  1  0.02839892  0.84268164  0.35669309  1  0  0.585019  0  3.779248  0  0  0.541655  0  4.064598  0  0  0.570821  0  4.063657  0  1.437235  0  0.257815  0.521896  0  4.064522  0
C  C72  1  0.22842022  0.65731815  0.14334639  1  0  0.585187  0  3.780218  0  0  0.54252  0  4.065493  0  0  0.571804  0  4.064464  0  1.422945  0  0.257567  0.522708  0  4.065446  0
C  C73  1  0.97160204  0.15731674  0.64330531  1  0  0.584829  0  3.779349  0  0  0.54159  0  4.064533  0  0  0.570765  0  4.063575  0  1.437289  0  0.257768  0.521831  0  4.06446  0
C  C74  1  0.56967873  0.70236339  0.86114986  1  0  -0.116173  0  3.673183  0  0  -0.176957  0  3.933632  0  0  -0.175626  0  3.938613  0  0.275396  0  -0.06242  -0.17783  0  3.930211  0
C  C75  1  0.86672702  0.20226565  0.36127662  1  0  -0.117002  0  3.674321  0  0  -0.177976  0  3.935625  0  0  -0.176735  0  3.9407  0  0.273689  0  -0.062124  -0.178767  0  3.932085  0
C  C76  1  0.43031558  0.29764092  0.13884949  1  0  -0.116196  0  3.673058  0  0  -0.177029  0  3.933603  0  0  -0.175703  0  3.938594  0  0.275407  0  -0.062433  -0.177907  0  3.930192  0
C  C77  1  0.13327472  0.79773570  0.63872222  1  0  -0.116914  0  3.674203  0  0  -0.177995  0  3.935585  0  0  -0.176753  0  3.940659  0  0.273855  0  -0.062145  -0.178792  0  3.932048  0
C  C78  1  0.61142068  0.83265298  0.82277604  1  0  0.686635  0  3.853359  0  0  0.63506  0  4.160023  0  0  0.667102  0  4.15335  0  1.608959  0  0.224561  0.613355  0  4.163802  0
C  C79  1  0.73336739  0.33238629  0.32279665  1  0  0.687063  0  3.852024  0  0  0.635937  0  4.158406  0  0  0.66797  0  4.151699  0  1.589133  0  0.224172  0.614222  0  4.162214  0
C  C80  1  0.38857245  0.16734984  0.17722252  1  0  0.686633  0  3.853177  0  0  0.635129  0  4.159794  0  0  0.667169  0  4.153122  0  1.6085  0  0.224579  0.613426  0  4.163573  0
C  C81  1  0.26663698  0.66761505  0.67720228  1  0  0.686987  0  3.85203  0  0  0.635937  0  4.158321  0  0  0.667968  0  4.151617  0  1.589014  0  0.224147  0.614218  0  4.162134  0
C  C82  1  0.44364656  0.18552948  0.92500705  1  0  -0.164343  0  3.618483  0  0  -0.272104  0  3.879042  0  0  -0.267215  0  3.885819  0  0.232117  0  -0.142031  -0.275113  0  3.8745  0
C  C83  1  0.44530207  0.68541085  0.42488067  1  0  -0.16456  0  3.619213  0  0  -0.273343  0  3.879867  0  0  -0.26844  0  3.886722  0  0.235079  0  -0.142362  -0.276326  0  3.875242  0
C  C84  1  0.55635327  0.81447187  0.07499099  1  0  -0.164303  0  3.618525  0  0  -0.272189  0  3.879082  0  0  -0.267298  0  3.885859  0  0.23191  0  -0.142036  -0.275199  0  3.87454  0
C  C85  1  0.55469694  0.31459050  0.57511953  1  0  -0.164614  0  3.619216  0  0  -0.273368  0  3.879882  0  0  -0.268442  0  3.886685  0  0.234846  0  -0.142383  -0.276353  0  3.875259  0
C  C86  1  0.24183036  0.24569551  0.00377660  1  0  0.499024  0  3.842421  0  0  0.447322  0  4.132274  0  0  0.47799  0  4.134325  0  1.33393  0  0.239863  0.426765  0  4.130485  0
C  C87  1  0.50833171  0.74570137  0.50370554  1  0  0.500617  0  3.840289  0  0  0.447233  0  4.131819  0  0  0.477933  0  4.133839  0  1.330837  0  0.239802  0.426674  0  4.130034  0
C  C88  1  0.75817155  0.75430287  0.99622220  1  0  0.498859  0  3.842685  0  0  0.447236  0  4.132418  0  0  0.477889  0  4.134486  0  1.333901  0  0.239783  0.426691  0  4.130612  0
C  C89  1  0.49166929  0.25430146  0.49629329  1  0  0.500555  0  3.840252  0  0  0.447199  0  4.131771  0  0  0.477895  0  4.133792  0  1.33047  0  0.239793  0.426638  0  4.129989  0
C  C90  1  0.04867868  0.28060242  0.03198985  1  0  -0.172386  0  3.747382  0  0  -0.178613  0  4.033439  0  0  -0.199782  0  4.055495  0  0.432835  0  0.065946  -0.165268  0  4.018972  0
C  C91  1  0.63851054  0.78048083  0.53200338  1  0  -0.171605  0  3.744521  0  0  -0.176929  0  4.030491  0  0  -0.198093  0  4.052528  0  0.437567  0  0.066573  -0.16359  0  4.016038  0
C  C92  1  0.95132419  0.71939596  0.96800935  1  0  -0.17241  0  3.747444  0  0  -0.178676  0  4.033481  0  0  -0.199842  0  4.055539  0  0.432672  0  0.065943  -0.165329  0  4.019005  0
C  C93  1  0.36148971  0.21951755  0.46799572  1  0  -0.171554  0  3.744523  0  0  -0.176861  0  4.030428  0  0  -0.198026  0  4.052464  0  0.437531  0  0.066594  -0.163532  0  4.015994  0
C  C94  1  0.89657057  0.26259322  0.00844646  1  0  0.506703  0  3.851849  0  0  0.465665  0  4.132556  0  0  0.493394  0  4.139318  0  1.189001  0  0.251131  0.447343  0  4.127404  0
C  C95  1  0.83207351  0.76249089  0.50853314  1  0  0.506813  0  3.851173  0  0  0.465193  0  4.132127  0  0  0.492971  0  4.138837  0  1.182797  0  0.251205  0.446833  0  4.127012  0
C  C96  1  0.10343343  0.73740220  0.99155310  1  0  0.50671  0  3.851862  0  0  0.465702  0  4.132505  0  0  0.493432  0  4.139268  0  1.189001  0  0.25116  0.447379  0  4.127352  0
C  C97  1  0.16793084  0.23750452  0.49146606  1  0  0.506882  0  3.851185  0  0  0.465324  0  4.132047  0  0  0.493105  0  4.138748  0  1.18285  0  0.251234  0.446964  0  4.126941  0
N  N98  1  0.92556457  0.22304470  0.96185979  1  0  -0.550921  0  3.010105  0  0  -0.520352  0  3.305485  0  0  -0.544656  0  3.311543  0  -1.285977  0  -0.352545  -0.503968  0  3.300894  0
N  N99  1  0.88902462  0.72304611  0.46195149  1  0  -0.551807  0  3.011028  0  0  -0.520484  0  3.306409  0  0  -0.544832  0  3.312493  0  -1.275049  0  -0.352289  -0.504072  0  3.301792  0
N  N100  1  0.07443625  0.77695516  0.03813936  1  0  -0.550875  0  3.009932  0  0  -0.520306  0  3.305296  0  0  -0.544609  0  3.311358  0  -1.285691  0  -0.352528  -0.503923  0  3.300705  0
N  N101  1  0.11097581  0.27695523  0.53804731  1  0  -0.551941  0  3.011127  0  0  -0.520641  0  3.306521  0  0  -0.544989  0  3.312604  0  -1.275083  0  -0.35232  -0.504229  0  3.301908  0
N  N102  1  0.12115325  0.16870142  0.88930967  1  0  -0.387315  0  3.304995  0  0  -0.323826  0  3.553229  0  0  -0.345803  0  3.561878  0  -1.251194  0  -0.394082  -0.308782  0  3.546933  0
N  N103  1  0.82005134  0.66897552  0.38933439  1  0  -0.389044  0  3.306643  0  0  -0.325487  0  3.555273  0  0  -0.347545  0  3.563743  0  -1.26975  0  -0.394656  -0.310365  0  3.549009  0
N  N104  1  0.87884215  0.83130140  0.11068933  1  0  -0.387381  0  3.305031  0  0  -0.323845  0  3.5532  0  0  -0.345823  0  3.561859  0  -1.251192  0  -0.394146  -0.308802  0  3.546903  0
N  N105  1  0.17994594  0.33102879  0.61066471  1  0  -0.389094  0  3.306698  0  0  -0.325485  0  3.555347  0  0  -0.347542  0  3.56381  0  -1.269733  0  -0.394648  -0.310358  0  3.54907  0
N  N106  1  0.74779061  0.51654789  0.87017811  1  0  -0.396055  0  3.397566  0  0  -0.340541  0  3.655136  0  0  -0.361645  0  3.664734  0  -1.237921  0  -0.420516  -0.326016  0  3.648319  0
N  N107  1  0.86516487  0.01661316  0.37030776  1  0  -0.396554  0  3.397014  0  0  -0.339989  0  3.654202  0  0  -0.361071  0  3.66392  0  -1.26184  0  -0.42148  -0.325496  0  3.647268  0
N  N108  1  0.25220576  0.48345494  0.12982130  1  0  -0.396073  0  3.397461  0  0  -0.340556  0  3.655127  0  0  -0.361657  0  3.664744  0  -1.238112  0  -0.420518  -0.326033  0  3.648314  0
N  N109  1  0.13483835  0.98338522  0.62969109  1  0  -0.396491  0  3.39711  0  0  -0.339924  0  3.654239  0  0  -0.361008  0  3.663953  0  -1.261904  0  -0.42144  -0.325434  0  3.647311  0
N  N110  1  0.25713362  0.21016172  0.95518215  1  0  -0.24851  0  3.409912  0  0  -0.158076  0  3.645763  0  0  -0.182768  0  3.664956  0  -1.176003  0  -0.247441  -0.141521  0  3.632295  0
N  N111  1  0.57706515  0.71010089  0.45512604  1  0  -0.250522  0  3.407947  0  0  -0.158614  0  3.643696  0  0  -0.183343  0  3.662877  0  -1.195027  0  -0.247814  -0.142046  0  3.630234  0
N  N112  1  0.74286660  0.78983815  0.04481624  1  0  -0.248353  0  3.409772  0  0  -0.157936  0  3.645604  0  0  -0.182629  0  3.664812  0  -1.175788  0  -0.247367  -0.141381  0  3.632127  0
N  N113  1  0.42293528  0.28990046  0.54487275  1  0  -0.250455  0  3.407884  0  0  -0.158611  0  3.643709  0  0  -0.18334  0  3.662895  0  -1.194788  0  -0.247796  -0.142042  0  3.63025  0
N  N114  1  0.02801478  0.33426102  0.07753362  1  0  0.025079  0  3.08079  0  0  0.038315  0  3.363874  0  0  0.05827  0  3.364381  0  -0.362452  0  -0.161331  0.025672  0  3.363333  0
N  N115  1  0.56017902  0.83413646  0.57753043  1  0  0.023544  0  3.079933  0  0  0.036284  0  3.363031  0  0  0.056222  0  3.36357  0  -0.34081  0  -0.162172  0.023644  0  3.362487  0
N  N116  1  0.97198992  0.66573440  0.92246523  1  0  0.025184  0  3.080695  0  0  0.038366  0  3.363791  0  0  0.058324  0  3.364305  0  -0.362271  0  -0.161309  0.025719  0  3.363248  0
N  N117  1  0.43982351  0.16586785  0.42246885  1  0  0.023459  0  3.080097  0  0  0.03622  0  3.363157  0  0  0.056161  0  3.363693  0  -0.34088  0  -0.162196  0.023584  0  3.362615  0
N  N118  1  0.72245474  0.28889715  0.03389644  1  0  -0.604235  0  3.088891  0  0  -0.564164  0  3.326798  0  0  -0.585985  0  3.32048  0  -1.332236  0  -0.5459  -0.54947  0  3.33103  0
N  N119  1  0.95450413  0.78888967  0.53402717  1  0  -0.604483  0  3.088241  0  0  -0.564112  0  3.327357  0  0  -0.585931  0  3.321039  0  -1.339591  0  -0.546424  -0.549414  0  3.331592  0
N  N120  1  0.27755021  0.71109827  0.96610352  1  0  -0.604259  0  3.088913  0  0  -0.564239  0  3.32683  0  0  -0.586056  0  3.320521  0  -1.332247  0  -0.545911  -0.549543  0  3.331062  0
N  N121  1  0.04549966  0.21111019  0.46597173  1  0  -0.6047  0  3.088295  0  0  -0.56432  0  3.327469  0  0  -0.586143  0  3.321158  0  -1.339671  0  -0.546512  -0.54962  0  3.331709  0
O  O122  1  0.64017696  0.32839528  0.83613167  1  0  -0.62596  0  1.97732  0  0  -0.574433  0  2.216999  0  0  -0.599086  0  2.210829  0  -1.188506  0  -0.343926  -0.556951  0  2.220603  0
O  O123  1  0.19434885  0.82825442  0.33611750  1  0  -0.625083  0  1.975508  0  0  -0.573741  0  2.215505  0  0  -0.598357  0  2.209422  0  -1.194062  0  -0.343231  -0.556285  0  2.219065  0
O  O124  1  0.35981642  0.67160755  0.16386799  1  0  -0.626035  0  1.977226  0  0  -0.574448  0  2.216966  0  0  -0.599112  0  2.210787  0  -1.188409  0  -0.343962  -0.556964  0  2.220572  0
O  O125  1  0.80565323  0.17174099  0.66388125  1  0  -0.624993  0  1.975472  0  0  -0.573694  0  2.215403  0  0  -0.598311  0  2.209316  0  -1.193975  0  -0.343218  -0.556239  0  2.218964  0
O  O126  1  0.77638898  0.75416801  0.79380538  1  0  -0.679146  0  2.030305  0  0  -0.604602  0  2.238703  0  0  -0.630451  0  2.227223  0  -1.218087  0  -0.303959  -0.586698  0  2.246262  0
O  O127  1  0.67600360  0.25378572  0.29375477  1  0  -0.678963  0  2.029771  0  0  -0.604983  0  2.238331  0  0  -0.630741  0  2.226763  0  -1.212925  0  -0.303408  -0.587099  0  2.245939  0
O  O128  1  0.22360646  0.24583334  0.20619433  1  0  -0.679122  0  2.030267  0  0  -0.604614  0  2.238645  0  0  -0.630459  0  2.227162  0  -1.217771  0  -0.303985  -0.586714  0  2.246208  0
O  O129  1  0.32399836  0.74621710  0.70624447  1  0  -0.678941  0  2.029741  0  0  -0.60497  0  2.23827  0  0  -0.630732  0  2.226703  0  -1.212937  0  -0.30339  -0.587073  0  2.245871  0
O  O130  1  0.47424218  0.01278369  0.82178112  1  0  -0.665352  0  1.974686  0  0  -0.606722  0  2.208142  0  0  -0.633754  0  2.200975  0  -1.211283  0  -0.341415  -0.587753  0  2.212437  0
O  O131  1  0.69145424  0.51250945  0.32179569  1  0  -0.665531  0  1.975268  0  0  -0.606663  0  2.208494  0  0  -0.633725  0  2.201349  0  -1.197658  0  -0.341212  -0.587682  0  2.212784  0
O  O132  1  0.52575052  0.98721617  0.17821664  1  0  -0.665341  0  1.974577  0  0  -0.606737  0  2.207992  0  0  -0.63377  0  2.200829  0  -1.211209  0  -0.341398  -0.587766  0  2.212285  0
O  O133  1  0.30855108  0.48749189  0.67820365  1  0  -0.665505  0  1.975281  0  0  -0.606655  0  2.208459  0  0  -0.633717  0  2.201313  0  -1.197596  0  -0.341195  -0.587677  0  2.212754  0
O  O134  1  0.38656315  0.24782366  0.02072529  1  0  -0.531917  0  2.026413  0  0  -0.48898  0  2.259352  0  0  -0.509327  0  2.253  0  -1.163527  0  -0.283285  -0.475038  0  2.263374  0
O  O135  1  0.34448978  0.74802958  0.52058761  1  0  -0.532266  0  2.025457  0  0  -0.488771  0  2.258828  0  0  -0.50906  0  2.25237  0  -1.159659  0  -0.283429  -0.474853  0  2.262882  0
O  O136  1  0.61343690  0.75217917  0.97927315  1  0  -0.531813  0  2.026494  0  0  -0.488918  0  2.259376  0  0  -0.509279  0  2.253075  0  -1.163569  0  -0.283228  -0.474982  0  2.263395  0
O  O137  1  0.65550977  0.25197472  0.47941194  1  0  -0.532243  0  2.025391  0  0  -0.48874  0  2.258745  0  0  -0.509022  0  2.252282  0  -1.159353  0  -0.28344  -0.474851  0  2.262868  0
O  O138  1  0.86230773  0.36266938  0.10469399  1  0  -0.399937  0  1.920888  0  0  -0.339915  0  2.144894  0  0  -0.359497  0  2.14071  0  -0.593453  0  -0.159556  -0.326871  0  2.147754  0
O  O139  1  0.67039054  0.86259966  0.60473989  1  0  -0.399671  0  1.92014  0  0  -0.338827  0  2.144002  0  0  -0.358414  0  2.139824  0  -0.602513  0  -0.159277  -0.325769  0  2.146847  0
O  O140  1  0.13769645  0.63732900  0.89530526  1  0  -0.400095  0  1.920935  0  0  -0.33993  0  2.14489  0  0  -0.359508  0  2.140697  0  -0.593511  0  -0.159572  -0.326887  0  2.147752  0
O  O141  1  0.32961461  0.13740465  0.39525949  1  0  -0.399561  0  1.920206  0  0  -0.338791  0  2.144089  0  0  -0.358383  0  2.139923  0  -0.602388  0  -0.159234  -0.325726  0  2.146932  0
O  O142  1  0.47255134  0.01619228  0.69459655  1  0  -0.880214  0  1.771973  0  0  -0.828393  0  1.944207  0  0  -0.846913  0  1.912066  0  -1.286387  0  -0.63923  -0.815146  0  1.966747  0
O  O143  1  0.81675449  0.51664866  0.19466896  1  0  -0.879632  0  1.771789  0  0  -0.827152  0  1.944314  0  0  -0.845644  0  1.912034  0  -1.307777  0  -0.638355  -0.813907  0  1.966882  0
O  O144  1  0.52744909  0.98380907  0.30540225  1  0  -0.88021  0  1.771983  0  0  -0.828399  0  1.944223  0  0  -0.846907  0  1.912057  0  -1.285786  0  -0.639233  -0.815152  0  1.966758  0
O  O145  1  0.18324449  0.48335416  0.80533054  1  0  -0.879638  0  1.7717  0  0  -0.827168  0  1.944254  0  0  -0.84566  0  1.911973  0  -1.307763  0  -0.63837  -0.813923  0  1.96682  0
O  O146  1  0.71653480  0.52028993  0.73295769  1  0  -0.868055  0  1.791936  0  0  -0.814408  0  1.950082  0  0  -0.8343  0  1.92082  0  -1.286582  0  -0.62141  -0.800203  0  1.970358  0
O  O147  1  0.03021111  0.02030926  0.23294721  1  0  -0.867762  0  1.793242  0  0  -0.814043  0  1.951429  0  0  -0.833984  0  1.922235  0  -1.292869  0  -0.621173  -0.79982  0  1.971707  0
O  O148  1  0.28346650  0.47970846  0.26704036  1  0  -0.868031  0  1.79201  0  0  -0.814417  0  1.950115  0  0  -0.834311  0  1.920862  0  -1.286698  0  -0.621458  -0.800216  0  1.970397  0
O  O149  1  0.96978878  0.97968912  0.76705225  1  0  -0.867785  0  1.793267  0  0  -0.814048  0  1.951433  0  0  -0.83399  0  1.922237  0  -1.292854  0  -0.621168  -0.799827  0  1.971715  0
