# generated using pymatgen
data_Zn2H11C22N8F11
_symmetry_space_group_name_H-M   'P 1'
_cell_length_a   12.99209940
_cell_length_b   13.05093909
_cell_length_c   14.80570486
_cell_angle_alpha   101.12642653
_cell_angle_beta   117.15072141
_cell_angle_gamma   105.04624383
_symmetry_Int_Tables_number   1
_chemical_formula_structural   Zn2H11C22N8F11
_chemical_formula_sum   'Zn4 H22 C44 N16 F22'
_cell_volume   2010.56306467
_cell_formula_units_Z   2
loop_
 _symmetry_equiv_pos_site_id
 _symmetry_equiv_pos_as_xyz
  1  'x, y, z'
loop_
 _atom_site_type_symbol
 _atom_site_label
 _atom_site_symmetry_multiplicity
 _atom_site_fract_x
 _atom_site_fract_y
 _atom_site_fract_z
 _atom_site_occupancy
 _atom_site_pbe_bader_charge
 _atom_site_pbe_bader_spin_density
 _atom_site_pbe_cm5_charge
 _atom_site_pbe_ddec_charge
 _atom_site_pbe_ddec_spin_density
 _atom_site_pbe_ddec_sum_bond_order
 _atom_site_pbe_magmom
C  C0  1  0.68990207  0.45843618  0.89072210  1  1.046778  0  0.206949  0.344589  0  4.071505  0
C  C1  1  0.40565215  0.15491529  0.08166052  1  1.070718  0  0.207396  0.339304  0  4.104873  0
C  C2  1  0.05151383  0.41981892  0.79758682  1  1.090606  0  0.207614  0.363007  0  4.119054  0
C  C3  1  0.35591968  0.70488090  0.01658696  1  1.039816  0  0.209833  0.364965  0  4.075526  0
C  C4  1  0.44968307  0.81488507  0.08593139  1  0.133597  0  -0.054514  -0.316982  0  4.143942  0
C  C5  1  0.98043051  0.36198522  0.83452138  1  0.096159  0  -0.053863  -0.320129  0  4.147366  0
C  C6  1  0.47895940  0.58476020  0.29526877  1  -0.009755  0  -0.050989  -0.16685  0  4.030842  0
C  C7  1  0.96097404  0.79070898  0.32327359  1  0.000596  0  -0.048245  -0.162072  0  4.041089  0
C  C8  1  0.42371751  0.50794003  0.51134916  1  0.457341  0  0.02666  0.106986  0  3.805416  0
C  C9  1  0.24042098  0.08759288  0.50953490  1  0.472336  0  0.027503  0.115466  0  3.786955  0
C  C10  1  0.41537961  0.49376850  0.40324196  1  0.487599  0  0.022886  0.110605  0  3.806465  0
C  C11  1  0.14673640  0.97990214  0.40654085  1  0.460737  0  0.023946  0.109445  0  3.79341  0
C  C12  1  0.39324358  0.68690021  0.50921611  1  0.453631  0  0.022114  0.106245  0  3.811898  0
C  C13  1  0.08017604  0.06497532  0.55988631  1  0.490225  0  0.022409  0.106844  0  3.807745  0
C  C14  1  0.61068307  0.68848367  0.60546183  1  -0.034364  0  -0.158566  -0.285096  0  3.868952  0
C  C15  1  0.23741556  0.97517478  0.62297570  1  -0.039202  0  -0.158538  -0.285145  0  3.861662  0
C  C16  1  0.47596968  0.63495950  0.58142486  1  0.07071  0  -0.013442  0.021443  0  3.879918  0
C  C17  1  0.21928124  0.08276339  0.60297629  1  0.052987  0  -0.012311  0.022221  0  3.868436  0
C  C18  1  0.47799415  0.60938844  0.39843227  1  0.048178  0  -0.015131  -0.037694  0  3.856897  0
C  C19  1  0.05764097  0.89404152  0.42409487  1  0.05072  0  -0.017002  -0.040129  0  3.865727  0
C  C20  1  0.40677589  0.68407542  0.41092197  1  0.475563  0  0.02531  0.113425  0  3.798538  0
C  C21  1  0.98846608  0.95610290  0.46014186  1  0.487641  0  0.023151  0.117757  0  3.801499  0
C  C22  1  0.33213148  0.19315461  0.80984575  1  0.369331  0  0.006069  -0.041055  0  3.964078  0
C  C23  1  0.58003937  0.68196584  0.79020992  1  0.424135  0  0.00719  -0.045405  0  4.008559  0
C  C24  1  0.61249934  0.66844811  0.50073007  1  0.473165  0  0.028845  0.195399  0  3.787648  0
C  C25  1  0.14300148  0.86674761  0.52148858  1  0.463289  0  0.030349  0.204907  0  3.756083  0
C  C26  1  0.43675434  0.92186093  0.10913699  1  0.422218  0  0.085898  0.283562  0  4.100249  0
C  C27  1  0.86836369  0.36808949  0.82855539  1  0.440378  0  0.085516  0.287422  0  4.09605  0
C  C28  1  0.52703007  0.02625977  0.14701062  1  0.12376  0  -0.123488  -0.250576  0  4.069919  0
C  C29  1  0.82461908  0.33995268  0.89113799  1  0.091518  0  -0.12221  -0.247717  0  4.069269  0
C  C30  1  0.60810872  0.23834900  0.18392271  1  1.067129  0  0.20501  0.3382  0  4.112133  0
C  C31  1  0.70766809  0.35316728  0.98782790  1  1.059551  0  0.206952  0.339747  0  4.080273  0
C  C32  1  0.37257151  0.59666518  0.69313534  1  0.396954  0  0.005654  -0.050572  0  3.996038  0
C  C33  1  0.31919304  0.30175220  0.71075730  1  0.400924  0  0.003546  -0.052557  0  3.960552  0
C  C34  1  0.73944955  0.37587383  0.91255480  1  0.114802  0  -0.049461  -0.181074  0  4.149269  0
C  C35  1  0.51089658  0.13047045  0.14168956  1  0.107591  0  -0.047423  -0.176995  0  4.148531  0
C  C36  1  0.29891698  0.18856812  0.70426462  1  0.027883  0  -0.044576  -0.059128  0  4.004697  0
C  C37  1  0.47585896  0.64345767  0.68387214  1  0.043066  0  -0.041691  -0.051456  0  4.028707  0
C  C38  1  0.55808188  0.79549531  0.10495685  1  1.067352  0  0.211975  0.367564  0  4.076962  0
C  C39  1  0.06247458  0.31651233  0.89663025  1  1.105287  0  0.21403  0.370776  0  4.10443  0
C  C40  1  0.37929584  0.50878649  0.19080686  1  1.065254  0  0.202099  0.334223  0  4.070864  0
C  C41  1  0.89115868  0.78483048  0.21589506  1  1.017526  0  0.200251  0.333219  0  4.108019  0
C  C42  1  0.90030189  0.67998119  0.31493522  1  0.468412  0  0.009174  -0.034779  0  4.004105  0
C  C43  1  0.58349004  0.60187180  0.28432590  1  0.442646  0  0.009008  -0.030369  0  3.979789  0
F  F44  1  0.69321547  0.51551007  0.82520190  1  -0.642279  0  -0.083915  -0.135375  0  1.415366  0
F  F45  1  0.28316399  0.08497750  0.01805816  1  -0.630724  0  -0.086966  -0.1338  0  1.364795  0
F  F46  1  0.47447205  0.42085036  0.38827299  1  -0.628246  0  -0.142776  -0.186744  0  1.239731  0
F  F47  1  0.21421737  0.92703801  0.37623249  1  -0.621592  0  -0.143735  -0.188857  0  1.230486  0
F  F48  1  0.28581473  0.64271215  0.31602315  1  -0.620492  0  -0.142901  -0.186994  0  1.258167  0
F  F49  1  0.90903268  0.98362564  0.37375140  1  -0.623224  0  -0.139991  -0.189629  0  1.276721  0
F  F50  1  0.67505281  0.77474699  0.49958629  1  -0.626443  0  -0.143428  -0.20093  0  1.22347  0
F  F51  1  0.06664496  0.79317210  0.54709618  1  -0.632501  0  -0.145889  -0.21041  0  1.22541  0
F  F52  1  0.42713758  0.80078198  0.57075957  1  -0.630929  0  -0.145353  -0.195739  0  1.243821  0
F  F53  1  0.05476105  0.05899566  0.64227414  1  -0.624085  0  -0.141839  -0.184673  0  1.252055  0
F  F54  1  0.31547232  0.90873692  0.07513053  1  -0.617883  0  -0.107487  -0.142398  0  1.339894  0
F  F55  1  0.81481170  0.42086689  0.75953274  1  -0.62508  0  -0.113014  -0.149926  0  1.341615  0
F  F56  1  0.73247371  0.26650080  0.24759606  1  -0.634558  0  -0.089447  -0.134192  0  1.330639  0
F  F57  1  0.73417042  0.28018342  0.03877550  1  -0.632207  0  -0.085349  -0.128798  0  1.340495  0
F  F58  1  0.67756069  0.87251447  0.16546933  1  -0.632291  0  -0.069251  -0.117509  0  1.403699  0
F  F59  1  0.04415965  0.25208615  0.95267903  1  -0.632054  0  -0.077012  -0.127473  0  1.347765  0
F  F60  1  0.25603555  0.45943670  0.15406283  1  -0.635719  0  -0.084059  -0.132435  0  1.378606  0
F  F61  1  0.90664860  0.86622469  0.17406802  1  -0.635328  0  -0.085523  -0.136693  0  1.362208  0
F  F62  1  0.02272429  0.48225818  0.73510276  1  -0.630226  0  -0.087355  -0.134611  0  1.347563  0
F  F63  1  0.23100437  0.67110911  0.96964215  1  -0.624888  0  -0.080876  -0.123355  0  1.361131  0
F  F64  1  0.30196175  0.44814579  0.48919871  1  -0.626228  0  -0.134563  -0.18842  0  1.272637  0
F  F65  1  0.22659645  0.18344376  0.48215273  1  -0.623615  0  -0.135924  -0.188237  0  1.261624  0
H  H66  1  0.45819317  0.77124012  0.42134314  1  0.128845  0  0.115745  0.089852  0  0.941496  0
H  H67  1  0.92805008  0.89886099  0.47804059  1  0.100546  0  0.111538  0.082612  0  0.954702  0
H  H68  1  0.48492783  0.46849289  0.55698370  1  0.118163  0  0.116059  0.087214  0  0.938874  0
H  H69  1  0.33719164  0.09650219  0.53499823  1  0.104407  0  0.115182  0.083371  0  0.936468  0
H  H70  1  0.31584051  0.45227545  0.33627404  1  0.117802  0  0.112163  0.083994  0  0.959394  0
H  H71  1  0.09227429  0.00538820  0.33952839  1  0.148019  0  0.110773  0.08428  0  0.967482  0
H  H72  1  0.29355204  0.64029090  0.47967695  1  0.118952  0  0.109283  0.075612  0  0.955737  0
H  H73  1  0.06410719  0.13823351  0.53939388  1  0.1074  0  0.110269  0.07847  0  0.951827  0
H  H74  1  0.64988664  0.78067531  0.64936147  1  0.06424  0  0.111649  0.138363  0  0.954939  0
H  H75  1  0.22241415  0.96434497  0.68828583  1  0.094999  0  0.108738  0.133302  0  0.970657  0
H  H76  1  0.67124478  0.65360971  0.65867602  1  0.066893  0  0.10673  0.12394  0  0.96552  0
H  H77  1  0.33454443  0.98489968  0.64971827  1  0.045045  0  0.106066  0.125402  0  0.962517  0
H  H78  1  0.66660910  0.61737648  0.49688101  1  0.079955  0  0.108506  0.064846  0  0.949873  0
H  H79  1  0.19021118  0.81856437  0.49788116  1  0.09388  0  0.104815  0.061753  0  0.965985  0
H  H80  1  0.32925608  0.12541768  0.84238019  1  0.097265  0  0.118168  0.109305  0  1.003083  0
H  H81  1  0.67981023  0.72360821  0.82175745  1  0.058017  0  0.122863  0.114482  0  0.989475  0
H  H82  1  0.62215776  0.03024785  0.17615832  1  0.103808  0  0.106554  0.136784  0  1.007357  0
H  H83  1  0.87062888  0.29559473  0.94152078  1  0.102483  0  0.10715  0.13528  0  1.00561  0
H  H84  1  0.27260598  0.55655819  0.63103724  1  0.101097  0  0.120652  0.114545  0  0.991819  0
H  H85  1  0.30498106  0.33783706  0.64794720  1  0.10409  0  0.113325  0.109376  0  1.02715  0
H  H86  1  0.92162660  0.64452154  0.37860987  1  0.124633  0  0.117297  0.113126  0  1.002766  0
H  H87  1  0.68227006  0.65535497  0.34439331  1  0.12173  0  0.116957  0.10928  0  1.012049  0
N  N88  1  0.63751663  0.48235225  0.94703770  1  -0.809329  0  -0.290062  -0.297242  0  3.579778  0
N  N89  1  0.43678669  0.26268517  0.08798766  1  -0.833301  0  -0.285778  -0.288772  0  3.54237  0
N  N90  1  0.36762564  0.30053208  0.87342661  1  -0.788431  0  -0.288022  -0.194436  0  3.617402  0
N  N91  1  0.54231923  0.65799551  0.85739015  1  -0.79502  0  -0.279307  -0.193936  0  3.54421  0
N  N92  1  0.56741967  0.31695117  0.15378274  1  -0.808816  0  -0.283822  -0.290038  0  3.523476  0
N  N93  1  0.64877839  0.41485615  0.00924860  1  -0.801807  0  -0.290223  -0.290983  0  3.582789  0
N  N94  1  0.41266865  0.60509067  0.79669280  1  -0.784105  0  -0.277718  -0.180151  0  3.552598  0
N  N95  1  0.35965847  0.36719006  0.81239627  1  -0.78362  0  -0.285829  -0.185281  0  3.621317  0
N  N96  1  0.53242237  0.68821320  0.05324542  1  -0.812157  0  -0.288142  -0.293459  0  3.58079  0
N  N97  1  0.16861969  0.34371517  0.89719113  1  -0.820775  0  -0.27944  -0.280708  0  3.515144  0
N  N98  1  0.41887727  0.48175296  0.12425088  1  -0.808508  0  -0.290912  -0.290791  0  3.597994  0
N  N99  1  0.79802517  0.68265564  0.14914917  1  -0.787434  0  -0.283622  -0.298586  0  3.512566  0
N  N100  1  0.80409168  0.61601410  0.21193295  1  -0.790282  0  -0.275374  -0.169979  0  3.541622  0
N  N101  1  0.54682205  0.53988018  0.18265462  1  -0.783433  0  -0.285268  -0.183769  0  3.598629  0
N  N102  1  0.16189320  0.41054305  0.83376116  1  -0.804242  0  -0.282769  -0.285848  0  3.513826  0
N  N103  1  0.40318402  0.63005077  0.99602693  1  -0.790508  0  -0.290004  -0.293711  0  3.552919  0
Zn  Zn104  1  0.63667919  0.63670009  0.00123316  1  1.212587  0  0.754588  0.691626  0  2.360325  0
Zn  Zn105  1  0.33856313  0.33927376  0.99461922  1  1.212293  0  0.760699  0.685176  0  2.419149  0
Zn  Zn106  1  0.65103232  0.46905161  0.14757057  1  1.207909  0  0.755204  0.676306  0  2.388942  0
Zn  Zn107  1  0.32593504  0.50544047  0.85093539  1  1.20251  0  0.756083  0.665051  0  2.418222  0
