# generated using pymatgen
data_Zn4H8C40Br12O13
_symmetry_space_group_name_H-M   'P 1'
_cell_length_a   24.00031010
_cell_length_b   24.00177581
_cell_length_c   23.99994167
_cell_angle_alpha   66.62878605
_cell_angle_beta   72.44889868
_cell_angle_gamma   107.56071660
_symmetry_Int_Tables_number   1
_chemical_formula_structural   Zn4H8C40Br12O13
_chemical_formula_sum   'Zn8 H16 C80 Br24 O26'
_cell_volume   10605.67965332
_cell_formula_units_Z   2
loop_
 _symmetry_equiv_pos_site_id
 _symmetry_equiv_pos_as_xyz
  1  'x, y, z'
loop_
 _atom_site_type_symbol
 _atom_site_label
 _atom_site_symmetry_multiplicity
 _atom_site_fract_x
 _atom_site_fract_y
 _atom_site_fract_z
 _atom_site_occupancy
 _atom_site_pbe_bader_charge
 _atom_site_pbe_bader_spin_density
 _atom_site_pbe_cm5_charge
 _atom_site_pbe_ddec_charge
 _atom_site_pbe_ddec_spin_density
 _atom_site_pbe_ddec_sum_bond_order
 _atom_site_pbe_magmom
Zn  Zn0  1  0.05692290  0.95764878  0.48544201  1  1.323861  0  0.678988  0.985166  0  2.353111  0
Zn  Zn1  1  0.05692329  0.09927998  0.45764388  1  1.323266  0  0.679035  0.985344  0  2.35306  0
Zn  Zn2  1  0.94307428  0.98543873  0.45764323  1  1.323901  0  0.678943  0.984989  0  2.353237  0
Zn  Zn3  1  0.94308700  0.95764196  0.59928054  1  1.323256  0  0.679177  0.985477  0  2.35291  0
Zn  Zn4  1  0.94307583  0.54234890  0.01456370  1  1.32386  0  0.679064  0.985137  0  2.353196  0
Zn  Zn5  1  0.05692778  0.51456074  0.04236243  1  1.3239  0  0.679052  0.985183  0  2.35303  0
Zn  Zn6  1  0.94307395  0.40071999  0.04236000  1  1.32342  0  0.679076  0.985336  0  2.353034  0
Zn  Zn7  1  0.05690569  0.54234598  0.90072978  1  1.323005  0  0.678972  0.985111  0  2.353128  0
H  H8  1  0.92399422  0.71481358  0.17540678  1  0.083676  0  0.11029  0.128654  0  0.991979  0
H  H9  1  0.07599009  0.67539412  0.21486064  1  0.083092  0  0.110207  0.128587  0  0.992252  0
H  H10  1  0.92399872  0.82459053  0.28515323  1  0.083621  0  0.110218  0.128617  0  0.992336  0
H  H11  1  0.07594908  0.78511153  0.32466399  1  0.08558  0  0.110215  0.128666  0  0.992079  0
H  H12  1  0.07600875  0.40057081  0.70918905  1  0.096577  0  0.11028  0.128582  0  0.992094  0
H  H13  1  0.92401184  0.20915441  0.90060541  1  0.095496  0  0.110226  0.128577  0  0.992363  0
H  H14  1  0.07595260  0.29083286  0.59941025  1  0.096242  0  0.11018  0.128673  0  0.992094  0
H  H15  1  0.92399871  0.09940252  0.79083872  1  0.096053  0  0.110317  0.128581  0  0.992351  0
H  H16  1  0.60975994  0.40058791  0.17537400  1  0.083742  0  0.110256  0.128831  0  0.991955  0
H  H17  1  0.60975516  0.20915759  0.21485948  1  0.083427  0  0.110245  0.128608  0  0.992323  0
H  H18  1  0.39024131  0.29083952  0.28513493  1  0.08371  0  0.110212  0.128615  0  0.99228  0
H  H19  1  0.39023432  0.09942311  0.32454974  1  0.084968  0  0.110255  0.128529  0  0.99226  0
H  H20  1  0.39025170  0.67536171  0.90058915  1  0.083742  0  0.110158  0.128677  0  0.992064  0
H  H21  1  0.39022842  0.71484355  0.70915343  1  0.083375  0  0.110287  0.128605  0  0.992269  0
H  H22  1  0.60977089  0.78514429  0.79084743  1  0.083214  0  0.110242  0.128582  0  0.992388  0
H  H23  1  0.60975005  0.82457056  0.59942215  1  0.084144  0  0.110258  0.128689  0  0.992165  0
C  C24  1  0.18109970  0.09055656  0.40945406  1  1.586429  0  0.222169  0.619791  0  4.155612  0
C  C25  1  0.99999243  0.13684144  0.36315230  1  1.615413  0  0.230216  0.629525  0  4.120389  0
C  C26  1  0.99999095  0.90945734  0.40944720  1  1.607516  0  0.222174  0.619693  0  4.155054  0
C  C27  1  0.81890264  0.90944865  0.59055865  1  1.586751  0  0.222184  0.619635  0  4.155579  0
C  C28  1  0.00001194  0.86315390  0.63684454  1  1.616173  0  0.230202  0.62936  0  4.120385  0
C  C29  1  0.99999212  0.09054826  0.59055176  1  1.637149  0  0.222309  0.61972  0  4.155372  0
C  C30  1  0.00000388  0.59053541  0.09055997  1  1.608274  0  0.222202  0.619607  0  4.155592  0
C  C31  1  0.00000669  0.36315730  0.13685317  1  1.614753  0  0.230124  0.629348  0  4.120269  0
C  C32  1  0.81889783  0.40944215  0.09053815  1  1.586322  0  0.222204  0.619706  0  4.155126  0
C  C33  1  0.99998961  0.40943764  0.90946273  1  1.637371  0  0.22218  0.619727  0  4.155645  0
C  C34  1  0.99998888  0.63683596  0.86315965  1  1.615621  0  0.230137  0.629215  0  4.120411  0
C  C35  1  0.18109591  0.59054101  0.90944422  1  1.586867  0  0.222249  0.619686  0  4.154894  0
C  C36  1  0.00000610  0.80507300  0.69492776  1  0.056785  0  -0.015231  -0.097207  0  3.841052  0
C  C37  1  0.99999661  0.69492032  0.80507740  1  0.058009  0  -0.015279  -0.096896  0  3.840418  0
C  C38  1  0.95722586  0.77687367  0.76590009  1  -0.027706  0  -0.014288  0.050146  0  3.870872  0
C  C39  1  0.04278064  0.72312188  0.73410264  1  -0.027566  0  -0.014242  0.050044  0  3.87097  0
C  C40  1  0.95722511  0.72312119  0.81965364  1  -0.032641  0  -0.014291  0.050008  0  3.87074  0
C  C41  1  0.04278445  0.77687741  0.68035195  1  -0.032579  0  -0.014288  0.050043  0  3.871241  0
C  C42  1  0.99999851  0.19492206  0.30507537  1  0.056808  0  -0.015334  -0.097183  0  3.840835  0
C  C43  1  0.00000057  0.30507767  0.19492972  1  0.057245  0  -0.015205  -0.097122  0  3.840874  0
C  C44  1  0.95722023  0.18035141  0.27686913  1  -0.031635  0  -0.01423  0.050047  0  3.870835  0
C  C45  1  0.04277872  0.31965130  0.22313440  1  -0.031932  0  -0.014275  0.050001  0  3.870692  0
C  C46  1  0.95722089  0.23410587  0.22311940  1  -0.027833  0  -0.014168  0.050286  0  3.87072  0
C  C47  1  0.04277800  0.26589314  0.27688686  1  -0.026831  0  -0.014169  0.0503  0  3.870377  0
C  C48  1  0.99999960  0.62803688  0.12806076  1  0.064431  0  -0.018747  -0.131706  0  3.851821  0
C  C49  1  0.95745037  0.65805313  0.13604336  1  -0.161547  0  0.000528  0.124529  0  3.898821  0
C  C50  1  0.95735783  0.69276611  0.17068172  1  0.134094  0  -0.089893  -0.190615  0  3.933936  0
C  C51  1  0.99999274  0.69954539  0.19957217  1  0.074606  0  0.00901  0.182139  0  4.113301  0
C  C52  1  0.04263058  0.67066437  0.19280302  1  0.13458  0  -0.089804  -0.190511  0  3.934564  0
C  C53  1  0.04254455  0.63602971  0.15809005  1  -0.162362  0  0.000689  0.124692  0  3.899159  0
C  C54  1  0.99999082  0.73478038  0.23480517  1  -0.059692  0  -0.029369  -0.084691  0  4.069981  0
C  C55  1  0.99998532  0.76518949  0.26522272  1  -0.273395  0  -0.029222  -0.084334  0  4.069955  0
C  C56  1  0.99998295  0.80042404  0.30045728  1  0.074257  0  0.008912  0.181735  0  4.113772  0
C  C57  1  0.95735416  0.82931932  0.30721287  1  0.13389  0  -0.089794  -0.190398  0  3.93471  0
C  C58  1  0.95744505  0.86395780  0.34191995  1  -0.162106  0  0.000613  0.12466  0  3.898731  0
C  C59  1  0.99998726  0.87194321  0.37195860  1  0.064757  0  -0.018694  -0.131888  0  3.851783  0
C  C60  1  0.04251113  0.84189901  0.36400205  1  -0.161358  0  0.000428  0.124678  0  3.899351  0
C  C61  1  0.04260089  0.80718170  0.32936791  1  0.132203  0  -0.089704  -0.190523  0  3.93442  0
C  C62  1  0.00000726  0.37193296  0.87196709  1  0.040284  0  -0.018947  -0.131967  0  3.851747  0
C  C63  1  0.04255851  0.40648890  0.79940140  1  -0.139251  0  0.00077  0.124859  0  3.898557  0
C  C64  1  0.04264305  0.37194255  0.76459904  1  0.11487  0  -0.089956  -0.190571  0  3.933998  0
C  C65  1  0.00000219  0.30042599  0.80045492  1  0.065821  0  0.009011  0.181942  0  4.11343  0
C  C66  1  0.95737047  0.26456521  0.87197398  1  0.116242  0  -0.089796  -0.190436  0  3.934557  0
C  C67  1  0.95746473  0.29936564  0.90652297  1  -0.139855  0  0.000543  0.124649  0  3.899011  0
C  C68  1  0.99999632  0.26519509  0.76521825  1  -0.061653  0  -0.029378  -0.084618  0  4.069988  0
C  C69  1  0.99998544  0.23478513  0.73480265  1  -0.274414  0  -0.029084  -0.084222  0  4.069788  0
C  C70  1  0.99998173  0.19955383  0.69956656  1  0.066112  0  0.008805  0.181628  0  4.113796  0
C  C71  1  0.04260096  0.23541868  0.62804549  1  0.116273  0  -0.08978  -0.190522  0  3.934297  0
C  C72  1  0.04251040  0.20061679  0.59349678  1  -0.140818  0  0.00057  0.124788  0  3.89896  0
C  C73  1  0.99998267  0.12805027  0.62805205  1  0.041067  0  -0.018807  -0.132081  0  3.851799  0
C  C74  1  0.95743970  0.09348760  0.70062375  1  -0.140052  0  0.000659  0.124818  0  3.898537  0
C  C75  1  0.95735225  0.12803259  0.73542627  1  0.115267  0  -0.089909  -0.190443  0  3.934526  0
C  C76  1  0.74389595  0.37194252  0.12804817  1  0.077877  0  -0.018685  -0.131999  0  3.851893  0
C  C77  1  0.70588760  0.40650284  0.13601480  1  -0.167278  0  0.00055  0.124813  0  3.899181  0
C  C78  1  0.63653833  0.37195513  0.17065051  1  0.138415  0  -0.089887  -0.190836  0  3.934562  0
C  C79  1  0.60087888  0.30043442  0.19955135  1  0.110724  0  0.008871  0.181813  0  4.113918  0
C  C80  1  0.63653504  0.26456901  0.19279836  1  0.002232  0  -0.08986  -0.190425  0  3.934756  0
C  C81  1  0.70588218  0.29936785  0.15809341  1  -0.036637  0  0.000561  0.12469  0  3.898948  0
C  C82  1  0.53041210  0.26520369  0.23477618  1  -0.351347  0  -0.029229  -0.084498  0  4.069994  0
C  C83  1  0.46958452  0.23479516  0.26518666  1  -0.02942  0  -0.029241  -0.084402  0  4.07002  0
C  C84  1  0.39911808  0.19956684  0.30041836  1  0.110652  0  0.008977  0.18188  0  4.113431  0
C  C85  1  0.36346209  0.23542827  0.30718912  1  0.001692  0  -0.089767  -0.190476  0  3.934509  0
C  C86  1  0.29411341  0.20062839  0.34189953  1  -0.036245  0  0.000554  0.12463  0  3.899044  0
C  C87  1  0.25610036  0.12806326  0.37192494  1  0.076714  0  -0.018863  -0.13193  0  3.851649  0
C  C88  1  0.29410873  0.09350766  0.36391810  1  -0.166104  0  0.000768  0.124827  0  3.898407  0
C  C89  1  0.36345614  0.12805092  0.32929055  1  0.138059  0  -0.089986  -0.190477  0  3.934055  0
C  C90  1  0.25609822  0.62804107  0.87194224  1  0.078333  0  -0.018756  -0.132121  0  3.851718  0
C  C91  1  0.29411891  0.63601156  0.90650048  1  -0.167062  0  0.000568  0.124786  0  3.899144  0
C  C92  1  0.36346694  0.67064444  0.87195474  1  0.138249  0  -0.089707  -0.190494  0  3.934559  0
C  C93  1  0.39911798  0.69954513  0.80043235  1  0.109419  0  0.008807  0.181738  0  4.11381  0
C  C94  1  0.36345394  0.69278330  0.76456772  1  0.004001  0  -0.089823  -0.190397  0  3.934414  0
C  C95  1  0.29410483  0.65807613  0.79936862  1  -0.037592  0  0.000615  0.1248  0  3.898744  0
C  C96  1  0.46958646  0.73477861  0.76520132  1  -0.031635  0  -0.029292  -0.08457  0  4.070264  0
C  C97  1  0.53041116  0.76519046  0.73480207  1  -0.349015  0  -0.029232  -0.084382  0  4.070131  0
C  C98  1  0.60088081  0.80042354  0.69957377  1  0.110862  0  0.008951  0.181771  0  4.113543  0
C  C99  1  0.63654572  0.80719660  0.73543452  1  0.002823  0  -0.089722  -0.190282  0  3.934644  0
C  C100  1  0.70589656  0.84191120  0.70063098  1  -0.037279  0  0.000493  0.124567  0  3.899148  0
C  C101  1  0.74390128  0.87193712  0.62806322  1  0.07709  0  -0.018837  -0.13196  0  3.851554  0
C  C102  1  0.70588352  0.86394160  0.59350442  1  -0.165839  0  0.00069  0.124803  0  3.898418  0
C  C103  1  0.63653494  0.82930558  0.62805199  1  0.137909  0  -0.08996  -0.19066  0  3.934185  0
Br  Br104  1  0.89697882  0.80873967  0.79427511  1  0.024676  0  0.034589  -0.025912  0  1.66727  0
Br  Br105  1  0.10302274  0.69125404  0.70572608  1  0.027204  0  0.034505  -0.026001  0  1.667419  0
Br  Br106  1  0.89697951  0.69125638  0.91176747  1  0.027309  0  0.034478  -0.026062  0  1.667258  0
Br  Br107  1  0.10305082  0.80876247  0.58823883  1  0.025102  0  0.03458  -0.025912  0  1.6674  0
Br  Br108  1  0.89697644  0.08824077  0.30872228  1  0.022081  0  0.034622  -0.025855  0  1.667251  0
Br  Br109  1  0.10301574  0.41176034  0.19128935  1  0.021649  0  0.034608  -0.025862  0  1.66735  0
Br  Br110  1  0.89697472  0.20573182  0.19124215  1  0.029609  0  0.034415  -0.026134  0  1.667344  0
Br  Br111  1  0.10302751  0.29426899  0.30875906  1  0.029892  0  0.034454  -0.026128  0  1.667384  0
Br  Br112  1  0.89507270  0.65619125  0.10183882  1  -0.016566  0  0.026211  -0.051307  0  1.454209  0
Br  Br113  1  0.10492584  0.60183976  0.15624710  1  -0.016631  0  0.026228  -0.051299  0  1.454055  0
Br  Br114  1  0.89508407  0.89817326  0.34374166  1  -0.014944  0  0.02622  -0.051317  0  1.454055  0
Br  Br115  1  0.10485105  0.84369618  0.39825611  1  -0.014877  0  0.026283  -0.05127  0  1.45413  0
Br  Br116  1  0.10495233  0.50305641  0.73887681  1  -0.017059  0  0.026243  -0.05131  0  1.454081  0
Br  Br117  1  0.89510463  0.23883198  0.00310030  1  -0.016947  0  0.026297  -0.051265  0  1.454045  0
Br  Br118  1  0.10486238  0.26115017  0.49691518  1  -0.01629  0  0.026296  -0.051294  0  1.454094  0
Br  Br119  1  0.89507467  0.99691353  0.76114653  1  -0.016632  0  0.026221  -0.051324  0  1.454087  0
Br  Br120  1  0.74193335  0.50307904  0.10179397  1  -0.011149  0  0.026229  -0.05134  0  1.454184  0
Br  Br121  1  0.74192290  0.23882973  0.15628777  1  -0.015714  0  0.026253  -0.051303  0  1.454045  0
Br  Br122  1  0.25806984  0.26115848  0.34373046  1  -0.016876  0  0.026264  -0.051261  0  1.454013  0
Br  Br123  1  0.25806217  0.99694505  0.39806724  1  -0.013633  0  0.026183  -0.051376  0  1.454088  0
Br  Br124  1  0.25808415  0.60178336  0.00308410  1  -0.011238  0  0.026258  -0.051322  0  1.454024  0
Br  Br125  1  0.25805234  0.65626500  0.73883036  1  -0.01568  0  0.026237  -0.051289  0  1.454081  0
Br  Br126  1  0.74195054  0.84375074  0.76116129  1  -0.015877  0  0.026281  -0.051225  0  1.4542  0
Br  Br127  1  0.74192275  0.89812670  0.49693260  1  -0.013423  0  0.026221  -0.051324  0  1.454055  0
O  O128  1  0.00000198  0.00000349  0.50000103  1  -1.234789  0  -0.571514  -1.033884  0  2.524128  0
O  O129  1  0.15181496  0.02576110  0.43438018  1  -1.165073  0  -0.313833  -0.542526  0  2.442601  0
O  O130  1  0.03951992  0.15385838  0.38562242  1  -1.176621  0  -0.313587  -0.540311  0  2.480954  0
O  O131  1  0.96007743  0.93432995  0.41385473  1  -1.166254  0  -0.314063  -0.542575  0  2.442352  0
O  O132  1  0.15181467  0.12606091  0.41384135  1  -1.166479  0  -0.3141  -0.54267  0  2.442676  0
O  O133  1  0.03991570  0.91388420  0.43431108  1  -1.16514  0  -0.313974  -0.542548  0  2.442316  0
O  O134  1  0.96046273  0.07485093  0.38565471  1  -1.175797  0  -0.313332  -0.540006  0  2.480783  0
O  O135  1  0.84818237  0.93435838  0.52576406  1  -1.165038  0  -0.313883  -0.542411  0  2.442474  0
O  O136  1  0.96053561  0.88566833  0.65386389  1  -1.176387  0  -0.313591  -0.54023  0  2.480983  0
O  O137  1  0.84819223  0.91383525  0.62606582  1  -1.166892  0  -0.314135  -0.542645  0  2.442727  0
O  O138  1  0.03948922  0.88561074  0.57485269  1  -1.176503  0  -0.313368  -0.540004  0  2.480931  0
O  O139  1  0.03989431  0.12605264  0.52576244  1  -1.178232  0  -0.314008  -0.542551  0  2.442543  0
O  O140  1  0.96010229  0.02575717  0.62605841  1  -1.178454  0  -0.314161  -0.542669  0  2.442573  0
O  O141  1  0.99999739  0.49999497  0.00000573  1  -1.234695  0  -0.571565  -1.033798  0  2.524027  0
O  O142  1  0.96011068  0.58614841  0.06565578  1  -1.165526  0  -0.314034  -0.542523  0  2.442544  0
O  O143  1  0.03954732  0.42514839  0.11433890  1  -1.175648  0  -0.313338  -0.540011  0  2.480736  0
O  O144  1  0.84817943  0.37393801  0.08613223  1  -1.165688  0  -0.314115  -0.542666  0  2.44217  0
O  O145  1  0.03989942  0.56564118  0.08617685  1  -1.166439  0  -0.313987  -0.542498  0  2.442694  0
O  O146  1  0.84818316  0.47422936  0.06565679  1  -1.16581  0  -0.313909  -0.542415  0  2.442587  0
O  O147  1  0.96046940  0.34614038  0.11439183  1  -1.176543  0  -0.313545  -0.540214  0  2.480803  0
O  O148  1  0.96010267  0.37393092  0.97425445  1  -1.17902  0  -0.314115  -0.542619  0  2.442745  0
O  O149  1  0.03950516  0.61436201  0.84613762  1  -1.176542  0  -0.31345  -0.540081  0  2.480913  0
O  O150  1  0.03986014  0.47423431  0.87394910  1  -1.177917  0  -0.313785  -0.542501  0  2.442598  0
O  O151  1  0.96047014  0.61433662  0.92515085  1  -1.176177  0  -0.313347  -0.539945  0  2.480978  0
O  O152  1  0.15181667  0.56567216  0.97423081  1  -1.165431  0  -0.31402  -0.542483  0  2.442291  0
O  O153  1  0.15180493  0.58612869  0.87394307  1  -1.166625  0  -0.31413  -0.542621  0  2.442286  0
