# generated using pymatgen
data_Cr2Cd3H40(C6N5)4
_symmetry_space_group_name_H-M   'P 1'
_cell_length_a   7.63018992
_cell_length_b   7.80005016
_cell_length_c   15.97194527
_cell_angle_alpha   95.73789420
_cell_angle_beta   96.14608536
_cell_angle_gamma   91.42057220
_symmetry_Int_Tables_number   1
_chemical_formula_structural   Cr2Cd3H40(C6N5)4
_chemical_formula_sum   'Cr2 Cd3 H40 C24 N20'
_cell_volume   939.77942748
_cell_formula_units_Z   1
loop_
 _symmetry_equiv_pos_site_id
 _symmetry_equiv_pos_as_xyz
  1  'x, y, z'
loop_
 _atom_site_type_symbol
 _atom_site_label
 _atom_site_symmetry_multiplicity
 _atom_site_fract_x
 _atom_site_fract_y
 _atom_site_fract_z
 _atom_site_occupancy
 _atom_site_hle17_ddec_charge
 _atom_site_hle17_ddec_spin_density
 _atom_site_hle17_ddec_sum_bond_order
 _atom_site_hle17_magmom
 _atom_site_hse06_10hf_ddec_charge
 _atom_site_hse06_10hf_ddec_spin_density
 _atom_site_hse06_10hf_ddec_sum_bond_order
 _atom_site_hse06_10hf_magmom
 _atom_site_hse06_ddec_charge
 _atom_site_hse06_ddec_spin_density
 _atom_site_hse06_ddec_sum_bond_order
 _atom_site_hse06_magmom
 _atom_site_pbe_cm5_charge
 _atom_site_pbe_ddec_charge
 _atom_site_pbe_ddec_spin_density
 _atom_site_pbe_ddec_sum_bond_order
 _atom_site_pbe_magmom
Cr  Cr0  1  0.00000238  0.00000698  0.49999971  1  0.681494  3.114645  3.616152  2.871  0.743121  2.831538  3.985617  2.64  0.7675  2.937295  3.958515  2.756  0.711401  0.7295  2.734972  4.004694  2.535
Cr  Cr1  1  0.49999838  0.50000047  0.00000058  1  0.662067  3.094505  3.663662  2.852  0.726445  2.813273  4.028536  2.625  0.747907  2.920237  4.003225  2.742  0.732327  0.714535  2.717022  4.046516  2.52
Cd  Cd2  1  0.41552012  0.64102343  0.33002566  1  1.048154  0.002595  1.782218  0.0  0.856129  0.005715  2.23595  0.001  0.902559  0.0046  2.19639  0.001  0.788206  0.823351  0.007021  2.262948  0.002
Cd  Cd3  1  0.58448080  0.35897471  0.66997598  1  1.04818  0.002595  1.782217  0.0  0.856169  0.005716  2.23595  0.001  0.902596  0.0046  2.196389  0.001  0.788219  0.823394  0.007022  2.262946  0.002
Cd  Cd4  1  0.99999662  0.00000050  0.99999958  1  1.083727  0.002224  1.893645  -0.002  0.890941  0.006987  2.373209  0.001  0.937516  0.005632  2.328318  0.0  0.816731  0.857899  0.008481  2.404214  0.001
H  H5  1  0.04008932  0.63150013  0.32756620  1  0.281858  -0.000433  0.917345  0.0  0.276556  -0.000333  0.968385  0.0  0.280372  -0.000401  0.967905  0.0  0.28678  0.273867  -0.000266  0.968715  0.0
H  H6  1  0.95991020  0.36849670  0.67243218  1  0.281809  -0.000434  0.917329  0.0  0.276617  -0.000334  0.968246  0.0  0.280434  -0.000401  0.967765  0.0  0.286802  0.273928  -0.000266  0.968576  0.0
H  H7  1  0.10627671  0.43283082  0.31919400  1  0.286443  0.000508  0.956288  0.0  0.273326  0.000579  1.018588  0.0  0.279521  0.000523  1.014568  0.0  0.279214  0.26892  0.000632  1.021472  0.0
H  H8  1  0.89372285  0.56716730  0.68080381  1  0.286477  0.000507  0.956216  0.0  0.273321  0.000579  1.018578  0.0  0.279515  0.000523  1.014558  0.0  0.279219  0.268914  0.000632  1.021463  0.0
H  H9  1  0.89752859  0.48404146  0.19865241  1  0.047461  -9.9e-05  0.92962  0.0  0.067333  -2.6e-05  0.990949  0.0  0.066747  -9.1e-05  0.992233  0.0  0.095803  0.067682  5.2e-05  0.990142  0.0
H  H10  1  0.10246840  0.51595796  0.80134721  1  0.047488  -0.0001  0.929648  0.0  0.067362  -2.5e-05  0.990955  0.0  0.066772  -9.1e-05  0.992245  0.0  0.095803  0.067711  5.2e-05  0.990148  0.0
H  H11  1  0.10593862  0.41145163  0.17369494  1  0.059938  0.000184  0.931534  0.0  0.078177  0.000213  0.994189  0.0  0.077949  0.000168  0.99534  0.0  0.101252  0.078243  0.000258  0.993511  0.0
H  H12  1  0.89405851  0.58855165  0.82630362  1  0.059965  0.000184  0.931414  0.0  0.0782  0.000213  0.994074  0.0  0.077976  0.000169  0.99522  0.0  0.101293  0.078266  0.000258  0.993398  0.0
H  H13  1  0.14633676  0.01948570  0.17035796  1  0.278637  0.000131  0.913823  0.0  0.27306  0.000165  0.968604  0.0  0.277649  0.000151  0.966292  0.0  0.291791  0.269786  0.000179  0.970307  0.0
H  H14  1  0.85366402  0.98050983  0.82963916  1  0.278611  0.000131  0.913838  0.0  0.273031  0.000165  0.968626  0.0  0.27762  0.000151  0.966312  0.0  0.291782  0.269757  0.000179  0.970329  0.0
H  H15  1  0.94771727  0.08992298  0.16873947  1  0.290413  0.000274  0.89265  0.0  0.286051  0.000321  0.941954  0.0  0.290883  0.000287  0.939378  0.0  0.297601  0.282626  0.000356  0.943799  0.0
H  H16  1  0.05228641  0.91007902  0.83126060  1  0.290411  0.000274  0.892638  0.0  0.286052  0.000321  0.941944  0.0  0.290883  0.000287  0.939366  0.0  0.297603  0.282626  0.000356  0.943795  0.0
H  H17  1  0.20810180  0.71350766  0.16419115  1  0.065616  -0.000247  0.964319  0.0  0.083287  -0.000228  1.028302  0.0  0.0829  -0.00028  1.030511  0.0  0.088593  0.083514  -0.000174  1.026853  0.0
H  H18  1  0.79189655  0.28649305  0.83580797  1  0.0656  -0.000248  0.964327  0.0  0.083287  -0.000228  1.02832  0.0  0.0829  -0.00028  1.030527  0.0  0.088584  0.083512  -0.000174  1.026871  0.0
H  H19  1  0.03050264  0.64054694  0.08862220  1  0.087973  -0.000178  0.942068  0.0  0.107511  -0.000169  0.996225  0.0  0.106987  -0.00024  0.999244  0.0  0.097707  0.107842  -0.000101  0.994167  0.0
H  H20  1  0.96949440  0.35945377  0.91137749  1  0.087973  -0.000178  0.942016  0.0  0.10753  -0.000169  0.99618  0.0  0.107007  -0.00024  0.999199  0.0  0.097706  0.107859  -0.000101  0.994121  0.0
H  H21  1  0.55434353  0.38788678  0.43303856  1  0.296163  0.000516  0.918963  0.0  0.287331  0.00056  0.972665  0.0  0.292913  0.000503  0.969343  0.0  0.287219  0.283364  0.000612  0.975043  0.0
H  H22  1  0.44565596  0.61210877  0.56696226  1  0.296192  0.000515  0.918922  0.0  0.287359  0.00056  0.972625  0.0  0.292941  0.000503  0.969303  0.0  0.287245  0.283394  0.000612  0.974996  0.0
H  H23  1  0.38604362  0.29416339  0.37139880  1  0.280742  0.000432  0.931991  0.0  0.271503  0.000436  0.989667  0.0  0.276565  0.000371  0.987497  0.0  0.284576  0.267911  0.000498  0.991196  0.0
H  H24  1  0.61395722  0.70583345  0.62860027  1  0.280729  0.000432  0.931991  0.0  0.271488  0.000436  0.989672  0.0  0.27655  0.000371  0.987502  0.0  0.284572  0.267896  0.000498  0.991201  0.0
H  H25  1  0.82047303  0.80485772  0.16388099  1  0.058478  -0.000433  0.936648  0.0  0.079652  -0.000393  0.994818  0.0  0.078618  -0.000444  0.996958  0.0  0.103071  0.08034  -0.000341  0.993372  0.0
H  H26  1  0.17952268  0.19514299  0.83611738  1  0.058518  -0.000433  0.936734  0.0  0.079702  -0.000393  0.994874  0.0  0.078671  -0.000444  0.997012  0.0  0.103093  0.08039  -0.000341  0.993426  0.0
H  H27  1  0.97377855  0.85548170  0.25505030  1  0.036863  -0.000399  0.946157  0.0  0.054584  -0.000333  1.012597  0.0  0.053834  -0.000392  1.01408  0.0  0.090271  0.055113  -0.000263  1.011588  0.0
H  H28  1  0.02621849  0.14451901  0.74494939  1  0.036884  -0.000399  0.946216  0.0  0.054582  -0.000334  1.012679  0.0  0.053834  -0.000392  1.014162  0.0  0.090262  0.055105  -0.000263  1.011674  0.0
H  H29  1  0.70511152  0.19881189  0.35348454  1  0.041127  -0.000829  0.954563  0.0  0.060637  -0.000656  1.019104  0.0  0.059363  -0.000784  1.021052  0.0  0.091455  0.06152  -0.000519  1.017765  0.0
H  H30  1  0.29489061  0.80118367  0.64651640  1  0.041145  -0.000829  0.954517  0.0  0.060625  -0.000656  1.019069  0.0  0.059354  -0.000784  1.02101  0.0  0.091458  0.061513  -0.000519  1.017736  0.0
H  H31  1  0.71216459  0.38723874  0.30167223  1  0.05549  0.000409  0.938606  0.0  0.071383  0.000486  1.00473  0.0  0.071533  0.000426  1.004721  0.0  0.097823  0.071192  0.000555  1.004903  0.0
H  H32  1  0.28783753  0.61275682  0.69832809  1  0.055494  0.000408  0.938593  0.0  0.071375  0.000486  1.004713  0.0  0.071522  0.000426  1.004705  0.0  0.097802  0.071191  0.000555  1.004882  0.0
H  H33  1  0.30040542  0.99500271  0.31692883  1  0.280633  0.00025  0.945363  0.0  0.272396  0.000261  1.00096  0.0  0.27686  0.000148  0.99973  0.0  0.282401  0.269204  0.000368  1.00192  0.0
H  H34  1  0.69959416  0.00499542  0.68307148  1  0.280635  0.00025  0.945355  0.0  0.272389  0.000261  1.00097  0.0  0.276855  0.000148  0.999734  0.0  0.282392  0.269198  0.000368  1.001925  0.0
H  H35  1  0.49556176  0.98474403  0.36945902  1  0.287094  -0.000139  0.90104  0.0  0.283566  -0.000132  0.947315  0.0  0.287213  -0.000177  0.947222  0.0  0.294741  0.281038  -8.7e-05  0.947294  0.0
H  H36  1  0.50443782  0.01525410  0.63054129  1  0.287113  -0.000139  0.901015  0.0  0.283586  -0.000132  0.947285  0.0  0.287233  -0.000177  0.94719  0.0  0.294753  0.281058  -8.7e-05  0.947272  0.0
H  H37  1  0.39854116  0.24352183  0.22146936  1  0.076273  3.7e-05  0.939085  0.0  0.094456  6.1e-05  1.000334  0.0  0.094814  3.2e-05  1.001321  0.0  0.092494  0.094142  9.2e-05  0.99976  0.0
H  H38  1  0.60146106  0.75647630  0.77853108  1  0.076381  3.7e-05  0.939038  0.0  0.094533  6.1e-05  1.000314  0.0  0.094886  3.2e-05  1.001299  0.0  0.092531  0.094219  9.2e-05  0.999736  0.0
H  H39  1  0.60072476  0.20588846  0.18254931  1  0.087733  -0.000311  0.935169  0.0  0.107822  -0.000222  0.988975  0.0  0.107451  -0.000296  0.991285  0.0  0.096958  0.108055  -0.000145  0.987403  0.0
H  H40  1  0.39927867  0.79410709  0.81745045  1  0.087703  -0.000311  0.935089  0.0  0.107812  -0.000222  0.988893  0.0  0.107437  -0.000296  0.9912  0.0  0.096921  0.108045  -0.000145  0.987324  0.0
H  H41  1  0.43222828  0.93189817  0.18279091  1  0.056037  -8.1e-05  0.928197  0.0  0.078497  -6.2e-05  0.985232  0.0  0.078044  -9.3e-05  0.986417  0.0  0.102647  0.078728  -2.8e-05  0.984542  0.0
H  H42  1  0.56777130  0.06809997  0.81720941  1  0.055999  -8.2e-05  0.928175  0.0  0.078464  -6.2e-05  0.98524  0.0  0.078012  -9.3e-05  0.986426  0.0  0.102624  0.078696  -2.8e-05  0.984542  0.0
H  H43  1  0.63639134  0.93510820  0.24494793  1  0.056436  0.000219  0.941342  0.0  0.075254  0.000225  1.005983  0.0  0.074814  0.0002  1.007389  0.0  0.102304  0.075496  0.000254  1.005077  0.0
H  H44  1  0.36360941  0.06488606  0.75505225  1  0.056461  0.000218  0.941356  0.0  0.075322  0.000225  1.00596  0.0  0.074884  0.000199  1.007368  0.0  0.102332  0.075562  0.000254  1.005055  0.0
C  C45  1  0.03930643  0.52045181  0.20383973  1  0.09693  0.000157  3.6458  0.0  0.03838  0.000368  3.915996  0.0  0.043224  0.000239  3.928583  0.0  -0.075108  0.035182  0.000504  3.907094  0.0
C  C46  1  0.96069450  0.47954760  0.79615883  1  0.096795  0.000159  3.645834  0.0  0.038289  0.000369  3.91603  0.0  0.043132  0.000239  3.928622  0.0  -0.075154  0.035091  0.000504  3.907138  0.0
C  C47  1  0.06644550  0.67715199  0.15657940  1  -0.173729  -0.0002  3.68076  0.0  -0.207515  -7.5e-05  3.932127  0.0  -0.210442  -0.000249  3.947972  0.0  -0.171277  -0.205321  0.000112  3.921083  0.0
C  C48  1  0.93355030  0.32285129  0.84341910  1  -0.173685  -0.0002  3.680688  0.0  -0.207571  -7.5e-05  3.93218  0.0  -0.210494  -0.000249  3.948021  0.0  -0.171297  -0.205366  0.000112  3.921112  0.0
C  C49  1  0.96101322  0.83118533  0.18534104  1  0.094216  -0.000233  3.646622  0.0  0.034807  -0.00021  3.916146  0.0  0.039826  -0.0003  3.929253  0.0  -0.078009  0.031415  -0.000116  3.90698  0.0
C  C50  1  0.03899040  0.16881537  0.81465771  1  0.094118  -0.000233  3.646645  0.0  0.034722  -0.00021  3.916214  0.0  0.039742  -0.000301  3.929312  0.0  -0.078021  0.031334  -0.000116  3.907045  0.0
C  C51  1  0.62235821  0.28612317  0.31743026  1  0.090555  8.4e-05  3.631597  0.0  0.032201  0.000342  3.897588  0.0  0.037518  0.00016  3.910376  0.0  -0.080114  0.028637  0.000517  3.888581  0.0
C  C52  1  0.37764396  0.71387367  0.68257012  1  0.09055  8.4e-05  3.631612  0.0  0.032279  0.000342  3.897518  0.0  0.037599  0.00016  3.910284  0.0  -0.08004  0.028711  0.000517  3.888522  0.0
C  C53  1  0.52760028  0.18732636  0.23685949  1  -0.178024  9.3e-05  3.662952  0.0  -0.211824  0.000243  3.918279  0.0  -0.213981  0.000107  3.931965  0.0  -0.169331  -0.210201  0.000396  3.90879  0.0
C  C54  1  0.47240321  0.81267048  0.76314095  1  -0.178071  9.3e-05  3.662986  0.0  -0.21189  0.000243  3.918382  0.0  -0.214024  0.000108  3.93204  0.0  -0.169323  -0.210271  0.000396  3.908897  0.0
C  C55  1  0.82398379  0.82903636  0.42953892  1  -0.078596  -0.114603  3.381015  -0.098  -0.124124  -0.048214  3.712187  -0.056  -0.119613  -0.062938  3.720711  -0.064  -0.02034  -0.128072  -0.035729  3.706711  -0.049
C  C56  1  0.17602145  0.17097208  0.57046153  1  -0.078631  -0.114606  3.380776  -0.098  -0.124168  -0.048216  3.711951  -0.056  -0.119658  -0.062941  3.720472  -0.064  -0.020335  -0.128122  -0.035728  3.706485  -0.049
C  C57  1  0.50649207  0.99303395  0.24147846  1  0.082071  0.000359  3.659152  0.0  0.019228  0.000527  3.931978  0.0  0.024311  0.000418  3.944167  0.0  -0.078876  0.015826  0.000648  3.923504  0.0
C  C58  1  0.49350741  0.00696160  0.75852110  1  0.08207  0.000364  3.659185  0.0  0.019148  0.000527  3.932132  0.0  0.024217  0.000418  3.944328  0.0  -0.078909  0.01575  0.000648  3.923654  0.0
C  C59  1  0.19623835  0.83353889  0.48126320  1  -0.049165  -0.108246  3.350149  -0.094  -0.097411  -0.045699  3.676841  -0.055  -0.090989  -0.060081  3.683427  -0.063  -0.009868  -0.102845  -0.033454  3.672962  -0.048
C  C60  1  0.80376004  0.16646309  0.51873474  1  -0.049177  -0.108254  3.350357  -0.094  -0.097428  -0.045701  3.677061  -0.055  -0.091006  -0.060082  3.683644  -0.063  -0.009919  -0.102875  -0.033455  3.673187  -0.048
C  C61  1  0.52384325  0.56029939  0.12671927  1  -0.034808  -0.109489  3.355213  -0.095  -0.084948  -0.045461  3.689731  -0.056  -0.077174  -0.060284  3.696386  -0.063  0.005121  -0.091235  -0.032958  3.685695  -0.048
C  C62  1  0.47615503  0.43969875  0.87328224  1  -0.034793  -0.109485  3.355244  -0.095  -0.084924  -0.04546  3.689751  -0.056  -0.077152  -0.060281  3.696407  -0.063  0.005146  -0.091207  -0.032956  3.685715  -0.048
C  C63  1  0.05728382  0.11481624  0.39699442  1  -0.083391  -0.11139  3.379465  -0.096  -0.122641  -0.046317  3.70995  -0.056  -0.120533  -0.061106  3.717535  -0.063  -0.015738  -0.124931  -0.033747  3.70526  -0.049
C  C64  1  0.94272569  0.88519996  0.60301037  1  -0.083457  -0.111368  3.379582  -0.096  -0.122706  -0.046311  3.710057  -0.056  -0.120601  -0.061089  3.717646  -0.063  -0.015772  -0.124986  -0.033739  3.705362  -0.049
C  C65  1  0.30628409  0.33123415  0.01723871  1  -0.026767  -0.112557  3.358609  -0.097  -0.072254  -0.047201  3.681854  -0.057  -0.065886  -0.062284  3.690839  -0.065  0.001554  -0.077432  -0.034505  3.675971  -0.049
C  C66  1  0.69370784  0.66877044  0.98276341  1  -0.02678  -0.112555  3.358782  -0.097  -0.072273  -0.047198  3.682031  -0.057  -0.065905  -0.062283  3.691015  -0.065  0.001509  -0.077452  -0.034498  3.676157  -0.049
C  C67  1  0.67142342  0.30743810  0.01429649  1  -0.045761  -0.116227  3.372051  -0.099  -0.091047  -0.049117  3.700521  -0.057  -0.086113  -0.06398  3.710416  -0.065  -0.005909  -0.095149  -0.036539  3.693868  -0.05
C  C68  1  0.32857098  0.69256261  0.98570307  1  -0.045772  -0.116226  3.372192  -0.099  -0.09105  -0.04912  3.700648  -0.057  -0.086117  -0.06398  3.710547  -0.065  -0.005869  -0.095152  -0.03654  3.693996  -0.05
N  N69  1  0.11473875  0.54861579  0.29377748  1  -0.649381  0.001319  3.090975  0.001  -0.590638  0.001889  3.335716  0.002  -0.611165  0.001403  3.337362  0.001  -0.628676  -0.575988  0.002489  3.334043  0.002
N  N70  1  0.88525833  0.45138621  0.70622227  1  -0.649304  0.001318  3.090861  0.001  -0.590653  0.001888  3.335566  0.002  -0.611176  0.001402  3.33721  0.001  -0.628683  -0.576003  0.002488  3.333892  0.002
N  N71  1  0.01787973  0.98678448  0.14834150  1  -0.629244  0.00063  3.09839  0.0  -0.578889  0.001526  3.351267  0.001  -0.597586  0.001136  3.350934  0.001  -0.624632  -0.565503  0.002037  3.35109  0.002
N  N72  1  0.98211856  0.01321493  0.85165693  1  -0.629194  0.000629  3.098297  0.0  -0.578821  0.001525  3.351155  0.001  -0.597535  0.001136  3.350859  0.001  -0.624635  -0.565437  0.002037  3.350981  0.002
N  N73  1  0.49676570  0.37149452  0.37150524  1  -0.64172  0.001202  3.0809  0.001  -0.582763  0.002182  3.326417  0.002  -0.60361  0.001621  3.327114  0.002  -0.630323  -0.567863  0.002892  3.325453  0.003
N  N74  1  0.50323647  0.62850232  0.62849514  1  -0.641756  0.001201  3.080885  0.001  -0.582809  0.002181  3.326374  0.002  -0.603659  0.00162  3.32707  0.002  -0.630363  -0.567908  0.002891  3.325408  0.003
N  N75  1  0.71963753  0.72934085  0.39147492  1  -0.384793  0.094598  2.912907  0.091  -0.316971  0.0738  3.197394  0.068  -0.33199  0.071841  3.209706  0.067  -0.357666  -0.306247  0.076307  3.188758  0.07
N  N76  1  0.28036501  0.27066504  0.60852966  1  -0.384787  0.094602  2.912786  0.091  -0.316962  0.073804  3.197277  0.068  -0.331979  0.071845  3.209585  0.067  -0.357687  -0.306236  0.076311  3.188648  0.07
N  N77  1  0.42090162  0.94041823  0.31408285  1  -0.640752  0.000896  3.099882  0.001  -0.582154  0.001483  3.33969  0.002  -0.602677  0.001105  3.343765  0.001  -0.632445  -0.567576  0.001949  3.336428  0.002
N  N78  1  0.57910187  0.05957861  0.68591760  1  -0.640765  0.000896  3.099804  0.001  -0.582131  0.001483  3.339618  0.002  -0.602651  0.001105  3.343698  0.001  -0.632441  -0.567552  0.001949  3.336358  0.002
N  N79  1  0.30793625  0.73751619  0.46621289  1  -0.414081  0.087881  2.918439  0.085  -0.342923  0.070189  3.192387  0.066  -0.357919  0.068152  3.20293  0.065  -0.367003  -0.332352  0.072623  3.185195  0.067
N  N80  1  0.69205806  0.26248194  0.53378654  1  -0.414103  0.087896  2.91861  0.085  -0.342951  0.0702  3.192565  0.066  -0.357947  0.068161  3.203106  0.065  -0.366996  -0.332385  0.072635  3.185375  0.067
N  N81  1  0.52597411  0.58842922  0.20031898  1  -0.401643  0.093534  2.997665  0.09  -0.32883  0.074055  3.302451  0.069  -0.34629  0.071949  3.313755  0.068  -0.362101  -0.316523  0.076562  3.294633  0.071
N  N82  1  0.47402807  0.41156763  0.79968327  1  -0.401652  0.093531  2.997758  0.09  -0.328845  0.074053  3.302548  0.069  -0.346305  0.071946  3.313852  0.068  -0.362116  -0.316543  0.076559  3.294733  0.071
N  N83  1  0.10090606  0.18238755  0.33948609  1  -0.397598  0.089778  2.839978  0.087  -0.344373  0.070547  3.097073  0.066  -0.354554  0.0689  3.109437  0.065  -0.351979  -0.337179  0.072653  3.088724  0.067
N  N84  1  0.89910435  0.81761832  0.66051450  1  -0.397561  0.08975  2.840063  0.087  -0.34432  0.070527  3.097138  0.066  -0.3545  0.068875  3.109504  0.065  -0.351924  -0.337121  0.072631  3.088785  0.067
N  N85  1  0.19912824  0.23111920  0.03140100  1  -0.403421  0.096757  2.984326  0.093  -0.329886  0.076533  3.278083  0.071  -0.347359  0.074338  3.289334  0.07  -0.367193  -0.317473  0.079189  3.270153  0.073
N  N86  1  0.80086363  0.76888410  0.96859980  1  -0.403442  0.096761  2.984524  0.093  -0.329887  0.076537  3.27824  0.071  -0.347359  0.074341  3.289492  0.07  -0.367174  -0.317473  0.079191  3.270317  0.073
N  N87  1  0.76802364  0.19391332  0.02155227  1  -0.404078  0.097565  2.952241  0.093  -0.33416  0.076243  3.242914  0.07  -0.351019  0.074063  3.254936  0.069  -0.363214  -0.322047  0.078979  3.234306  0.072
N  N88  1  0.23197074  0.80608738  0.97844478  1  -0.404043  0.09756  2.952404  0.093  -0.334138  0.07624  3.2431  0.07  -0.350996  0.074058  3.255122  0.069  -0.363238  -0.322024  0.078975  3.23449  0.072
