# generated using pymatgen
data_ZnH10C13I2N3O4
_symmetry_space_group_name_H-M   'P 1'
_cell_length_a   7.93706910
_cell_length_b   8.97300594
_cell_length_c   15.20276932
_cell_angle_alpha   87.20108805
_cell_angle_beta   83.31677010
_cell_angle_gamma   83.03890384
_symmetry_Int_Tables_number   1
_chemical_formula_structural   ZnH10C13I2N3O4
_chemical_formula_sum   'Zn2 H20 C26 I4 N6 O8'
_cell_volume   1066.78487817
_cell_formula_units_Z   2
loop_
 _symmetry_equiv_pos_site_id
 _symmetry_equiv_pos_as_xyz
  1  'x, y, z'
loop_
 _atom_site_type_symbol
 _atom_site_label
 _atom_site_symmetry_multiplicity
 _atom_site_fract_x
 _atom_site_fract_y
 _atom_site_fract_z
 _atom_site_occupancy
 _atom_site_pbe_bader_charge
 _atom_site_pbe_bader_spin_density
 _atom_site_pbe_cm5_charge
 _atom_site_pbe_ddec_charge
 _atom_site_pbe_ddec_spin_density
 _atom_site_pbe_ddec_sum_bond_order
 _atom_site_pbe_magmom
Zn  Zn0  1  0.69000891  0.49631509  0.47833258  1  1.315947  0  0.680635  0.881282  0  2.300055  0
Zn  Zn1  1  0.31006889  0.49591913  0.52526391  1  1.316077  0  0.681349  0.882488  0  2.307437  0
H  H2  1  0.33613334  0.86345870  0.08543958  1  0.065834  0  0.103682  0.113717  0  1.055579  0
H  H3  1  0.15844877  0.93638884  0.26228175  1  0.060476  0  0.08601  0.088896  0  1.041535  0
H  H4  1  0.08972741  0.75526999  0.28889986  1  0.036755  0  0.084062  0.089304  0  1.006105  0
H  H5  1  0.12808844  0.81753815  0.17624930  1  0.031807  0  0.101351  0.111553  0  1.011367  0
H  H6  1  0.34226231  0.91558896  0.85049161  1  0.413032  0  0.266391  0.204615  0  1.109795  0
H  H7  1  0.19094601  0.11504266  0.91774156  1  0.053697  0  0.10963  0.120395  0  0.970016  0
H  H8  1  0.30509868  0.07837298  0.01175454  1  0.041028  0  0.097304  0.103223  0  1.004271  0
H  H9  1  0.11964898  0.98672936  0.00367304  1  0.04916  0  0.100697  0.107738  0  0.998785  0
H  H10  1  0.64247180  0.04708944  0.13144078  1  0.387059  0  0.261048  0.213513  0  1.047824  0
H  H11  1  0.92884502  0.04329040  0.15725710  1  0.032325  0  0.095842  0.107985  0  1.007474  0
H  H12  1  0.82611388  0.22680417  0.18217083  1  0.052089  0  0.075883  0.077126  0  1.034948  0
H  H13  1  0.71363447  0.14759793  0.92303027  1  0.066463  0  0.105369  0.112374  0  1.017931  0
H  H14  1  0.95229184  0.19512425  0.07848470  1  0.008407  0  0.095465  0.106177  0  0.992087  0
H  H15  1  0.95623359  0.50063246  0.59170352  1  0.46011  0  0.321493  0.275166  0  0.923702  0
H  H16  1  0.04391552  0.49910370  0.41053076  1  0.447417  0  0.320993  0.2762  0  0.925621  0
H  H17  1  0.61342486  0.14683056  0.80995319  1  0.396007  0  0.2862  0.222966  0  1.002925  0
H  H18  1  0.91191095  0.21658670  0.76371304  1  0.013824  0  0.08425  0.085445  0  0.993698  0
H  H19  1  0.82410336  0.29263399  0.66575184  1  0.064544  0  0.092023  0.110414  0  1.036828  0
H  H20  1  0.82535792  0.09876894  0.69278882  1  0.075438  0  0.0858  0.09192  0  1.044316  0
H  H21  1  0.38773249  0.74560722  0.30038471  1  0.417031  0  0.295093  0.246665  0  0.956116  0
C  C22  1  0.45586797  0.78407069  0.49476711  1  1.617302  0  0.196305  0.600979  0  4.201299  0
C  C23  1  0.40535708  0.62452321  0.19122266  1  0.394367  0  0.095055  0.168141  0  3.971446  0
C  C24  1  0.55660804  0.50739924  0.76681626  1  0.021317  0  -0.029437  -0.146202  0  3.97267  0
C  C25  1  0.44749808  0.48778996  0.23673719  1  0.053149  0  -0.032148  -0.156592  0  4.01255  0
C  C26  1  0.51070232  0.64162898  0.81172270  1  -0.222201  0  -0.041461  -0.005476  0  3.832856  0
C  C27  1  0.49760089  0.35571933  0.19077583  1  -0.216994  0  -0.048735  -0.007439  0  3.873973  0
C  C28  1  0.47403539  0.64555477  0.90536252  1  0.030745  0  -0.015664  -0.053747  0  3.956477  0
C  C29  1  0.53136656  0.35597228  0.09740745  1  -0.016803  0  -0.019671  -0.050106  0  4.000596  0
C  C30  1  0.51108173  0.50552884  0.95450164  1  0.011859  0  0.00199  0.024912  0  3.910677  0
C  C31  1  0.48655481  0.49537294  0.04967861  1  -0.010283  0  -0.005208  0.004264  0  3.923068  0
C  C32  1  0.57869413  0.37265971  0.90823117  1  -0.072734  0  -0.016387  -0.00647  0  4.042506  0
C  C33  1  0.54634234  0.20809988  0.50519105  1  1.617707  0  0.205463  0.615753  0  4.166993  0
C  C34  1  0.42151597  0.62820109  0.09658794  1  0.007831  0  -0.012443  0.018385  0  4.050107  0
C  C35  1  0.39792439  0.77528966  0.95646556  1  0.429954  0  0.104748  0.212728  0  4.059618  0
C  C36  1  0.62244108  0.23152683  0.04780281  1  0.361854  0  0.079245  0.185729  0  4.022912  0
C  C37  1  0.80963334  0.21052952  0.72087559  1  0.239087  0  -0.152862  -0.215817  0  3.95494  0
C  C38  1  0.17252452  0.81950689  0.24169215  1  0.265217  0  -0.14853  -0.222849  0  3.966167  0
C  C39  1  0.23323100  0.02721725  0.96568058  1  0.308886  0  -0.132929  -0.210117  0  3.967649  0
C  C40  1  0.86263337  0.14563231  0.12885482  1  0.260714  0  -0.156003  -0.219715  0  3.997823  0
C  C41  1  0.38117719  0.76320746  0.04854239  1  0.011244  0  -0.118228  -0.263034  0  3.995529  0
C  C42  1  0.63957971  0.24224093  0.95719503  1  0.002659  0  -0.097185  -0.214198  0  4.002264  0
C  C43  1  0.43678626  0.95329151  0.49776565  1  -0.225766  0  -0.076216  -0.116653  0  3.82841  0
C  C44  1  0.56411894  0.03922958  0.49952057  1  -0.208642  0  -0.072849  -0.114704  0  3.817685  0
C  C45  1  0.45225579  0.48805764  0.33562633  1  1.565608  0  0.208953  0.608232  0  4.197364  0
C  C46  1  0.54577818  0.50230399  0.66819110  1  1.602977  0  0.214717  0.627503  0  4.162158  0
C  C47  1  0.59249528  0.37172986  0.81440289  1  0.436827  0  0.096016  0.17206  0  4.001717  0
I  I48  1  0.51966909  0.83590397  0.72413780  1  0.117795  0  0.135811  0.029378  0  1.741181  0
I  I49  1  0.47117277  0.15566466  0.26992787  1  0.11348  0  0.122278  0.011979  0  1.732296  0
I  I50  1  0.17657708  0.04274281  0.50061593  1  0.228184  0  0.105653  0.062652  0  2.142923  0
I  I51  1  0.82256332  0.94382391  0.49432526  1  0.21847  0  0.107089  0.051665  0  2.153198  0
N  N52  1  0.04130734  0.49767276  0.53438916  1  -0.453979  0  -0.270858  -0.177003  0  3.149824  0
N  N53  1  0.95870831  0.50019147  0.46785126  1  -0.45504  0  -0.26984  -0.180625  0  3.152083  0
N  N54  1  0.63820096  0.23715577  0.76944489  1  -1.106532  0  -0.463512  -0.316341  0  3.49361  0
N  N55  1  0.35302709  0.75699765  0.23777444  1  -1.123707  0  -0.460134  -0.316132  0  3.478391  0
N  N56  1  0.33679490  0.90772749  0.91749231  1  -1.214582  0  -0.446536  -0.266853  0  3.657147  0
N  N57  1  0.71844408  0.10470015  0.08642450  1  -1.075415  0  -0.492602  -0.379543  0  3.472163  0
O  O58  1  0.59840523  0.71935303  0.46103593  1  -1.169257  0  -0.315603  -0.538782  0  2.421799  0
O  O59  1  0.39512256  0.27482950  0.51348042  1  -1.165549  0  -0.313664  -0.540817  0  2.478993  0
O  O60  1  0.32654262  0.71990515  0.52584537  1  -1.164104  0  -0.322671  -0.554936  0  2.42901  0
O  O61  1  0.68287371  0.26996770  0.50086633  1  -1.156606  0  -0.319094  -0.542339  0  2.385699  0
O  O62  1  0.60213169  0.46959506  0.35891877  1  -1.147146  0  -0.312774  -0.53305  0  2.318156  0
O  O63  1  0.39971281  0.48294344  0.64830610  1  -1.151528  0  -0.307527  -0.524315  0  2.283646  0
O  O64  1  0.31271766  0.51275947  0.38637066  1  -1.176788  0  -0.315591  -0.569158  0  2.324459  0
O  O65  1  0.67926297  0.51771042  0.61441387  1  -1.188104  0  -0.317529  -0.58051  0  2.365396  0
