# generated using pymatgen
data_Al2H7C20S2Br2O10F
_symmetry_space_group_name_H-M   'P 1'
_cell_length_a   6.62512673
_cell_length_b   11.18796562
_cell_length_c   12.75665352
_cell_angle_alpha   81.74965480
_cell_angle_beta   74.78830233
_cell_angle_gamma   71.60541374
_symmetry_Int_Tables_number   1
_chemical_formula_structural   Al2H7C20S2Br2O10F
_chemical_formula_sum   'Al2 H7 C20 S2 Br2 O10 F1'
_cell_volume   863.89202169
_cell_formula_units_Z   1
loop_
 _symmetry_equiv_pos_site_id
 _symmetry_equiv_pos_as_xyz
  1  'x, y, z'
loop_
 _atom_site_type_symbol
 _atom_site_label
 _atom_site_symmetry_multiplicity
 _atom_site_fract_x
 _atom_site_fract_y
 _atom_site_fract_z
 _atom_site_occupancy
 _atom_site_pbe_bader_charge
 _atom_site_pbe_bader_spin_density
 _atom_site_pbe_cm5_charge
 _atom_site_pbe_ddec_charge
 _atom_site_pbe_ddec_spin_density
 _atom_site_pbe_ddec_sum_bond_order
 _atom_site_pbe_magmom
Al  Al0  1  0.49898947  0.50177259  0.50128250  1  2.502421  0  0.390574  1.643255  0  2.568653  0
Al  Al1  1  0.99973961  0.49876185  0.50304240  1  2.500807  0  0.392953  1.64293  0  2.561176  0
H  H2  1  0.29038117  0.35556496  0.58277274  1  0.633595  0  0.333277  0.41357  0  0.894644  0
H  H3  1  0.70269324  0.65481502  0.44641814  1  0.600528  0  0.345993  0.421872  0  0.873681  0
H  H4  1  0.70253395  0.55128255  0.14760261  1  0.129757  0  0.116056  0.139438  0  0.995002  0
H  H5  1  0.21013685  0.23924007  0.34467711  1  0.091969  0  0.104373  0.110088  0  1.036582  0
H  H6  1  0.54499389  0.12501340  0.21956000  1  0.05259  0  0.103764  0.100169  0  0.991732  0
H  H7  1  0.42928748  0.76969515  0.34951971  1  0.060051  0  0.106449  0.10924  0  1.036502  0
H  H8  1  0.65408761  0.88939438  0.22172982  1  0.088368  0  0.105081  0.102271  0  0.985093  0
C  C9  1  0.86102224  0.27569058  0.49422966  1  1.640026  0  0.27132  0.657266  0  4.099886  0
C  C10  1  0.65968769  0.49719353  0.69724916  1  1.590547  0  0.254418  0.661086  0  4.151811  0
C  C11  1  0.13324984  0.72621700  0.50927084  1  1.596334  0  0.271434  0.661403  0  4.087999  0
C  C12  1  0.33657939  0.50153864  0.30665728  1  1.607319  0  0.255931  0.632662  0  4.152491  0
C  C13  1  0.41612364  0.46939617  0.88735121  1  0.601083  0  0.099793  0.251383  0  4.08039  0
C  C14  1  0.58175650  0.52651818  0.11823654  1  0.016857  0  -0.086636  -0.129881  0  3.962808  0
C  C15  1  0.59427183  0.49877310  0.81608807  1  -0.146974  0  -0.033102  -0.245854  0  3.966595  0
C  C16  1  0.40104975  0.49886940  0.18756422  1  -0.165243  0  -0.018675  -0.117627  0  3.965991  0
C  C17  1  0.58507361  0.51665836  0.00859734  1  -0.152664  0  -0.020958  0.000896  0  4.086149  0
C  C18  1  0.40715526  0.47992570  0.99739208  1  -0.137506  0  -0.034471  -0.139777  0  4.115058  0
C  C19  1  0.93055461  0.13402349  0.49779691  1  -0.013498  0  -0.009089  -0.110564  0  3.923534  0
C  C20  1  0.12590000  0.07010391  0.42404697  1  0.033894  0  0.001891  0.067583  0  3.952179  0
C  C21  1  0.80734183  0.06643752  0.57256803  1  0.013146  0  -0.015707  0.038479  0  3.947403  0
C  C22  1  0.25723056  0.13661285  0.34718395  1  -0.045318  0  -0.088001  -0.125392  0  3.956077  0
C  C23  1  0.44495010  0.07245662  0.27699641  1  0.041193  0  -0.089135  -0.076743  0  4.030865  0
C  C24  1  0.06019043  0.86790119  0.50520871  1  0.008594  0  -0.010484  -0.114134  0  3.920725  0
C  C25  1  0.87313888  0.93237775  0.57685763  1  -0.067606  0  -0.017689  0.038584  0  3.961906  0
C  C26  1  0.19060363  0.93479733  0.42695990  1  0.006612  0  0.001754  0.071809  0  3.951477  0
C  C27  1  0.38175807  0.87205576  0.35100301  1  -0.035102  0  -0.092654  -0.137528  0  3.969263  0
C  C28  1  0.50683541  0.93938925  0.27851949  1  -0.092351  0  -0.08892  -0.07561  0  4.031759  0
S  S29  1  0.75724657  0.53796281  0.88465490  1  0.306361  0  0.099441  0.165542  0  2.832171  0
S  S30  1  0.23470686  0.45916909  0.12095234  1  0.285235  0  0.09885  0.155787  0  2.774414  0
Br  Br31  1  0.71280426  0.84089755  0.68523556  1  -0.015875  0  0.044978  -0.032732  0  1.551295  0
Br  Br32  1  0.55727164  0.15235542  0.67612723  1  -0.021851  0  0.064233  -0.01745  0  1.539903  0
O  O33  1  0.67972820  0.33327175  0.46957239  1  -1.255922  0  -0.230255  -0.578542  0  2.339251  0
O  O34  1  0.84400167  0.51703493  0.65242713  1  -1.250773  0  -0.242095  -0.593485  0  2.350072  0
O  O35  1  0.00825297  0.67164129  0.48821282  1  -1.261305  0  -0.230703  -0.590406  0  2.358734  0
O  O36  1  0.46187225  0.53049493  0.35307363  1  -1.259134  0  -0.23477  -0.579291  0  2.331889  0
O  O37  1  0.31991540  0.67184646  0.52941181  1  -1.254606  0  -0.229082  -0.578813  0  2.331113  0
O  O38  1  0.15715574  0.47659203  0.35310624  1  -1.252073  0  -0.237217  -0.579932  0  2.338891  0
O  O39  1  0.98960962  0.32715614  0.51603089  1  -1.252821  0  -0.226117  -0.578573  0  2.341785  0
O  O40  1  0.53057755  0.47517321  0.64915248  1  -1.250227  0  -0.241149  -0.601782  0  2.381954  0
O  O41  1  0.25962249  0.44020340  0.54759330  1  -1.441005  0  -0.450007  -0.986753  0  2.2202  0
O  O42  1  0.74029362  0.56329321  0.45539009  1  -1.404293  0  -0.450348  -0.984634  0  2.184583  0
F  F43  1  0.26741021  0.43189587  0.85677482  1  -0.631136  0  -0.0853  -0.109809  0  1.41841  0
