# generated using pymatgen
data_MgH5C8O5
_symmetry_space_group_name_H-M   'P 1'
_cell_length_a   12.56620439
_cell_length_b   12.47402054
_cell_length_c   12.47402112
_cell_angle_alpha   75.30406264
_cell_angle_beta   59.75558028
_cell_angle_gamma   59.75542793
_symmetry_Int_Tables_number   1
_chemical_formula_structural   MgH5C8O5
_chemical_formula_sum   'Mg4 H20 C32 O20'
_cell_volume   1459.24362796
_cell_formula_units_Z   4
loop_
 _symmetry_equiv_pos_site_id
 _symmetry_equiv_pos_as_xyz
  1  'x, y, z'
loop_
 _atom_site_type_symbol
 _atom_site_label
 _atom_site_symmetry_multiplicity
 _atom_site_fract_x
 _atom_site_fract_y
 _atom_site_fract_z
 _atom_site_occupancy
 _atom_site_pbe_bader_charge
 _atom_site_pbe_bader_spin_density
 _atom_site_pbe_cm5_charge
 _atom_site_pbe_ddec_charge
 _atom_site_pbe_ddec_spin_density
 _atom_site_pbe_ddec_sum_bond_order
 _atom_site_pbe_magmom
Mg  Mg0  1  0.32022036  0.35955901  0.99999942  1  1.700632  0  0.833686  1.415177  0  1.36021  0
Mg  Mg1  1  0.67977506  0.64044269  0.00000581  1  1.701112  0  0.833692  1.415204  0  1.360234  0
Mg  Mg2  1  0.07022650  0.49999287  0.85955627  1  1.701102  0  0.833667  1.415157  0  1.36031  0
Mg  Mg3  1  0.42977415  0.50000500  0.14044564  1  1.700576  0  0.833649  1.415172  0  1.360236  0
H  H4  1  0.00930118  0.19076449  0.93994419  1  0.084582  0  0.101161  0.100439  0  1.024843  0
H  H5  1  0.06668141  0.60414543  0.99919481  1  0.634199  0  0.319199  0.406735  0  0.910908  0
H  H6  1  0.14000658  0.80923914  0.06005709  1  0.087183  0  0.101171  0.100461  0  1.024925  0
H  H7  1  0.67002193  0.39585108  0.00080925  1  0.641456  0  0.3192  0.406749  0  0.910875  0
H  H8  1  0.69924339  0.56004656  0.69077349  1  0.086541  0  0.101179  0.100548  0  1.024922  0
H  H9  1  0.81588176  0.50080439  0.10414217  1  0.642406  0  0.319252  0.406798  0  0.910822  0
H  H10  1  0.95006311  0.43995094  0.30923855  1  0.066651  0  0.101182  0.100496  0  1.024871  0
H  H11  1  0.42082949  0.49919410  0.89585656  1  0.660387  0  0.319252  0.406778  0  0.910844  0
H  H12  1  0.60999475  0.43994432  0.69075840  1  0.087238  0  0.101159  0.100434  0  1.024939  0
H  H13  1  0.07997414  0.49919466  0.10414694  1  0.641445  0  0.319212  0.406767  0  0.910865  0
H  H14  1  0.74070481  0.56004976  0.30923053  1  0.084551  0  0.10114  0.100447  0  1.024829  0
H  H15  1  0.68331382  0.50080284  0.89585822  1  0.634163  0  0.319199  0.406682  0  0.910969  0
H  H16  1  0.79993748  0.19076179  0.06004968  1  0.066743  0  0.101184  0.100489  0  1.02492  0
H  H17  1  0.32916427  0.60414863  0.00080797  1  0.660331  0  0.319231  0.406771  0  0.910841  0
H  H18  1  0.05075800  0.80922754  0.93994860  1  0.086591  0  0.101163  0.100474  0  1.024924  0
H  H19  1  0.93411920  0.39585269  0.99919327  1  0.642387  0  0.319254  0.406824  0  0.910757  0
H  H20  1  0.37039877  0.99999481  0.99998828  1  0.125162  0  0.119163  0.12943  0  0.986358  0
H  H21  1  0.12038620  0.50000655  0.50000683  1  0.125987  0  0.119148  0.129376  0  0.98639  0
H  H22  1  0.37959959  0.50001545  0.50000347  1  0.125167  0  0.119188  0.129445  0  0.986315  0
H  H23  1  0.62961181  0.99999721  0.99999413  1  0.125964  0  0.119149  0.129432  0  0.986302  0
C  C24  1  0.07822388  0.10707223  0.96924376  1  -0.049395  0  -0.07953  -0.135303  0  3.928838  0
C  C25  1  0.18678992  0.10881896  0.97299918  1  -0.006302  0  -0.017355  -0.040672  0  3.983683  0
C  C26  1  0.19601579  0.22866836  0.94980918  1  1.581816  0  0.237721  0.647335  0  4.1596  0
C  C27  1  0.15453334  0.89292971  0.03075696  1  -0.057076  0  -0.07964  -0.135431  0  3.928996  0
C  C28  1  0.26861240  0.89117974  0.02698894  1  -0.009818  0  -0.017279  -0.04061  0  3.983518  0
C  C29  1  0.37449967  0.77133058  0.05017917  1  1.591422  0  0.237574  0.647211  0  4.159726  0
C  C30  1  0.79746308  0.53075596  0.60707637  1  -0.050411  0  -0.079644  -0.135545  0  3.929062  0
C  C31  1  0.90978685  0.52699418  0.60882781  1  -0.021103  0  -0.017269  -0.040695  0  3.983566  0
C  C32  1  0.89582522  0.55017832  0.72867253  1  1.59277  0  0.237672  0.647317  0  4.159421  0
C  C33  1  0.93529303  0.46924727  0.39292936  1  -0.028431  0  -0.079586  -0.135381  0  3.928824  0
C  C34  1  0.04560317  0.47300928  0.39118423  1  -0.01437  0  -0.017297  -0.040656  0  3.983661  0
C  C35  1  0.17467252  0.44982074  0.27133365  1  1.570154  0  0.237623  0.647226  0  4.15955  0
C  C36  1  0.59546451  0.46924248  0.60707015  1  -0.05702  0  -0.079607  -0.135315  0  3.928862  0
C  C37  1  0.48138844  0.47301172  0.60881942  1  -0.00985  0  -0.017286  -0.040653  0  3.983731  0
C  C38  1  0.37550809  0.44982076  0.72866860  1  1.591591  0  0.237645  0.647235  0  4.159456  0
C  C39  1  0.67177371  0.53075607  0.39292809  1  -0.049466  0  -0.079522  -0.1353  0  3.929083  0
C  C40  1  0.56321783  0.52699750  0.39117622  1  -0.00637  0  -0.017373  -0.040837  0  3.983835  0
C  C41  1  0.55398594  0.55018265  0.27133613  1  1.581809  0  0.237608  0.647294  0  4.159713  0
C  C42  1  0.81470956  0.10707062  0.03075242  1  -0.028411  0  -0.079608  -0.135399  0  3.928859  0
C  C43  1  0.70439687  0.10881866  0.02698979  1  -0.014372  0  -0.017285  -0.040637  0  3.983435  0
C  C44  1  0.57532238  0.22866829  0.05017763  1  1.570196  0  0.237564  0.647221  0  4.159644  0
C  C45  1  0.95253649  0.89292434  0.96924246  1  -0.050368  0  -0.079579  -0.13537  0  3.928958  0
C  C46  1  0.84021154  0.89117769  0.97300181  1  -0.021319  0  -0.017277  -0.040658  0  3.983597  0
C  C47  1  0.85416651  0.77132967  0.94982112  1  1.592934  0  0.237554  0.647204  0  4.159835  0
C  C48  1  0.05883512  0.99999787  0.99999762  1  -0.041439  0  -0.006919  0.072033  0  4.012265  0
C  C49  1  0.28376675  0.99999649  0.99999004  1  -0.028353  0  -0.064529  -0.084134  0  3.89813  0
C  C50  1  0.80883023  0.50000428  0.50000083  1  0.000363  0  -0.00697  0.072009  0  4.012209  0
C  C51  1  0.03376069  0.50000266  0.50000111  1  0.004819  0  -0.064388  -0.083841  0  3.897904  0
C  C52  1  0.69116939  0.50000125  0.49999631  1  -0.041246  0  -0.006929  0.071977  0  4.012138  0
C  C53  1  0.46623120  0.50000913  0.50000540  1  -0.028279  0  -0.064438  -0.083929  0  3.897734  0
C  C54  1  0.94116886  0.99999879  0.99999652  1  0.000452  0  -0.006944  0.07199  0  4.012194  0
C  C55  1  0.71623801  0.00000072  0.99999576  1  0.004865  0  -0.064477  -0.084064  0  3.897924  0
O  O56  1  0.27409121  0.23592011  0.98021381  1  -1.226031  0  -0.346404  -0.62955  0  2.20535  0
O  O57  1  0.11968272  0.31740862  0.90336313  1  -1.256904  0  -0.365642  -0.683933  0  2.274522  0
O  O58  1  0.49022296  0.76407553  0.01978495  1  -1.228692  0  -0.34633  -0.629453  0  2.205763  0
O  O59  1  0.34045106  0.68258917  0.09663180  1  -1.255806  0  -0.36561  -0.683907  0  2.274324  0
O  O60  1  0.00430274  0.51977589  0.73593031  1  -1.226163  0  -0.346422  -0.629535  0  2.205313  0
O  O61  1  0.77304131  0.59662543  0.81741780  1  -1.261686  0  -0.365656  -0.683997  0  2.274382  0
O  O62  1  0.26000675  0.48022520  0.26408066  1  -1.229044  0  -0.346381  -0.62953  0  2.20522  0
O  O63  1  0.18708385  0.40337619  0.18258666  1  -1.253749  0  -0.365648  -0.683948  0  2.274593  0
O  O64  1  0.25977055  0.48022496  0.73592187  1  -1.228927  0  -0.346399  -0.629502  0  2.205272  0
O  O65  1  0.40954329  0.40337268  0.81741292  1  -1.255806  0  -0.365638  -0.683929  0  2.274459  0
O  O66  1  0.47591084  0.51978083  0.26408053  1  -1.225949  0  -0.346325  -0.629477  0  2.205633  0
O  O67  1  0.63032772  0.59662818  0.18258351  1  -1.256839  0  -0.365657  -0.683992  0  2.274265  0
O  O68  1  0.48999180  0.23592550  0.01978212  1  -1.228976  0  -0.346331  -0.629466  0  2.205704  0
O  O69  1  0.56291862  0.31741437  0.09662766  1  -1.253839  0  -0.365606  -0.683939  0  2.274303  0
O  O70  1  0.74570331  0.76407205  0.98021886  1  -1.226252  0  -0.346304  -0.629415  0  2.205892  0
O  O71  1  0.97696020  0.68258011  0.90337518  1  -1.261645  0  -0.365626  -0.683966  0  2.274257  0
O  O72  1  0.37499761  0.51410581  0.98589421  1  -1.358178  0  -0.57971  -0.862623  0  2.145291  0
O  O73  1  0.87499975  0.48589549  0.01410647  1  -1.322252  0  -0.579722  -0.862667  0  2.145246  0
O  O74  1  0.11089843  0.51410450  0.01410810  1  -1.312793  0  -0.579653  -0.862581  0  2.145312  0
O  O75  1  0.63910685  0.48589296  0.98589672  1  -1.312822  0  -0.579645  -0.862499  0  2.145451  0
