# generated using pymatgen
data_MnCuH16C14(NO4)2
_symmetry_space_group_name_H-M   'P 1'
_cell_length_a   9.10397000
_cell_length_b   11.46281830
_cell_length_c   19.77487151
_cell_angle_alpha   89.98528208
_cell_angle_beta   97.54186763
_cell_angle_gamma   90.01085990
_symmetry_Int_Tables_number   1
_chemical_formula_structural   MnCuH16C14(NO4)2
_chemical_formula_sum   'Mn4 Cu4 H64 C56 N8 O32'
_cell_volume   2045.79703647
_cell_formula_units_Z   4
loop_
 _symmetry_equiv_pos_site_id
 _symmetry_equiv_pos_as_xyz
  1  'x, y, z'
loop_
 _atom_site_type_symbol
 _atom_site_label
 _atom_site_symmetry_multiplicity
 _atom_site_fract_x
 _atom_site_fract_y
 _atom_site_fract_z
 _atom_site_occupancy
 _atom_site_pbe_bader_charge
 _atom_site_pbe_bader_spin_density
 _atom_site_pbe_cm5_charge
 _atom_site_pbe_ddec_charge
 _atom_site_pbe_ddec_spin_density
 _atom_site_pbe_ddec_sum_bond_order
 _atom_site_pbe_magmom
Mn  Mn0  1  0.56036709  0.38232630  0.15489639  1  1.590006  -4.321386  0.650666  1.084611  -4.431113  2.369399  -4.266
Mn  Mn1  1  0.93938195  0.88213358  0.34506631  1  1.589282  -4.323503  0.64997  1.083947  -4.435122  2.368598  -4.268
Mn  Mn2  1  0.43974264  0.61793095  0.84506646  1  1.589102  -4.325068  0.649835  1.083968  -4.43683  2.366871  -4.269
Mn  Mn3  1  0.06067840  0.11775902  0.65486055  1  1.59093  -4.320009  0.651021  1.085071  -4.431008  2.369224  -4.265
Cu  Cu4  1  0.25254692  0.22307382  0.92138161  1  0.889466  0.372829  0.653927  0.600081  0.480158  2.150411  0.376
Cu  Cu5  1  0.24741478  0.72289860  0.57859135  1  0.889627  0.373855  0.654739  0.60142  0.481462  2.151404  0.377
Cu  Cu6  1  0.74739996  0.77718428  0.07864015  1  0.890805  0.374435  0.655398  0.601384  0.482181  2.153713  0.378
Cu  Cu7  1  0.75226586  0.27689799  0.42143118  1  0.88941  0.372403  0.653937  0.600217  0.479646  2.149729  0.376
H  H8  1  0.44989738  0.04561561  0.04680066  1  0.038351  -6.5e-05  0.089384  0.118915  1.5e-05  1.045043  0.0
H  H9  1  0.04956840  0.54545312  0.45297938  1  0.03563  -6.5e-05  0.089454  0.119304  1.6e-05  1.044787  0.0
H  H10  1  0.55018239  0.95486146  0.95323511  1  0.039059  -6.5e-05  0.089292  0.119752  1.5e-05  1.044445  0.0
H  H11  1  0.95029714  0.45421087  0.54706202  1  0.03776  -6.6e-05  0.089373  0.119221  1.6e-05  1.044635  0.0
H  H12  1  0.42199418  0.89857422  0.06910388  1  0.00146  0.000217  0.083863  0.108011  2.7e-05  1.051295  0.0
H  H13  1  0.07750635  0.39838724  0.43072791  1  0.042446  0.000214  0.083802  0.107759  2.7e-05  1.051599  0.0
H  H14  1  0.57797710  0.10179384  0.93070703  1  0.001034  0.000215  0.083896  0.108095  2.6e-05  1.051285  0.0
H  H15  1  0.92211029  0.60132128  0.56906147  1  -0.000602  0.000217  0.083945  0.107988  2.6e-05  1.051568  0.0
H  H16  1  0.46151298  0.00551215  0.13353375  1  0.042119  0.000538  0.091569  0.129132  0.000359  0.98445  0.0
H  H17  1  0.03844380  0.50537477  0.36626337  1  0.039158  0.000547  0.091265  0.128612  0.000363  0.984847  0.0
H  H18  1  0.53888814  0.99448428  0.86644668  1  0.043352  0.000542  0.09175  0.129174  0.000362  0.984187  0.0
H  H19  1  0.96164028  0.49471846  0.63370747  1  0.039457  0.000531  0.091389  0.128874  0.000354  0.984703  0.0
H  H20  1  0.26753997  0.83865882  0.19390580  1  0.045072  0.000573  0.093254  0.131855  0.000373  0.979663  0.0
H  H21  1  0.23214678  0.33864010  0.30596607  1  0.043655  0.000566  0.09314  0.131649  0.00037  0.979864  0.0
H  H22  1  0.73290714  0.16157580  0.80597285  1  0.043635  0.000556  0.093326  0.131827  0.000365  0.979656  0.0
H  H23  1  0.76792792  0.66115130  0.69396474  1  0.04399  0.000561  0.093062  0.131334  0.000366  0.980369  0.0
H  H24  1  0.29560334  0.78365568  0.11284135  1  0.041214  -0.000133  0.086904  0.116516  -0.000133  1.037424  0.0
H  H25  1  0.20389689  0.28346440  0.38699456  1  0.03575  -0.000138  0.087211  0.116713  -0.000136  1.037771  0.0
H  H26  1  0.70451530  0.21663039  0.88697844  1  0.038828  -0.000144  0.086929  0.116509  -0.000139  1.037819  0.0
H  H27  1  0.79584930  0.71623888  0.61287943  1  0.040301  -0.000132  0.086939  0.116514  -0.000134  1.037482  0.0
H  H28  1  0.12719585  0.75541835  0.14562798  1  0.03001  -0.000223  0.08971  0.121729  -0.000151  1.017989  0.0
H  H29  1  0.37233128  0.25527493  0.35426345  1  0.031751  -0.000226  0.089728  0.122206  -0.000153  1.017337  0.0
H  H30  1  0.87306245  0.24486683  0.85433826  1  0.026  -0.000231  0.089671  0.121878  -0.000157  1.018314  0.0
H  H31  1  0.62752364  0.74442310  0.64574895  1  0.033717  -0.000231  0.08953  0.121884  -0.000155  1.016976  0.0
H  H32  1  0.70626461  0.00666972  0.07170439  1  0.033911  -0.000525  0.080565  0.097979  -0.000488  1.080438  0.0
H  H33  1  0.79344839  0.50614858  0.42856846  1  0.03302  -0.000529  0.080823  0.098438  -0.000492  1.079576  0.0
H  H34  1  0.29377406  0.99362240  0.92833384  1  0.031871  -0.000527  0.080786  0.098315  -0.000491  1.079945  0.0
H  H35  1  0.20637647  0.49344912  0.57145012  1  0.034651  -0.000527  0.080815  0.098327  -0.000491  1.079903  0.0
H  H36  1  0.72906451  0.15368968  0.04667306  1  0.006976  -1.8e-05  0.089673  0.126031  -2.2e-05  1.019746  0.0
H  H37  1  0.77085450  0.65317152  0.45353718  1  0.050374  -1.5e-05  0.090028  0.126606  -2e-05  1.019212  0.0
H  H38  1  0.27113160  0.84655798  0.95329782  1  0.051109  -1.6e-05  0.089814  0.126541  -2.2e-05  1.019395  0.0
H  H39  1  0.22917117  0.34645063  0.54640721  1  0.04778  -1.1e-05  0.089699  0.126622  -2.1e-05  1.018689  0.0
H  H40  1  0.75183422  0.11558027  0.13426471  1  0.068947  6.5e-05  0.090872  0.13972  0.000293  1.01966  0.0
H  H41  1  0.74814591  0.61508763  0.36595920  1  0.072762  5.7e-05  0.090731  0.139276  0.000288  1.019537  0.0
H  H42  1  0.24829845  0.88477120  0.86572134  1  0.068906  5.4e-05  0.090973  0.139931  0.000288  1.019263  0.0
H  H43  1  0.25166418  0.38441673  0.63401091  1  0.074095  5.7e-05  0.090875  0.139682  0.000287  1.019957  0.0
H  H44  1  0.88156817  0.25565713  0.98512672  1  0.035384  0.000301  0.091282  0.129982  0.000143  1.021895  0.0
H  H45  1  0.61755044  0.75554870  0.51517586  1  0.035227  0.000306  0.091186  0.129834  0.000145  1.022035  0.0
H  H46  1  0.11826772  0.74446221  0.01503969  1  0.033394  0.00031  0.091494  0.130367  0.000148  1.021521  0.0
H  H47  1  0.38212801  0.24434470  0.48491581  1  0.033653  0.000303  0.091271  0.129829  0.000144  1.02204  0.0
H  H48  1  0.05144378  0.32172426  0.01905363  1  0.023435  -0.000229  0.088184  0.119709  -0.000165  1.026152  0.0
H  H49  1  0.44832205  0.82167472  0.48037626  1  0.025133  -0.000225  0.088511  0.120337  -0.000161  1.025523  0.0
H  H50  1  0.94858641  0.67847544  0.98074840  1  0.025083  -0.000227  0.08862  0.120371  -0.000164  1.025402  0.0
H  H51  1  0.55155280  0.17814462  0.51935724  1  0.024582  -0.000228  0.088408  0.119956  -0.000164  1.025634  0.0
H  H52  1  0.90677061  0.30516512  0.07015322  1  0.075338  -6.2e-05  0.095256  0.139917  0.00014  0.991713  0.0
H  H53  1  0.59407404  0.80427534  0.42998753  1  0.074358  -6e-05  0.09532  0.139917  0.000143  0.992303  0.0
H  H54  1  0.09367040  0.69545505  0.92990403  1  0.073849  -6.1e-05  0.095254  0.139781  0.000141  0.9923  0.0
H  H55  1  0.40613417  0.19502578  0.56998420  1  0.073088  -6.6e-05  0.095328  0.140178  0.000138  0.991956  0.0
H  H56  1  0.75893333  0.56076641  0.17323639  1  0.63301  -0.001171  0.298266  0.389089  -0.000705  0.952494  -0.002
H  H57  1  0.74065068  0.06041444  0.32688405  1  0.632889  -0.001172  0.298308  0.389221  -0.000706  0.952256  -0.002
H  H58  1  0.24081297  0.43949603  0.82677461  1  0.633541  -0.001171  0.298272  0.389384  -0.000708  0.9521  -0.002
H  H59  1  0.25893454  0.93925042  0.67307021  1  0.633072  -0.001168  0.298179  0.388665  -0.000705  0.953006  -0.002
H  H60  1  0.47253754  0.59940263  0.10219233  1  0.659369  -0.000946  0.297876  0.395185  -0.000557  0.939484  -0.002
H  H61  1  0.02713234  0.09896081  0.39775749  1  0.656284  -0.000966  0.297696  0.394876  -0.000565  0.939753  -0.002
H  H62  1  0.52739983  0.40121489  0.89780148  1  0.65906  -0.000947  0.297507  0.394043  -0.000564  0.940721  -0.002
H  H63  1  0.97260122  0.90058018  0.60221281  1  0.660866  -0.000943  0.297854  0.395011  -0.000556  0.93967  -0.002
H  H64  1  0.84685631  0.44606834  0.20084913  1  0.613896  -0.003279  0.336345  0.410649  -0.001791  0.862817  -0.002
H  H65  1  0.65246530  0.94544738  0.29978729  1  0.612767  -0.003264  0.336294  0.410204  -0.001796  0.862523  -0.002
H  H66  1  0.15267972  0.55453506  0.79976946  1  0.614428  -0.003251  0.336055  0.410172  -0.001792  0.862981  -0.002
H  H67  1  0.34701123  0.05380908  0.70072748  1  0.614545  -0.003269  0.336217  0.410034  -0.001789  0.862951  -0.002
H  H68  1  0.43741107  0.58728315  0.17864134  1  0.637479  -0.001874  0.332437  0.413621  -0.000953  0.860821  -0.001
H  H69  1  0.06248353  0.08704347  0.32132713  1  0.637968  -0.001886  0.332178  0.413149  -0.000968  0.861206  -0.002
H  H70  1  0.56250323  0.41310931  0.82133737  1  0.639388  -0.001873  0.332227  0.413461  -0.000966  0.861054  -0.002
H  H71  1  0.93735554  0.91266067  0.67863470  1  0.637212  -0.001883  0.332631  0.41385  -0.000958  0.860255  -0.001
C  C72  1  0.36810182  0.25754368  0.05706999  1  1.377032  -0.006961  0.219694  0.33391  -0.006817  4.199964  -0.005
C  C73  1  0.13179036  0.75730478  0.44290710  1  1.375987  -0.006985  0.219607  0.333812  -0.006833  4.201609  -0.005
C  C74  1  0.63202750  0.74283307  0.94298816  1  1.372538  -0.007018  0.219513  0.333048  -0.006825  4.200173  -0.005
C  C75  1  0.86817307  0.24247089  0.55711676  1  1.377304  -0.00693  0.219598  0.334029  -0.0068  4.201132  -0.005
C  C76  1  0.47080987  0.32451790  0.01587768  1  1.592492  -0.011576  0.224371  0.495825  -0.01127  4.190152  -0.011
C  C77  1  0.02900852  0.82410219  0.48412004  1  1.589988  -0.011543  0.224903  0.496879  -0.01122  4.191618  -0.011
C  C78  1  0.52916119  0.67597486  0.98415926  1  1.592091  -0.011569  0.225486  0.497345  -0.011237  4.190026  -0.011
C  C79  1  0.97077972  0.17554087  0.51590025  1  1.592187  -0.011579  0.224657  0.496327  -0.011274  4.190752  -0.011
C  C80  1  0.90555443  0.86025845  0.19893523  1  1.36498  -0.004935  0.215091  0.331585  -0.004703  4.206197  -0.004
C  C81  1  0.59416950  0.35988423  0.30100948  1  1.362253  -0.004921  0.215711  0.3325  -0.004692  4.204321  -0.004
C  C82  1  0.09476649  0.14001803  0.80092779  1  1.355953  -0.004912  0.215241  0.331556  -0.004713  4.205179  -0.004
C  C83  1  0.40577932  0.63972571  0.69888501  1  1.36274  -0.004934  0.215221  0.33222  -0.004685  4.205344  -0.004
C  C84  1  0.80701265  0.76304059  0.22067777  1  1.557696  -0.006213  0.215012  0.486086  -0.005764  4.222064  -0.006
C  C85  1  0.69268134  0.26262547  0.27933024  1  1.555524  -0.006056  0.214749  0.486431  -0.005608  4.221415  -0.006
C  C86  1  0.19340584  0.23728648  0.77925822  1  1.565432  -0.006051  0.215592  0.488154  -0.005605  4.220039  -0.006
C  C87  1  0.30727511  0.73689460  0.72064262  1  1.560559  -0.006234  0.214606  0.485444  -0.005791  4.222631  -0.006
C  C88  1  0.17455001  0.11804228  0.05339537  1  0.282982  0.014974  0.080723  0.117759  0.010097  4.002325  0.009
C  C89  1  0.32524601  0.61770899  0.44666385  1  0.288401  0.014873  0.0806  0.118274  0.010036  4.001175  0.008
C  C90  1  0.82561171  0.88234667  0.94671795  1  0.29033  0.014892  0.080818  0.118852  0.010047  4.001637  0.008
C  C91  1  0.67464619  0.38194626  0.55344549  1  0.282798  0.014938  0.080676  0.118028  0.010071  4.001323  0.009
C  C92  1  0.23810124  0.01333110  0.08131936  1  0.077347  0.008988  -0.014316  0.040517  0.00603  3.918754  0.005
C  C93  1  0.26164535  0.51306590  0.41868065  1  0.097227  0.009101  -0.013997  0.040948  0.006105  3.918997  0.005
C  C94  1  0.76211886  0.98704565  0.91874862  1  0.081786  0.009139  -0.013926  0.039826  0.006131  3.919658  0.005
C  C95  1  0.73827954  0.48659024  0.58139538  1  0.079508  0.008955  -0.014466  0.040554  0.006011  3.919713  0.005
C  C96  1  0.14755022  0.93224129  0.10936975  1  0.016529  0.008162  -0.013607  0.036889  0.005463  3.929518  0.004
C  C97  1  0.35213233  0.43199070  0.39058893  1  -0.005575  0.008092  -0.013627  0.036307  0.00541  3.930566  0.004
C  C98  1  0.85266391  0.06806220  0.89058407  1  0.014818  0.00805  -0.013371  0.036961  0.005395  3.930637  0.004
C  C99  1  0.64774039  0.56768639  0.60941955  1  0.013626  0.008175  -0.013064  0.037312  0.005469  3.930532  0.004
C  C100  1  0.99555856  0.95750935  0.10738388  1  0.295975  0.014936  0.079843  0.116825  0.010029  4.009908  0.009
C  C101  1  0.50414953  0.45720852  0.39258867  1  0.29509  0.014984  0.080196  0.117046  0.01005  4.008712  0.009
C  C102  1  0.00461028  0.04270343  0.89248766  1  0.292341  0.015045  0.079558  0.11652  0.010086  4.009532  0.009
C  C103  1  0.49569555  0.54249999  0.60734371  1  0.297112  0.014864  0.079927  0.116916  0.009986  4.008548  0.009
C  C104  1  0.93320741  0.06287879  0.08087428  1  0.061741  0.00562  -0.011788  0.04084  0.003776  3.94634  0.003
C  C105  1  0.56664205  0.56247121  0.41924759  1  0.035464  0.005458  -0.012153  0.041999  0.003668  3.946134  0.003
C  C106  1  0.06694309  0.93737671  0.91910533  1  0.037386  0.005477  -0.011821  0.04219  0.003683  3.946312  0.003
C  C107  1  0.43325608  0.43717185  0.58076706  1  0.060825  0.005562  -0.011732  0.04154  0.003736  3.947407  0.003
C  C108  1  0.02435302  0.14563897  0.05473856  1  0.006433  0.006997  -0.011856  0.038562  0.004664  3.944823  0.004
C  C109  1  0.47554522  0.64520957  0.44536854  1  0.014036  0.007089  -0.011601  0.037488  0.004728  3.945226  0.004
C  C110  1  0.97582025  0.85473167  0.94534566  1  0.010943  0.007122  -0.012199  0.037089  0.004745  3.946375  0.004
C  C111  1  0.52437176  0.35438463  0.55471660  1  0.006727  0.006963  -0.012079  0.038193  0.004642  3.945551  0.004
C  C112  1  0.40070183  0.98945743  0.08248856  1  -0.052978  -0.000212  -0.243872  -0.391933  -0.000123  3.980963  0.0
C  C113  1  0.09899894  0.48927173  0.41737416  1  -0.090247  -0.00021  -0.243628  -0.39148  -0.000123  3.981494  0.0
C  C114  1  0.59944623  0.01088008  0.91750606  1  -0.054428  -0.000215  -0.244132  -0.392601  -0.000124  3.980135  0.0
C  C115  1  0.90087208  0.51048911  0.58260184  1  -0.047987  -0.000213  -0.243781  -0.392007  -0.000121  3.982043  0.0
C  C116  1  0.21245929  0.82171041  0.14181622  1  -0.06607  -0.000427  -0.241894  -0.390251  -0.000402  3.98188  0.0
C  C117  1  0.28714161  0.32158028  0.35808561  1  -0.063952  -0.000432  -0.242245  -0.390711  -0.000408  3.982366  0.0
C  C118  1  0.78779111  0.17856344  0.85808833  1  -0.060254  -0.000428  -0.242307  -0.390646  -0.000406  3.982586  0.0
C  C119  1  0.71273397  0.67812648  0.64188259  1  -0.068907  -0.000432  -0.241764  -0.390075  -0.000407  3.982013  0.0
C  C120  1  0.77184252  0.08627212  0.08327836  1  -0.053837  -0.000678  -0.245599  -0.393723  -0.000783  3.954455  -0.001
C  C121  1  0.72801243  0.58579412  0.41692530  1  -0.074099  -0.000682  -0.245922  -0.394399  -0.000784  3.955203  -0.001
C  C122  1  0.22828566  0.91399821  0.91671045  1  -0.072721  -0.000682  -0.245887  -0.394977  -0.000784  3.954568  -0.001
C  C123  1  0.27187729  0.41381667  0.58305999  1  -0.099503  -0.000682  -0.245848  -0.394833  -0.000784  3.955144  -0.001
C  C124  1  0.96357135  0.26292667  0.03095210  1  -0.054324  -0.000315  -0.241165  -0.394357  -0.00035  3.960856  0.0
C  C125  1  0.53635016  0.76253614  0.46904463  1  -0.056522  -0.000315  -0.241905  -0.395122  -0.000349  3.962172  0.0
C  C126  1  0.03654720  0.73741257  0.96908514  1  -0.05478  -0.000315  -0.241857  -0.3953  -0.000349  3.961958  0.0
C  C127  1  0.46356950  0.23712263  0.53094106  1  -0.052245  -0.000314  -0.241475  -0.394941  -0.000349  3.961553  0.0
N  N128  1  0.26402208  0.19615921  0.02080159  1  -1.241732  0.054888  -0.386077  -0.406675  0.036529  3.664549  0.048
N  N129  1  0.23582571  0.69589832  0.47919202  1  -1.245647  0.055302  -0.385939  -0.406785  0.036799  3.665094  0.049
N  N130  1  0.73607349  0.80423149  0.97928678  1  -1.248125  0.055431  -0.386106  -0.406439  0.0369  3.66411  0.049
N  N131  1  0.76406407  0.30381975  0.52086002  1  -1.240798  0.054827  -0.385905  -0.406917  0.036484  3.664517  0.048
N  N132  1  0.90054304  0.87441491  0.13263505  1  -1.225302  0.047573  -0.384598  -0.40363  0.031778  3.649656  0.042
N  N133  1  0.59912052  0.37416057  0.36730469  1  -1.220944  0.046948  -0.38469  -0.404377  0.031365  3.647603  0.041
N  N134  1  0.09967396  0.12570105  0.86720569  1  -1.221364  0.046931  -0.384005  -0.403106  0.031354  3.649017  0.041
N  N135  1  0.40067218  0.62559244  0.63257378  1  -1.225302  0.047424  -0.384816  -0.404607  0.031677  3.647138  0.042
O  O136  1  0.39493108  0.26506534  0.12203465  1  -1.137463  -0.040385  -0.294663  -0.472675  -0.026185  2.272516  -0.008
O  O137  1  0.10501571  0.76493210  0.37794932  1  -1.138344  -0.04056  -0.294703  -0.473019  -0.026308  2.272663  -0.008
O  O138  1  0.60531672  0.73525907  0.87803510  1  -1.134856  -0.040678  -0.295271  -0.473197  -0.026386  2.271933  -0.008
O  O139  1  0.89509505  0.23495611  0.62208644  1  -1.139105  -0.040289  -0.294697  -0.47287  -0.026147  2.27252  -0.008
O  O140  1  0.57648651  0.37987672  0.04916295  1  -1.149382  -0.028178  -0.280211  -0.472593  -0.016861  2.246405  0.002
O  O141  1  0.92323253  0.87938197  0.45091252  1  -1.147183  -0.028291  -0.280103  -0.472664  -0.01697  2.2471  0.002
O  O142  1  0.42345961  0.62071288  0.95090931  1  -1.146087  -0.028294  -0.280583  -0.473123  -0.017022  2.246826  0.002
O  O143  1  0.07639973  0.12008745  0.54915196  1  -1.148707  -0.028066  -0.280118  -0.472638  -0.016797  2.247468  0.002
O  O144  1  0.44541490  0.31711813  0.95108773  1  -1.151835  0.045649  -0.295708  -0.486951  0.031396  2.39977  0.045
O  O145  1  0.05442808  0.81653935  0.54892372  1  -1.152136  0.045838  -0.296733  -0.488824  0.03151  2.401358  0.045
O  O146  1  0.55453467  0.68341563  0.04897616  1  -1.153766  0.045871  -0.296883  -0.488727  0.031528  2.40079  0.045
O  O147  1  0.94540420  0.18307579  0.45111708  1  -1.151778  0.0456  -0.296045  -0.487431  0.031355  2.399674  0.044
O  O148  1  0.98386326  0.91678454  0.24645024  1  -1.15889  -0.035701  -0.300905  -0.49119  -0.022938  2.300791  -0.009
O  O149  1  0.51594692  0.41639058  0.25343685  1  -1.156894  -0.035718  -0.301504  -0.491664  -0.022916  2.302703  -0.008
O  O150  1  0.01643875  0.08362194  0.75334684  1  -1.16072  -0.03575  -0.301424  -0.491365  -0.02284  2.303399  -0.008
O  O151  1  0.48412481  0.58321153  0.74640024  1  -1.157023  -0.03569  -0.300995  -0.491674  -0.022966  2.300953  -0.009
O  O152  1  0.80444908  0.74808608  0.28351383  1  -1.160537  -0.047426  -0.280194  -0.494812  -0.034673  2.26425  -0.021
O  O153  1  0.69538257  0.24770775  0.21651177  1  -1.160771  -0.04739  -0.279707  -0.49491  -0.034707  2.262882  -0.022
O  O154  1  0.19620760  0.25218953  0.71643885  1  -1.16319  -0.047404  -0.280283  -0.495903  -0.034737  2.26233  -0.022
O  O155  1  0.30478303  0.75181320  0.78349060  1  -1.162116  -0.047582  -0.279855  -0.494414  -0.034671  2.264692  -0.021
O  O156  1  0.73482955  0.70222898  0.17298135  1  -1.155126  0.042388  -0.314698  -0.512831  0.029188  2.41253  0.04
O  O157  1  0.76468171  0.20179070  0.32710104  1  -1.153218  0.042024  -0.31528  -0.513719  0.028919  2.412455  0.04
O  O158  1  0.26535026  0.29810067  0.82703906  1  -1.153321  0.042179  -0.314839  -0.513943  0.029041  2.412108  0.04
O  O159  1  0.23503813  0.79771886  0.67296548  1  -1.155005  0.04223  -0.314391  -0.512499  0.029083  2.412695  0.04
O  O160  1  0.76965162  0.47461369  0.16622022  1  -1.223002  -0.049181  -0.553388  -0.748623  -0.035902  2.088724  -0.019
O  O161  1  0.73007284  0.97428679  0.33412199  1  -1.223394  -0.049461  -0.553665  -0.748437  -0.036048  2.088708  -0.019
O  O162  1  0.23029659  0.52559375  0.83406915  1  -1.225063  -0.049358  -0.553596  -0.748901  -0.036031  2.088271  -0.019
O  O163  1  0.26984956  0.02538242  0.66604238  1  -1.224175  -0.049261  -0.553195  -0.747483  -0.035862  2.089147  -0.019
O  O164  1  0.43538368  0.54499653  0.13583435  1  -1.267395  -0.061604  -0.559954  -0.750617  -0.045624  2.050666  -0.032
O  O165  1  0.06429247  0.04465892  0.36410028  1  -1.26378  -0.061469  -0.559253  -0.749484  -0.045564  2.052379  -0.032
O  O166  1  0.56469944  0.45547183  0.86412932  1  -1.268254  -0.061547  -0.559189  -0.748918  -0.045533  2.05253  -0.032
O  O167  1  0.93562653  0.95500596  0.63585704  1  -1.268502  -0.061486  -0.560334  -0.751009  -0.045595  2.050396  -0.032
