# generated using pymatgen
data_Zn2H21C35(N4O)2
_symmetry_space_group_name_H-M   'P 1'
_cell_length_a   20.00289833
_cell_length_b   20.07859267
_cell_length_c   19.53990182
_cell_angle_alpha   104.51756334
_cell_angle_beta   112.14218565
_cell_angle_gamma   112.26108264
_symmetry_Int_Tables_number   1
_chemical_formula_structural   Zn2H21C35(N4O)2
_chemical_formula_sum   'Zn4 H42 C70 N16 O4'
_cell_volume   5976.75581679
_cell_formula_units_Z   2
loop_
 _symmetry_equiv_pos_site_id
 _symmetry_equiv_pos_as_xyz
  1  'x, y, z'
loop_
 _atom_site_type_symbol
 _atom_site_label
 _atom_site_symmetry_multiplicity
 _atom_site_fract_x
 _atom_site_fract_y
 _atom_site_fract_z
 _atom_site_occupancy
 _atom_site_pbe_bader_charge
 _atom_site_pbe_bader_spin_density
 _atom_site_pbe_cm5_charge
 _atom_site_pbe_ddec_charge
 _atom_site_pbe_ddec_spin_density
 _atom_site_pbe_ddec_sum_bond_order
 _atom_site_pbe_magmom
Zn  Zn0  1  0.59435658  0.10257544  0.00393044  1  1.199174  0  0.749389  0.638253  0  2.432656  0
Zn  Zn1  1  0.39065953  0.88794672  0.00079574  1  1.192287  0  0.740818  0.631317  0  2.431125  0
Zn  Zn2  1  0.60266724  0.99427389  0.10595947  1  1.199286  0  0.752805  0.633296  0  2.470849  0
Zn  Zn3  1  0.38739355  0.98313200  0.88537527  1  1.192427  0  0.741619  0.641544  0  2.384746  0
H  H4  1  0.63311034  0.01654585  0.87298958  1  0.109229  0  0.121931  0.112637  0  0.989474  0
H  H5  1  0.34788805  0.35819209  0.01626692  1  0.083302  0  0.105198  0.109265  0  0.987454  0
H  H6  1  0.95107289  0.96228246  0.81985533  1  0.067677  0  0.10332  0.10611  0  0.992014  0
H  H7  1  0.81050417  0.81160091  0.94049358  1  0.055763  0  0.103704  0.106189  0  0.991633  0
H  H8  1  0.36226486  0.00660132  0.71238901  1  0.072462  0  0.120212  0.11009  0  0.988605  0
H  H9  1  0.63602471  0.12974876  0.26883893  1  0.098781  0  0.121484  0.112563  0  0.989832  0
H  H10  1  0.36410851  0.72429047  0.03270602  1  0.091808  0  0.120264  0.108096  0  0.998335  0
H  H11  1  0.61379889  0.24442849  0.14733632  1  0.066243  0  0.122901  0.116184  0  0.985458  0
H  H12  1  0.39626470  0.86820958  0.74142170  1  0.094921  0  0.122013  0.114791  0  0.9923  0
H  H13  1  0.81238377  0.11664050  0.25810506  1  0.105447  0  0.124685  0.1163  0  0.980256  0
H  H14  1  0.64166379  0.23743500  0.54215431  1  0.056843  0  0.097749  0.08404  0  0.995094  0
H  H15  1  0.20572506  0.85038111  0.99183484  1  0.091884  0  0.121433  0.109979  0  0.98917  0
H  H16  1  0.35332123  0.05393133  0.47131160  1  0.073868  0  0.096235  0.081111  0  0.995519  0
H  H17  1  0.19231670  0.48029235  0.62580995  1  0.076808  0  0.105654  0.109967  0  0.988467  0
H  H18  1  0.09526298  0.47060590  0.34682898  1  0.055013  0  0.101638  0.103649  0  0.996623  0
H  H19  1  0.82406805  0.95986693  0.81436269  1  0.058946  0  0.104154  0.107323  0  0.991481  0
H  H20  1  0.93749012  0.81401875  0.94586321  1  0.055817  0  0.103193  0.105923  0  0.991285  0
H  H21  1  0.20055437  0.69067359  0.81622907  1  0.05713  0  0.106813  0.111137  0  0.973582  0
H  H22  1  0.26863140  0.73002372  0.92573612  1  0.019356  0  0.087497  0.071188  0  1.04233  0
H  H23  1  0.21837662  0.62466961  0.85838760  1  0.077812  0  0.112479  0.1203  0  0.96522  0
H  H24  1  0.90910153  0.36494185  0.19456202  1  0.067003  0  0.103384  0.107118  0  0.986589  0
H  H25  1  0.85218240  0.37624688  0.24436164  1  0.054611  0  0.105466  0.107742  0  0.978455  0
H  H26  1  0.44501523  0.00780740  0.40930873  1  0.072467  0  0.098303  0.085865  0  0.992038  0
H  H27  1  0.83233859  0.39261347  0.15418156  1  0.06636  0  0.112144  0.11676  0  0.965909  0
H  H28  1  0.66244075  0.77204956  0.12531487  1  0.071053  0  0.105382  0.107809  0  0.976975  0
H  H29  1  0.67079292  0.80079269  0.22413165  1  0.079399  0  0.103557  0.106643  0  0.987506  0
H  H30  1  0.75697931  0.86183452  0.21516303  1  0.055988  0  0.112333  0.117251  0  0.966517  0
H  H31  1  0.30717606  0.06317755  0.82787943  1  0.025186  0  0.086462  0.07005  0  1.040444  0
H  H32  1  0.36286630  0.17148215  0.87598655  1  0.069547  0  0.106381  0.109932  0  0.975637  0
H  H33  1  0.25202697  0.11336343  0.84106332  1  0.050728  0  0.111434  0.118219  0  0.966356  0
H  H34  1  0.62946745  0.19034182  0.88412083  1  0.085002  0  0.123188  0.116028  0  0.985005  0
H  H35  1  0.36085036  0.00146120  0.11885463  1  0.087467  0  0.120559  0.112733  0  1.001613  0
H  H36  1  0.61273483  0.85900646  0.99063405  1  0.101071  0  0.122994  0.115791  0  0.990396  0
H  H37  1  0.54981130  0.28305788  0.60366418  1  0.06528  0  0.098189  0.085408  0  0.995072  0
H  H38  1  0.19105866  0.94947802  0.81769500  1  0.093464  0  0.120796  0.109134  0  1.000618  0
H  H39  1  0.59137311  0.10094844  0.57286227  1  0.045092  0  0.097691  0.084212  0  0.992726  0
H  H40  1  0.40374112  0.19029193  0.44082741  1  0.068865  0  0.099115  0.086765  0  0.994251  0
H  H41  1  0.06894193  0.35296453  0.49984755  1  0.088632  0  0.10358  0.106893  0  0.991928  0
H  H42  1  0.21810598  0.59796881  0.47273743  1  0.081118  0  0.104511  0.107638  0  0.990827  0
H  H43  1  0.60831531  0.49801929  0.22136818  1  0.072006  0  0.104137  0.10763  0  0.990499  0
H  H44  1  0.35569552  0.48486710  0.01729083  1  0.075376  0  0.103465  0.106002  0  0.990786  0
H  H45  1  0.61591598  0.62466502  0.22274532  1  0.081148  0  0.101458  0.103212  0  0.996295  0
C  C46  1  0.62215945  0.98374401  0.90798024  1  0.421859  0  0.019483  -0.038008  0  3.924218  0
C  C47  1  0.52657559  0.22184556  0.55999990  1  -0.031631  0  -0.073373  -0.081163  0  3.638229  0
C  C48  1  0.54973074  0.12062434  0.54247300  1  -0.020422  0  -0.074305  -0.078384  0  3.639455  0
C  C49  1  0.44540490  0.17024513  0.47027406  1  -0.031841  0  -0.073789  -0.081643  0  3.635501  0
C  C50  1  0.49884359  0.12793118  0.70647579  1  -0.391336  0  -0.071001  -0.1238  0  4.235093  0
C  C51  1  0.49663398  0.11713758  0.29681268  1  0.030673  0  -0.065593  -0.112287  0  4.20764  0
C  C52  1  0.41731179  0.09445543  0.48613485  1  -0.047449  0  -0.073592  -0.076723  0  3.640412  0
C  C53  1  0.57761284  0.19645615  0.52686053  1  -0.023283  0  -0.074796  -0.080529  0  3.642405  0
C  C54  1  0.49857446  0.14584330  0.57747545  1  0.094899  0  0.002635  0.134831  0  3.805158  0
C  C55  1  0.49642199  0.14448721  0.43539159  1  0.121185  0  0.00457  0.137499  0  3.794993  0
C  C56  1  0.49882757  0.14074920  0.64858596  1  0.042412  0  -0.065685  -0.141295  0  4.158812  0
C  C57  1  0.21518231  0.87538467  0.95068284  1  0.442051  0  0.014406  -0.053657  0  3.975394  0
C  C58  1  0.49625362  0.13688497  0.36108647  1  -0.440404  0  -0.066904  -0.147619  0  4.139497  0
C  C59  1  0.10210301  0.40672257  0.49423529  1  -0.027342  0  -0.088067  -0.128985  0  3.981842  0
C  C60  1  0.18543799  0.54412962  0.47842873  1  -0.05942  0  -0.088401  -0.129335  0  3.977095  0
C  C61  1  0.34813510  0.76259602  0.83791086  1  1.055623  0  0.193979  0.302854  0  4.047002  0
C  C62  1  0.77661583  0.21915779  0.15671759  1  1.082966  0  0.19136  0.291177  0  4.088599  0
C  C63  1  0.07126651  0.40367673  0.41474991  1  0.058299  0  -0.008897  0.132882  0  4.13324  0
C  C64  1  0.21194639  0.54912091  0.55854688  1  0.084326  0  -0.003608  0.141161  0  4.118376  0
C  C65  1  0.11662387  0.47295521  0.40809407  1  -0.008837  0  -0.090085  -0.13176  0  3.984332  0
C  C66  1  0.17095190  0.47780130  0.56451830  1  -0.026358  0  -0.087316  -0.127732  0  3.971221  0
C  C67  1  0.99335691  0.33568017  0.34520076  1  0.115338  0  -0.058709  -0.138119  0  4.149972  0
C  C68  1  0.34993907  0.76013204  0.76548896  1  0.10816  0  -0.034186  -0.063133  0  4.191341  0
C  C69  1  0.27178709  0.62428689  0.63111610  1  -0.373829  0  -0.056921  -0.13464  0  4.133912  0
C  C70  1  0.31312328  0.68937660  0.69331975  1  0.015192  0  -0.052704  -0.070281  0  4.183374  0
C  C71  1  0.92113551  0.28165438  0.28839726  1  -0.477484  0  -0.060716  -0.090615  0  4.227659  0
C  C72  1  0.55735571  0.56614077  0.17754698  1  -0.016504  0  -0.090172  -0.132343  0  3.989811  0
C  C73  1  0.40634522  0.41673853  0.06158130  1  -0.038801  0  -0.086984  -0.127333  0  3.973238  0
C  C74  1  0.48683197  0.56359283  0.11911056  1  0.118704  0  -0.008989  0.133203  0  4.137653  0
C  C75  1  0.47810459  0.41907331  0.11767156  1  0.07666  0  -0.003841  0.140004  0  4.124434  0
C  C76  1  0.41071631  0.48744403  0.06214784  1  -0.070772  0  -0.08863  -0.128835  0  3.979976  0
C  C77  1  0.55307220  0.49543519  0.17692754  1  -0.052156  0  -0.088341  -0.129097  0  3.979171  0
C  C78  1  0.49290162  0.63502299  0.11598306  1  0.086114  0  -0.058276  -0.135581  0  4.160025  0
C  C79  1  0.83695695  0.22003922  0.22574203  1  0.099659  0  -0.044259  -0.085641  0  4.216369  0
C  C80  1  0.47671393  0.34672308  0.11019684  1  -0.367628  0  -0.057881  -0.135585  0  4.143629  0
C  C81  1  0.47830551  0.28467618  0.09607169  1  0.021612  0  -0.051739  -0.070196  0  4.190692  0
C  C82  1  0.49959613  0.69647083  0.11106328  1  -0.457103  0  -0.061401  -0.092911  0  4.238374  0
C  C83  1  0.91966391  0.92885612  0.84565396  1  -0.020948  0  -0.087501  -0.128243  0  3.978105  0
C  C84  1  0.84113399  0.84408556  0.91362598  1  -0.008609  0  -0.087893  -0.127939  0  3.976392  0
C  C85  1  0.57094043  0.84110056  0.12754680  1  1.051562  0  0.191964  0.290782  0  4.08794  0
C  C86  1  0.41221433  0.13917837  0.99811045  1  1.041825  0  0.192611  0.300405  0  4.044197  0
C  C87  1  0.95321773  0.88819303  0.88311290  1  0.063955  0  -0.00567  0.137005  0  4.126774  0
C  C88  1  0.80816749  0.88558510  0.87705723  1  0.075244  0  -0.004443  0.139396  0  4.122677  0
C  C89  1  0.91208830  0.84551226  0.91672072  1  -0.011012  0  -0.088285  -0.128611  0  3.978739  0
C  C90  1  0.50184944  0.76427600  0.10200738  1  0.077964  0  -0.042615  -0.082529  0  4.213635  0
C  C91  1  0.84869668  0.92744715  0.84254281  1  -0.033604  0  -0.08741  -0.128021  0  3.975964  0
C  C92  1  0.02640239  0.89062492  0.88762791  1  0.093936  0  -0.056221  -0.126949  0  4.153847  0
C  C93  1  0.73996972  0.88932801  0.87972157  1  -0.10013  0  -0.05702  -0.130374  0  4.15019  0
C  C94  1  0.68751138  0.89968621  0.89029207  1  -0.225006  0  -0.053671  -0.096143  0  4.17388  0
C  C95  1  0.09011612  0.89309926  0.89248191  1  -0.467588  0  -0.058563  -0.104848  0  4.182246  0
C  C96  1  0.42705845  0.04782358  0.76519452  1  0.442637  0  0.0105  -0.059264  0  3.981153  0
C  C97  1  0.56899862  0.09108594  0.22067780  1  0.411115  0  0.017583  -0.043371  0  3.936003  0
C  C98  1  0.43056109  0.77036657  0.06218238  1  0.499178  0  0.019346  -0.021098  0  3.988384  0
C  C99  1  0.54859764  0.20241639  0.09558145  1  0.488554  0  0.020228  -0.029061  0  3.948494  0
C  C100  1  0.56363303  0.14173913  0.85279292  1  0.443382  0  0.014713  -0.055132  0  3.962182  0
C  C101  1  0.47954229  0.21379419  0.06936447  1  0.134581  0  -0.033021  -0.060755  0  4.196462  0
C  C102  1  0.42817606  0.02534378  0.14400347  1  0.462992  0  0.014884  -0.042896  0  3.918938  0
C  C103  1  0.38412320  0.84167403  0.78066973  1  0.462421  0  0.018866  -0.029607  0  3.949724  0
C  C104  1  0.79072589  0.14221758  0.21803133  1  0.486048  0  0.019527  -0.03158  0  3.987371  0
C  C105  1  0.61141844  0.90285511  0.96790236  1  0.427435  0  0.019875  -0.035648  0  3.914104  0
C  C106  1  0.20768351  0.92582962  0.86146902  1  0.449913  0  0.016036  -0.040495  0  3.963022  0
C  C107  1  0.63934413  0.92301528  0.91553779  1  0.099022  0  -0.027621  0.04181  0  4.188887  0
C  C108  1  0.16448600  0.89717819  0.90023696  1  0.122961  0  -0.030302  0.043471  0  4.201851  0
C  C109  1  0.24725630  0.68576375  0.86387786  1  0.390218  0  -0.129934  -0.162411  0  3.90978  0
C  C110  1  0.84815835  0.35707109  0.18436317  1  0.384344  0  -0.129121  -0.16177  0  3.885083  0
C  C111  1  0.68782311  0.82354591  0.18392448  1  0.371455  0  -0.128339  -0.161341  0  3.889783  0
C  C112  1  0.49685258  0.10855927  0.77035933  1  0.097145  0  -0.034281  0.041095  0  4.220753  0
C  C113  1  0.31288125  0.11680110  0.86880050  1  0.399504  0  -0.131341  -0.161928  0  3.912737  0
C  C114  1  0.49782920  0.08410252  0.22483591  1  0.137047  0  -0.028486  0.046338  0  4.186739  0
C  C115  1  0.46828808  0.06878459  0.45348627  1  -0.037563  0  -0.074514  -0.079515  0  3.637939  0
N  N116  1  0.58921215  0.99909230  0.95405821  1  -0.789669  0  -0.281483  -0.189705  0  3.650214  0
N  N117  1  0.52403082  0.12799632  0.04361352  1  -0.801595  0  -0.285423  -0.185407  0  3.634712  0
N  N118  1  0.53545699  0.10391462  0.89270253  1  -0.797814  0  -0.267045  -0.173585  0  3.546729  0
N  N119  1  0.45643170  0.99866204  0.09710995  1  -0.807568  0  -0.280377  -0.188462  0  3.624652  0
N  N120  1  0.40007072  0.88745468  0.85499819  1  -0.776572  0  -0.283972  -0.186812  0  3.6442  0
N  N121  1  0.71185308  0.09961308  0.15126105  1  -0.826579  0  -0.273351  -0.170345  0  3.570525  0
N  N122  1  0.58260403  0.94967019  0.99097938  1  -0.787319  0  -0.283273  -0.191995  0  3.6106  0
N  N123  1  0.27761770  0.92141600  0.88666125  1  -0.797333  0  -0.26671  -0.18336  0  3.516603  0
N  N124  1  0.28216490  0.88997742  0.94225393  1  -0.796917  0  -0.27128  -0.189212  0  3.571672  0
N  N125  1  0.37929424  0.83890212  0.89084449  1  -0.808263  0  -0.286499  -0.285926  0  3.587471  0
N  N126  1  0.70288643  0.14764781  0.11314071  1  -0.824678  0  -0.280376  -0.281114  0  3.514801  0
N  N127  1  0.54222703  0.88717249  0.10500227  1  -0.802723  0  -0.284189  -0.278829  0  3.526251  0
N  N128  1  0.43973047  0.08856835  0.98426593  1  -0.786043  0  -0.284057  -0.285144  0  3.572423  0
N  N129  1  0.45065401  0.04545816  0.83822298  1  -0.79683  0  -0.269799  -0.189699  0  3.56465  0
N  N130  1  0.54267307  0.03915579  0.14431483  1  -0.775499  0  -0.283905  -0.186433  0  3.662516  0
N  N131  1  0.45452904  0.84307281  0.06425683  1  -0.808882  0  -0.273491  -0.180079  0  3.559594  0
O  O132  1  0.31730762  0.69835095  0.85239065  1  -1.084635  0  -0.194748  -0.18989  0  2.529653  0
O  O133  1  0.77977665  0.27416012  0.12792122  1  -1.083584  0  -0.190763  -0.187679  0  2.562835  0
O  O134  1  0.65615321  0.87501952  0.16831389  1  -1.094166  0  -0.190629  -0.188708  0  2.568926  0
O  O135  1  0.33169829  0.11963311  0.94863979  1  -1.085587  0  -0.197503  -0.194863  0  2.537249  0
