# generated using pymatgen
data_AgH12C12N3O2
_symmetry_space_group_name_H-M   'P 1'
_cell_length_a   7.30078781
_cell_length_b   11.44513857
_cell_length_c   15.05300000
_cell_angle_alpha   90.00000000
_cell_angle_beta   101.92306720
_cell_angle_gamma   90.00000000
_symmetry_Int_Tables_number   1
_chemical_formula_structural   AgH12C12N3O2
_chemical_formula_sum   'Ag4 H48 C48 N12 O8'
_cell_volume   1230.67046662
_cell_formula_units_Z   4
loop_
 _symmetry_equiv_pos_site_id
 _symmetry_equiv_pos_as_xyz
  1  'x, y, z'
loop_
 _atom_site_type_symbol
 _atom_site_label
 _atom_site_symmetry_multiplicity
 _atom_site_fract_x
 _atom_site_fract_y
 _atom_site_fract_z
 _atom_site_occupancy
 _atom_site_hle17_bader_spin_density
 _atom_site_hle17_ddec_charge
 _atom_site_hle17_ddec_spin_density
 _atom_site_hle17_ddec_sum_bond_order
 _atom_site_hle17_magmom
 _atom_site_hse06_10hf_bader_spin_density
 _atom_site_hse06_10hf_ddec_charge
 _atom_site_hse06_10hf_ddec_spin_density
 _atom_site_hse06_10hf_ddec_sum_bond_order
 _atom_site_hse06_10hf_magmom
 _atom_site_hse06_bader_spin_density
 _atom_site_hse06_ddec_charge
 _atom_site_hse06_ddec_spin_density
 _atom_site_hse06_ddec_sum_bond_order
 _atom_site_hse06_magmom
 _atom_site_pbe_bader_charge
 _atom_site_pbe_bader_spin_density
 _atom_site_pbe_cm5_charge
 _atom_site_pbe_ddec_charge
 _atom_site_pbe_ddec_spin_density
 _atom_site_pbe_ddec_sum_bond_order
 _atom_site_pbe_magmom
Ag  Ag0  1  0.21640759  0.98843714  0.00519390  1  0  0.529685  0  1.435084  0  0  0.387142  0  1.87389  0  0  0.417188  0  1.83053  0  0.55644  0  0.474974  0.366378  0  1.903923  0
Ag  Ag1  1  0.78358683  0.48843795  0.49481012  1  0  0.529681  0  1.435043  0  0  0.387054  0  1.873882  0  0  0.417106  0  1.830519  0  0.556637  0  0.47494  0.366292  0  1.903915  0
Ag  Ag2  1  0.78357143  0.01155775  0.99480193  1  0  0.529729  0  1.435222  0  0  0.387112  0  1.874064  0  0  0.417149  0  1.830709  0  0.556627  0  0.475007  0.36635  0  1.904093  0
Ag  Ag3  1  0.21640479  0.51153596  0.50519894  1  0  0.529659  0  1.435155  0  0  0.387075  0  1.87392  0  0  0.417129  0  1.830565  0  0.556316  0  0.475035  0.366315  0  1.903947  0
H  H4  1  0.04636246  0.75707428  0.06263867  1  0  0.096129  0  0.963929  0  0  0.101863  0  1.03096  0  0  0.105864  0  1.026784  0  0.143328  0  0.113957  0.098814  0  1.034148  0
H  H5  1  0.95365017  0.25708295  0.43736320  1  0  0.096141  0  0.963716  0  0  0.101831  0  1.030798  0  0  0.105832  0  1.026622  0  0.143387  0  0.113958  0.098786  0  1.033988  0
H  H6  1  0.95363897  0.24292323  0.93737005  1  0  0.096189  0  0.963691  0  0  0.102012  0  1.030653  0  0  0.10602  0  1.026464  0  0.143609  0  0.114058  0.098959  0  1.033837  0
H  H7  1  0.04637646  0.74289708  0.56263675  1  0  0.096181  0  0.963862  0  0  0.101965  0  1.03089  0  0  0.105968  0  1.026715  0  0.143012  0  0.113968  0.09892  0  1.034083  0
H  H8  1  0.97793453  0.66898010  0.20449525  1  0  0.104752  0  0.949736  0  0  0.118254  0  1.006018  0  0  0.120786  0  1.006354  0  0.082327  0  0.109481  0.116411  0  1.005982  0
H  H9  1  0.02208089  0.16899227  0.29550357  1  0  0.104655  0  0.949906  0  0  0.118123  0  1.006212  0  0  0.120639  0  1.006602  0  0.082365  0  0.109438  0.116283  0  1.006174  0
H  H10  1  0.02205709  0.33102526  0.79551049  1  0  0.104806  0  0.949634  0  0  0.118288  0  1.00594  0  0  0.120806  0  1.006322  0  0.08239  0  0.109469  0.116447  0  1.005906  0
H  H11  1  0.97794993  0.83099824  0.70449148  1  0  0.10466  0  0.949945  0  0  0.118157  0  1.006185  0  0  0.120673  0  1.006576  0  0.082709  0  0.109484  0.116316  0  1.006148  0
H  H12  1  0.21788171  0.97448624  0.35057579  1  0  0.109379  0  0.943904  0  0  0.119745  0  1.003324  0  0  0.123443  0  1.001619  0  0.114141  0  0.108975  0.117087  0  1.004701  0
H  H13  1  0.78208892  0.47449054  0.14942187  1  0  0.109423  0  0.943827  0  0  0.119764  0  1.003269  0  0  0.123461  0  1.001567  0  0.114216  0  0.108959  0.117101  0  1.004652  0
H  H14  1  0.78212672  0.02551214  0.64942765  1  0  0.109387  0  0.943812  0  0  0.1197  0  1.003318  0  0  0.123399  0  1.001612  0  0.114193  0  0.108923  0.117039  0  1.004699  0
H  H15  1  0.21788171  0.52548599  0.85057977  1  0  0.109281  0  0.943819  0  0  0.119593  0  1.00332  0  0  0.123291  0  1.001616  0  0.114102  0  0.108921  0.116935  0  1.004695  0
H  H16  1  0.27784856  0.05204568  0.20337056  1  0  0.071645  0  0.955169  0  0  0.081603  0  1.022376  0  0  0.083396  0  1.020523  0  0.084875  0  0.111325  0.080224  0  1.023815  0
H  H17  1  0.72212207  0.55205098  0.29663042  1  0  0.071649  0  0.95519  0  0  0.081642  0  1.022377  0  0  0.083435  0  1.020526  0  0.084989  0  0.111334  0.080256  0  1.02383  0
H  H18  1  0.72215987  0.94794746  0.79663553  1  0  0.071662  0  0.955161  0  0  0.081617  0  1.022371  0  0  0.083411  0  1.020519  0  0.085023  0  0.111353  0.080236  0  1.023812  0
H  H19  1  0.27787096  0.44792730  0.70337214  1  0  0.071685  0  0.955119  0  0  0.081712  0  1.022226  0  0  0.083505  0  1.020378  0  0.084816  0  0.11137  0.080334  0  1.023667  0
H  H20  1  0.37617174  0.15635459  0.70189070  1  0  0.112618  0  0.963857  0  0  0.126782  0  1.019535  0  0  0.129276  0  1.020282  0  0.040042  0  0.106391  0.124972  0  1.019274  0
H  H21  1  0.62382829  0.65636951  0.79810791  1  0  0.112607  0  0.963917  0  0  0.126737  0  1.019617  0  0  0.129231  0  1.020364  0  0.040139  0  0.106378  0.124927  0  1.019356  0
H  H22  1  0.62381989  0.84368922  0.29810972  1  0  0.11246  0  0.963754  0  0  0.1266  0  1.019493  0  0  0.129096  0  1.020237  0  0.039953  0  0.106347  0.124787  0  1.019236  0
H  H23  1  0.37615074  0.34366556  0.20188926  1  0  0.112697  0  0.963934  0  0  0.126823  0  1.019611  0  0  0.129319  0  1.020355  0  0.039928  0  0.106432  0.125012  0  1.019352  0
H  H24  1  0.52964606  0.33807542  0.77343656  1  0  0.081561  0  0.966595  0  0  0.093655  0  1.028538  0  0  0.095851  0  1.027079  0  0.075623  0  0.099729  0.092038  0  1.029545  0
H  H25  1  0.47037217  0.83808859  0.72655789  1  0  0.081663  0  0.966695  0  0  0.093761  0  1.028616  0  0  0.095958  0  1.027153  0  0.075562  0  0.099776  0.092145  0  1.029621  0
H  H26  1  0.47035537  0.66195441  0.22658278  1  0  0.081656  0  0.966709  0  0  0.093733  0  1.028654  0  0  0.095876  0  1.027254  0  0.075705  0  0.09976  0.092116  0  1.029662  0
H  H27  1  0.52963906  0.16193862  0.27341526  1  0  0.081507  0  0.966603  0  0  0.093594  0  1.02858  0  0  0.095768  0  1.027159  0  0.07549  0  0.099685  0.091978  0  1.029583  0
H  H28  1  0.55961549  0.36694444  0.94211415  1  0  0.111601  0  0.942124  0  0  0.126494  0  0.992742  0  0  0.129748  0  0.992593  0  0.08758  0  0.104527  0.124175  0  0.99302  0
H  H29  1  0.44037614  0.86694887  0.55787565  1  0  0.111694  0  0.941912  0  0  0.126534  0  0.992599  0  0  0.129796  0  0.992448  0  0.087528  0  0.104526  0.124213  0  0.992878  0
H  H30  1  0.44036634  0.63306267  0.05790257  1  0  0.111513  0  0.941911  0  0  0.126472  0  0.992458  0  0  0.129724  0  0.992311  0  0.087881  0  0.104583  0.12416  0  0.992737  0
H  H31  1  0.55964068  0.13305737  0.44209541  1  0  0.111657  0  0.942132  0  0  0.126587  0  0.992691  0  0  0.129841  0  0.99254  0  0.087636  0  0.10464  0.124268  0  0.992973  0
H  H32  1  0.48803912  0.14252864  0.09566755  1  0  0.11222  0  0.974604  0  0  0.126682  0  1.053284  0  0  0.129189  0  1.050891  0  0.063444  0  0.086161  0.124821  0  1.055036  0
H  H33  1  0.51193151  0.64250423  0.40433542  1  0  0.112048  0  0.974636  0  0  0.126548  0  1.053302  0  0  0.129051  0  1.050914  0  0.06334  0  0.086064  0.124684  0  1.055058  0
H  H34  1  0.51194551  0.85746100  0.90432886  1  0  0.112202  0  0.974547  0  0  0.126671  0  1.053218  0  0  0.129178  0  1.050829  0  0.06326  0  0.086179  0.124808  0  1.054976  0
H  H35  1  0.48809232  0.35744871  0.59566557  1  0  0.112219  0  0.974539  0  0  0.12671  0  1.053215  0  0  0.129198  0  1.050826  0  0.053777  0  0.086205  0.124842  0  1.05498  0
H  H36  1  0.51603886  0.29587846  0.08340373  1  0  0.119769  0  0.946637  0  0  0.1415  0  1.002435  0  0  0.142809  0  1.002766  0  0.035851  0  0.092436  0.140545  0  1.002222  0
H  H37  1  0.48391497  0.79585231  0.41658493  1  0  0.119761  0  0.946684  0  0  0.141501  0  1.002482  0  0  0.142813  0  1.00281  0  0.035902  0  0.092416  0.140548  0  1.002268  0
H  H38  1  0.48390937  0.70411992  0.91660364  1  0  0.119742  0  0.946589  0  0  0.141499  0  1.00234  0  0  0.14281  0  1.002669  0  0.035593  0  0.092423  0.140542  0  1.002132  0
H  H39  1  0.51608506  0.20410500  0.58339308  1  0  0.119707  0  0.946563  0  0  0.1414  0  1.002398  0  0  0.142703  0  1.002734  0  0.035353  0  0.09242  0.140445  0  1.002185  0
H  H40  1  0.28651685  0.23478790  0.06886346  1  0  0.133812  0  0.962301  0  0  0.152499  0  1.026871  0  0  0.155012  0  1.025161  0  0.098261  0  0.096096  0.150579  0  1.028186  0
H  H41  1  0.71344258  0.73477573  0.43112178  1  0  0.133827  0  0.962375  0  0  0.152364  0  1.027107  0  0  0.154903  0  1.025373  0  0.098537  0  0.096089  0.150442  0  1.028419  0
H  H42  1  0.71344538  0.76518602  0.93113933  1  0  0.133891  0  0.962477  0  0  0.152401  0  1.027235  0  0  0.154947  0  1.025498  0  0.098676  0  0.096103  0.150494  0  1.028532  0
H  H43  1  0.28657004  0.26519382  0.56887145  1  0  0.1338  0  0.962539  0  0  0.152383  0  1.02722  0  0  0.154924  0  1.025483  0  0.098639  0  0.09612  0.150461  0  1.028533  0
H  H44  1  0.21325498  0.98552673  0.72258212  1  0  0.317825  0  0.881471  0  0  0.313266  0  0.926906  0  0  0.318756  0  0.9234  0  0.44777  0  0.310896  0.309412  0  0.929367  0
H  H45  1  0.78675205  0.48554502  0.77741985  1  0  0.317737  0  0.88172  0  0  0.31319  0  0.927122  0  0  0.31868  0  0.923618  0  0.447683  0  0.310918  0.309338  0  0.929577  0
H  H46  1  0.78677164  0.01449436  0.27740055  1  0  0.317859  0  0.881421  0  0  0.313269  0  0.926919  0  0  0.318759  0  0.923416  0  0.448037  0  0.31088  0.309415  0  0.929381  0
H  H47  1  0.21322418  0.51448219  0.22259299  1  0  0.317832  0  0.881339  0  0  0.313243  0  0.926835  0  0  0.318732  0  0.923333  0  0.447864  0  0.310884  0.309386  0  0.929303  0
H  H48  1  0.17722811  0.93193717  0.82566255  1  0  0.326903  0  0.959698  0  0  0.305984  0  1.030623  0  0  0.314859  0  1.023119  0  0.50205  0  0.280877  0.299697  0  1.035881  0
H  H49  1  0.82278451  0.43194846  0.67434463  1  0  0.327021  0  0.959388  0  0  0.306061  0  1.030392  0  0  0.314938  0  1.022884  0  0.501556  0  0.280923  0.299779  0  1.035634  0
H  H50  1  0.82279151  0.06807519  0.17431743  1  0  0.327032  0  0.95964  0  0  0.305988  0  1.030711  0  0  0.314865  0  1.023206  0  0.53337  0  0.280813  0.299712  0  1.035935  0
H  H51  1  0.17719731  0.56805953  0.32568205  1  0  0.326926  0  0.959685  0  0  0.305911  0  1.030733  0  0  0.314788  0  1.023228  0  0.501733  0  0.280818  0.299617  0  1.035986  0
C  C52  1  0.08415882  0.80213096  0.12805083  1  0  0.118992  0  3.680354  0  0  0.089514  0  3.927443  0  0  0.096619  0  3.944527  0  0.542785  0  0.042664  0.084842  0  3.915973  0
C  C53  1  0.91585241  0.30214925  0.37194624  1  0  0.118992  0  3.680604  0  0  0.08953  0  3.92771  0  0  0.09664  0  3.944786  0  0.543368  0  0.04262  0.084854  0  3.916242  0
C  C54  1  0.91584261  0.19786480  0.87195854  1  0  0.119226  0  3.680209  0  0  0.089682  0  3.927297  0  0  0.096788  0  3.944373  0  0.542865  0  0.042703  0.085019  0  3.915819  0
C  C55  1  0.08416862  0.69783952  0.62804451  1  0  0.118869  0  3.680403  0  0  0.089175  0  3.927637  0  0  0.096282  0  3.944712  0  0.543755  0  0.042506  0.084498  0  3.91617  0
C  C56  1  0.04863312  0.75310665  0.20735433  1  0  -0.127165  0  3.703963  0  0  -0.146533  0  3.94626  0  0  -0.152877  0  3.967706  0  -0.082321  0  -0.084052  -0.142536  0  3.932079  0
C  C57  1  0.95136131  0.25312669  0.29264039  1  0  -0.127196  0  3.704434  0  0  -0.146527  0  3.946696  0  0  -0.152879  0  3.968135  0  -0.082303  0  -0.083966  -0.142533  0  3.932511  0
C  C58  1  0.95135991  0.24688910  0.79265088  1  0  -0.127486  0  3.704139  0  0  -0.146882  0  3.946448  0  0  -0.153234  0  3.967888  0  -0.082343  0  -0.084135  -0.142888  0  3.932264  0
C  C59  1  0.04865832  0.74687082  0.70735752  1  0  -0.12704  0  3.704076  0  0  -0.146324  0  3.946282  0  0  -0.152678  0  3.967722  0  -0.083026  0  -0.083923  -0.142328  0  3.9321  0
C  C60  1  0.09549395  0.81416402  0.28944903  1  0  0.00333  0  3.707518  0  0  0.024146  0  3.937018  0  0  0.024441  0  3.955711  0  -0.107785  0  0.003294  0.02383  0  3.924595  0
C  C61  1  0.90450048  0.31417182  0.21055566  1  0  0.003413  0  3.708017  0  0  0.024262  0  3.937424  0  0  0.024558  0  3.956116  0  -0.107983  0  0.00324  0.02395  0  3.925  0
C  C62  1  0.90450328  0.18583523  0.71056524  1  0  0.003315  0  3.70805  0  0  0.024225  0  3.937405  0  0  0.02452  0  3.956097  0  -0.107892  0  0.003154  0.023913  0  3.924981  0
C  C63  1  0.09551075  0.68580996  0.78944142  1  0  0.003374  0  3.708334  0  0  0.024297  0  3.937627  0  0  0.024598  0  3.956314  0  -0.106856  0  0.003228  0.02398  0  3.925205  0
C  C64  1  0.18140827  0.92329594  0.28831817  1  0  -0.146343  0  3.736652  0  0  -0.16754  0  3.985821  0  0  -0.17409  0  4.00542  0  -0.014023  0  -0.086017  -0.163371  0  3.972966  0
C  C65  1  0.81857496  0.42329937  0.21168407  1  0  -0.146502  0  3.736574  0  0  -0.167693  0  3.985721  0  0  -0.174243  0  4.005325  0  -0.01371  0  -0.086109  -0.16352  0  3.97286  0
C  C66  1  0.81860156  0.07670593  0.71169205  1  0  -0.146248  0  3.736644  0  0  -0.167438  0  3.985796  0  0  -0.173989  0  4.005395  0  0.00011  0  -0.085873  -0.163266  0  3.972932  0
C  C67  1  0.18142086  0.57668502  0.78831079  1  0  -0.1462  0  3.737056  0  0  -0.167415  0  3.986239  0  0  -0.173965  0  4.005839  0  -0.014211  0  -0.086105  -0.163243  0  3.973377  0
C  C68  1  0.21437911  0.96663661  0.20687931  1  0  0.128819  0  3.718703  0  0  0.096782  0  3.97012  0  0  0.104948  0  3.988163  0  0.511476  0  0.04032  0.091313  0  3.957953  0
C  C69  1  0.78561391  0.46664005  0.29312458  1  0  0.128794  0  3.71873  0  0  0.096745  0  3.970099  0  0  0.104907  0  3.988153  0  0.511031  0  0.040409  0.09128  0  3.957928  0
C  C70  1  0.78562931  0.03336002  0.79312413  1  0  0.128804  0  3.718669  0  0  0.09677  0  3.970093  0  0  0.104935  0  3.988137  0  0.49786  0  0.040326  0.091304  0  3.957922  0
C  C71  1  0.21438471  0.53334173  0.70687987  1  0  0.128629  0  3.718698  0  0  0.096538  0  3.970086  0  0  0.1047  0  3.988133  0  0.511454  0  0.040326  0.091066  0  3.95792  0
C  C72  1  0.04791776  0.76724016  0.37641704  1  0  0.622699  0  3.969511  0  0  0.574106  0  4.270732  0  0  0.606097  0  4.26437  0  1.613604  0  0.19156  0.552415  0  4.274027  0
C  C73  1  0.95210466  0.26727330  0.12359311  1  0  0.622829  0  3.968681  0  0  0.574232  0  4.269898  0  0  0.606227  0  4.26353  0  1.612903  0  0.191729  0.552535  0  4.273201  0
C  C74  1  0.95208506  0.23274860  0.62360443  1  0  0.622826  0  3.968843  0  0  0.574223  0  4.270029  0  0  0.606217  0  4.263666  0  1.613209  0  0.191692  0.552527  0  4.273328  0
C  C75  1  0.04793036  0.73274080  0.87640502  1  0  0.622651  0  3.969185  0  0  0.574048  0  4.270351  0  0  0.60604  0  4.263985  0  1.612544  0  0.191599  0.552353  0  4.273654  0
C  C76  1  0.32780740  0.08750265  0.82858509  1  0  0.481367  0  3.847425  0  0  0.452594  0  4.108026  0  0  0.473163  0  4.122111  0  1.034458  0  0.220217  0.43883  0  4.098016  0
C  C77  1  0.67219402  0.58750534  0.67140900  1  0  0.481202  0  3.847444  0  0  0.452403  0  4.108012  0  0  0.472956  0  4.12213  0  1.034418  0  0.220169  0.438637  0  4.098004  0
C  C78  1  0.67219822  0.91251495  0.17140278  1  0  0.481214  0  3.846903  0  0  0.452442  0  4.10741  0  0  0.472953  0  4.121586  0  1.034155  0  0.2203  0.438695  0  4.097385  0
C  C79  1  0.32779900  0.41249566  0.32859090  1  0  0.481288  0  3.847245  0  0  0.45243  0  4.107861  0  0  0.473007  0  4.121953  0  1.033626  0  0.220132  0.438665  0  4.097848  0
C  C80  1  0.39234638  0.17265409  0.77427805  1  0  -0.245109  0  3.717796  0  0  -0.262917  0  3.972207  0  0  -0.27553  0  3.994205  0  0.040195  0  -0.106513  -0.254892  0  3.957513  0
C  C81  1  0.60765644  0.67266376  0.72572018  1  0  -0.244857  0  3.71774  0  0  -0.262604  0  3.972086  0  0  -0.275209  0  3.994085  0  0.040401  0  -0.106401  -0.254579  0  3.95739  0
C  C82  1  0.60764664  0.82737487  0.22572119  1  0  -0.244698  0  3.717444  0  0  -0.262455  0  3.971793  0  0  -0.275046  0  3.993796  0  0.04033  0  -0.106481  -0.254439  0  3.95709  0
C  C83  1  0.39233658  0.32735646  0.27427241  1  0  -0.245115  0  3.717806  0  0  -0.262816  0  3.972154  0  0  -0.275426  0  3.994142  0  0.040703  0  -0.106484  -0.254794  0  3.957461  0
C  C84  1  0.47469651  0.27325488  0.81426948  1  0  0.0207  0  3.791291  0  0  0.001539  0  4.046783  0  0  0.009273  0  4.064418  0  -0.065819  0  -0.078957  -0.003114  0  4.034473  0
C  C85  1  0.52530772  0.77326718  0.68572955  1  0  0.020269  0  3.791362  0  0  0.001086  0  4.046838  0  0  0.00882  0  4.06447  0  -0.065738  0  -0.079154  -0.003565  0  4.034525  0
C  C86  1  0.52530352  0.72677320  0.18573909  1  0  0.020396  0  3.791289  0  0  0.001223  0  4.046741  0  0  0.008999  0  4.06442  0  -0.066907  0  -0.079049  -0.003431  0  4.034436  0
C  C87  1  0.47469231  0.22675829  0.31425976  1  0  0.020674  0  3.790898  0  0  0.001478  0  4.046336  0  0  0.00922  0  4.063997  0  -0.065696  0  -0.07898  -0.003173  0  4.034027  0
C  C88  1  0.49081656  0.29006639  0.90781923  1  0  -0.225591  0  3.741308  0  0  -0.246399  0  3.991714  0  0  -0.258093  0  4.014083  0  -0.078651  0  -0.112591  -0.238861  0  3.976662  0
C  C89  1  0.50917787  0.79006820  0.59216885  1  0  -0.225647  0  3.741137  0  0  -0.246392  0  3.991548  0  0  -0.258097  0  4.013924  0  -0.079059  0  -0.112517  -0.238854  0  3.976502  0
C  C90  1  0.50916947  0.70995034  0.09218661  1  0  -0.225513  0  3.741056  0  0  -0.246355  0  3.99151  0  0  -0.258049  0  4.013869  0  -0.07899  0  -0.112651  -0.238816  0  3.976439  0
C  C91  1  0.49083756  0.20993193  0.40781137  1  0  -0.225514  0  3.741279  0  0  -0.246341  0  3.991713  0  0  -0.258028  0  4.01407  0  -0.07868  0  -0.112667  -0.238802  0  3.976651  0
C  C92  1  0.42189584  0.20478040  0.95803280  1  0  0.317722  0  3.767154  0  0  0.323757  0  4.009866  0  0  0.33547  0  4.030048  0  0.456  0  0.108738  0.315933  0  3.996064  0
C  C93  1  0.57809159  0.70478133  0.54196787  1  0  0.317836  0  3.767226  0  0  0.323816  0  4.009929  0  0  0.335525  0  4.030121  0  0.456536  0  0.108772  0.315994  0  3.996121  0
C  C94  1  0.57808179  0.79521886  0.04197087  1  0  0.317892  0  3.766952  0  0  0.323824  0  4.009696  0  0  0.335527  0  4.029887  0  0.456889  0  0.108694  0.316007  0  3.995901  0
C  C95  1  0.42191683  0.29520219  0.45802826  1  0  0.317679  0  3.766915  0  0  0.323653  0  4.009659  0  0  0.335372  0  4.029849  0  0.456112  0  0.108774  0.315833  0  3.995849  0
C  C96  1  0.42899762  0.22037042  0.05725035  1  0  -0.392924  0  3.711535  0  0  -0.473332  0  3.948187  0  0  -0.476593  0  3.953263  0  -0.091269  0  -0.249352  -0.470695  0  3.944665  0
C  C97  1  0.57096601  0.72035825  0.44274062  1  0  -0.392704  0  3.711263  0  0  -0.473026  0  3.947952  0  0  -0.476314  0  3.953022  0  -0.091474  0  -0.249275  -0.47038  0  3.944429  0
C  C98  1  0.57096461  0.77961835  0.94274779  1  0  -0.392953  0  3.711359  0  0  -0.473212  0  3.947966  0  0  -0.476506  0  3.953022  0  -0.091199  0  -0.249376  -0.470585  0  3.944438  0
C  C99  1  0.42904381  0.27961129  0.55725166  1  0  -0.392744  0  3.711449  0  0  -0.473068  0  3.948054  0  0  -0.476322  0  3.953133  0  -0.081245  0  -0.249418  -0.470425  0  3.944535  0
N  N100  1  0.16512443  0.90810871  0.12765708  1  0  -0.314771  0  3.365354  0  0  -0.221985  0  3.638  0  0  -0.241917  0  3.654821  0  -1.203947  0  -0.352999  -0.208521  0  3.626379  0
N  N101  1  0.83487140  0.40809991  0.37233779  1  0  -0.314531  0  3.365921  0  0  -0.22172  0  3.638477  0  0  -0.241649  0  3.655301  0  -1.204405  0  -0.352834  -0.208258  0  3.626851  0
N  N102  1  0.83487700  0.09189404  0.87234300  1  0  -0.314791  0  3.365586  0  0  -0.222011  0  3.638246  0  0  -0.241941  0  3.655068  0  -1.204485  0  -0.352974  -0.208548  0  3.626619  0
N  N103  1  0.16514683  0.59187313  0.62765932  1  0  -0.31449  0  3.365657  0  0  -0.221585  0  3.638251  0  0  -0.241514  0  3.655081  0  -1.204313  0  -0.352765  -0.208121  0  3.626622  0
N  N104  1  0.34094983  0.10480258  0.91898522  1  0  -0.483425  0  3.227198  0  0  -0.394168  0  3.495914  0  0  -0.419594  0  3.508653  0  -1.237952  0  -0.362089  -0.376946  0  3.486993  0
N  N105  1  0.65903900  0.60480264  0.58101027  1  0  -0.483581  0  3.227235  0  0  -0.394245  0  3.495905  0  0  -0.419665  0  3.508643  0  -1.238543  0  -0.362175  -0.377022  0  3.486985  0
N  N106  1  0.65903620  0.89520803  0.08100468  1  0  -0.483732  0  3.227303  0  0  -0.394348  0  3.495946  0  0  -0.419735  0  3.50868  0  -1.237686  0  -0.362201  -0.377116  0  3.486967  0
N  N107  1  0.34095542  0.39518962  0.41898844  1  0  -0.483635  0  3.226972  0  0  -0.394267  0  3.49563  0  0  -0.419724  0  3.508397  0  -1.23819  0  -0.362193  -0.377041  0  3.486705  0
N  N108  1  0.25542889  0.98511957  0.79118387  1  0  -0.698253  0  3.122345  0  0  -0.662871  0  3.355503  0  0  -0.685337  0  3.354882  0  -1.28191  0  -0.587471  -0.647062  0  3.355453  0
N  N109  1  0.74457394  0.48513611  0.70882432  1  0  -0.698107  0  3.122433  0  0  -0.662651  0  3.355502  0  0  -0.685112  0  3.354888  0  -1.281098  0  -0.587485  -0.646844  0  3.355449  0
N  N110  1  0.74459074  0.01489628  0.20880275  1  0  -0.698212  0  3.122021  0  0  -0.662694  0  3.355152  0  0  -0.685144  0  3.35456  0  -1.31326  0  -0.587308  -0.646896  0  3.355085  0
N  N111  1  0.25540229  0.51488236  0.29119648  1  0  -0.698167  0  3.121925  0  0  -0.662668  0  3.355101  0  0  -0.685134  0  3.354476  0  -1.281144  0  -0.587345  -0.64685  0  3.355073  0
O  O112  1  0.00777654  0.84059271  0.43129938  1  0  -0.607473  0  1.85369  0  0  -0.566406  0  2.058833  0  0  -0.588502  0  2.050397  0  -1.170263  0  -0.340568  -0.550518  0  2.063921  0
O  O113  1  0.99222069  0.34061623  0.06869961  1  0  -0.607336  0  1.853832  0  0  -0.56631  0  2.059015  0  0  -0.588405  0  2.050573  0  -1.17026  0  -0.340548  -0.55042  0  2.064102  0
O  O114  1  0.99222489  0.15941703  0.56870468  1  0  -0.607387  0  1.853567  0  0  -0.56629  0  2.05869  0  0  -0.588382  0  2.050258  0  -1.170342  0  -0.340502  -0.550404  0  2.063782  0
O  O115  1  0.00779894  0.65939787  0.93130096  1  0  -0.607436  0  1.853803  0  0  -0.566371  0  2.058926  0  0  -0.588467  0  2.050489  0  -1.170041  0  -0.3406  -0.550482  0  2.064021  0
O  O116  1  0.05009884  0.65551325  0.38460875  1  0  -0.680493  0  2.053567  0  0  -0.615742  0  2.311934  0  0  -0.643631  0  2.301448  0  -1.196546  0  -0.342018  -0.595797  0  2.318308  0
O  O117  1  0.94988999  0.15552542  0.11538010  1  0  -0.680816  0  2.052468  0  0  -0.616064  0  2.310907  0  0  -0.643952  0  2.300397  0  -1.195888  0  -0.34222  -0.596123  0  2.317291  0
O  O118  1  0.94989139  0.34449386  0.61540017  1  0  -0.680775  0  2.052858  0  0  -0.616054  0  2.311279  0  0  -0.643957  0  2.300801  0  -1.19641  0  -0.34218  -0.596108  0  2.317663  0
O  O119  1  0.05014503  0.84447558  0.88460541  1  0  -0.68059  0  2.053091  0  0  -0.615895  0  2.311504  0  0  -0.643777  0  2.300995  0  -1.196189  0  -0.342067  -0.595949  0  2.317891  0
