# generated using pymatgen
data_HgH6C7(BrN)2
_symmetry_space_group_name_H-M   'P 1'
_cell_length_a   7.46310157
_cell_length_b   9.16144300
_cell_length_c   15.66861956
_cell_angle_alpha   106.45663005
_cell_angle_beta   93.53178387
_cell_angle_gamma   107.72630662
_symmetry_Int_Tables_number   1
_chemical_formula_structural   HgH6C7(BrN)2
_chemical_formula_sum   'Hg4 H24 C28 Br8 N8'
_cell_volume   965.73635536
_cell_formula_units_Z   4
loop_
 _symmetry_equiv_pos_site_id
 _symmetry_equiv_pos_as_xyz
  1  'x, y, z'
loop_
 _atom_site_type_symbol
 _atom_site_label
 _atom_site_symmetry_multiplicity
 _atom_site_fract_x
 _atom_site_fract_y
 _atom_site_fract_z
 _atom_site_occupancy
 _atom_site_hle17_bader_spin_density
 _atom_site_hle17_ddec_charge
 _atom_site_hle17_ddec_spin_density
 _atom_site_hle17_ddec_sum_bond_order
 _atom_site_hle17_magmom
 _atom_site_hse06_10hf_bader_spin_density
 _atom_site_hse06_10hf_ddec_charge
 _atom_site_hse06_10hf_ddec_spin_density
 _atom_site_hse06_10hf_ddec_sum_bond_order
 _atom_site_hse06_10hf_magmom
 _atom_site_hse06_bader_spin_density
 _atom_site_hse06_ddec_charge
 _atom_site_hse06_ddec_spin_density
 _atom_site_hse06_ddec_sum_bond_order
 _atom_site_hse06_magmom
 _atom_site_pbe_bader_spin_density
 _atom_site_pbe_cm5_charge
 _atom_site_pbe_ddec_charge
 _atom_site_pbe_ddec_spin_density
 _atom_site_pbe_ddec_sum_bond_order
 _atom_site_pbe_magmom
Hg  Hg0  1  0.14635151  0.06285599  0.63533324  1  0  0.6294  0  2.154438  0  0  0.484354  0  2.655843  0  0  0.53311  0  2.623056  0  0  0.435568  0.451242  0  2.677749  0
Hg  Hg1  1  0.85363727  0.93714266  0.36466600  1  0  0.629419  0  2.154461  0  0  0.484364  0  2.65589  0  0  0.533117  0  2.623102  0  0  0.435581  0.451252  0  2.677794  0
Hg  Hg2  1  0.38258166  0.36138521  0.87484510  1  0  0.642936  0  2.141417  0  0  0.515551  0  2.630617  0  0  0.562595  0  2.597577  0  0  0.434968  0.483594  0  2.652603  0
Hg  Hg3  1  0.61741795  0.63861695  0.12515376  1  0  0.64295  0  2.141467  0  0  0.51557  0  2.630673  0  0  0.562613  0  2.597633  0  0  0.434988  0.483615  0  2.652654  0
H  H4  1  0.85975611  0.75517147  0.67705155  1  0  0.103277  0  0.935696  0  0  0.113979  0  1.006097  0  0  0.115661  0  1.004839  0  0  0.112226  0.112727  0  1.007076  0
H  H5  1  0.14023885  0.24482588  0.32295021  1  0  0.103258  0  0.935724  0  0  0.113974  0  1.006104  0  0  0.115656  0  1.004846  0  0  0.11222  0.112721  0  1.007084  0
H  H6  1  0.88440003  0.60383664  0.72321063  1  0  0.112897  0  0.907402  0  0  0.12892  0  0.964305  0  0  0.130853  0  0.962917  0  0  0.122818  0.127483  0  0.96544  0
H  H7  1  0.11559725  0.39616311  0.27678967  1  0  0.11293  0  0.907419  0  0  0.128932  0  0.964336  0  0  0.130864  0  0.962951  0  0  0.122835  0.127496  0  0.965473  0
H  H8  1  0.04666089  0.43181617  0.64769334  1  0  0.106899  0  0.988238  0  0  0.113514  0  1.055693  0  0  0.116995  0  1.05414  0  0  0.090367  0.110966  0  1.057077  0
H  H9  1  0.95333372  0.56818362  0.35230498  1  0  0.106906  0  0.988239  0  0  0.113505  0  1.05571  0  0  0.116985  0  1.054159  0  0  0.090354  0.110957  0  1.057095  0
H  H10  1  0.25165762  0.36743833  0.53235109  1  0  0.084732  0  0.973613  0  0  0.08999  0  1.047917  0  0  0.092908  0  1.045217  0  0  0.09073  0.087854  0  1.049875  0
H  H11  1  0.74834000  0.63255900  0.46764818  1  0  0.084724  0  0.973603  0  0  0.089982  0  1.047907  0  0  0.092899  0  1.045207  0  0  0.090732  0.087845  0  1.049865  0
H  H12  1  0.41167859  0.58199013  0.46228710  1  0  0.10067  0  0.968548  0  0  0.110214  0  1.030899  0  0  0.113057  0  1.03049  0  0  0.097656  0.10818  0  1.031338  0
H  H13  1  0.58831652  0.41801086  0.53771335  1  0  0.100668  0  0.968611  0  0  0.110213  0  1.030955  0  0  0.113058  0  1.030547  0  0  0.097633  0.108176  0  1.031398  0
H  H14  1  0.35418830  0.84420055  0.51013895  1  0  0.073445  0  0.963183  0  0  0.077927  0  1.037886  0  0  0.080622  0  1.03485  0  0  0.093108  0.075915  0  1.04021  0
H  H15  1  0.64580365  0.15579927  0.48986185  1  0  0.073413  0  0.963154  0  0  0.077898  0  1.037854  0  0  0.080598  0  1.034817  0  0  0.093085  0.075885  0  1.040179  0
H  H16  1  0.03225716  0.70965358  0.88711175  1  0  0.134724  0  0.9541  0  0  0.139533  0  1.026991  0  0  0.14378  0  1.022694  0  0  0.12155  0.136468  0  1.030073  0
H  H17  1  0.96773947  0.29034133  0.11288773  1  0  0.134686  0  0.954115  0  0  0.139522  0  1.026983  0  0  0.143769  0  1.022687  0  0  0.121541  0.136458  0  1.030064  0
H  H18  1  0.48634332  0.25775076  0.02489473  1  0  0.069216  0  1.016153  0  0  0.076065  0  1.092844  0  0  0.078241  0  1.091608  0  0  0.074093  0.074432  0  1.093826  0
H  H19  1  0.51365579  0.74225019  0.97510200  1  0  0.069213  0  1.016108  0  0  0.076066  0  1.092786  0  0  0.078243  0  1.091549  0  0  0.074105  0.074455  0  1.093751  0
H  H20  1  0.60723739  0.35101967  0.18818860  1  0  0.069861  0  1.003946  0  0  0.075602  0  1.079029  0  0  0.078177  0  1.077861  0  0  0.07474  0.073634  0  1.080038  0
H  H21  1  0.39276738  0.64898850  0.81181076  1  0  0.069861  0  1.003883  0  0  0.075586  0  1.078997  0  0  0.078162  0  1.07783  0  0  0.074767  0.073627  0  1.079999  0
H  H22  1  0.48049751  0.17413134  0.28173212  1  0  0.081061  0  0.969508  0  0  0.089832  0  1.036326  0  0  0.092277  0  1.036209  0  0  0.086023  0.088059  0  1.036509  0
H  H23  1  0.51950860  0.82587681  0.71826856  1  0  0.081114  0  0.969435  0  0  0.089865  0  1.036271  0  0  0.092325  0  1.036148  0  0  0.086073  0.088091  0  1.036453  0
H  H24  1  0.23102171  0.90526588  0.20924446  1  0  0.085973  0  0.995253  0  0  0.089638  0  1.071808  0  0  0.093041  0  1.069482  0  0  0.075742  0.087172  0  1.073605  0
H  H25  1  0.76899008  0.09473977  0.79075597  1  0  0.085891  0  0.995299  0  0  0.089538  0  1.071902  0  0  0.092941  0  1.069574  0  0  0.075713  0.087073  0  1.0737  0
H  H26  1  0.10162344  0.81601102  0.04793097  1  0  0.090204  0  0.959551  0  0  0.098411  0  1.028554  0  0  0.1015  0  1.026812  0  0  0.088189  0.096102  0  1.030045  0
H  H27  1  0.89838855  0.18398855  0.95207163  1  0  0.090155  0  0.959655  0  0  0.098363  0  1.028621  0  0  0.101449  0  1.026885  0  0  0.088224  0.096068  0  1.030097  0
C  C28  1  0.96276756  0.71093088  0.70587938  1  0  -0.089946  0  3.612501  0  0  -0.167494  0  3.853245  0  0  -0.165458  0  3.861703  0  0  -0.038316  -0.168769  0  3.847518  0
C  C29  1  0.03722874  0.28906646  0.29412049  1  0  -0.089929  0  3.612475  0  0  -0.167443  0  3.853266  0  0  -0.165407  0  3.861725  0  0  -0.038291  -0.168718  0  3.84754  0
C  C30  1  0.09260518  0.67092524  0.63901496  1  0  0.230043  0  3.711082  0  0  0.231117  0  3.960366  0  0  0.238033  0  3.982475  0  0  0.1171  0.226558  0  3.945287  0
C  C31  1  0.90738760  0.32907336  0.36098630  1  0  0.230119  0  3.711018  0  0  0.2311  0  3.960391  0  0  0.238016  0  3.9825  0  0  0.117167  0.226542  0  3.945311  0
C  C32  1  0.11707436  0.52032616  0.61579906  1  0  -0.152066  0  3.704211  0  0  -0.165872  0  3.940979  0  0  -0.173855  0  3.963803  0  0  -0.084342  -0.160685  0  3.92564  0
C  C33  1  0.88291842  0.47967244  0.38419965  1  0  -0.152188  0  3.704245  0  0  -0.165947  0  3.941027  0  0  -0.173932  0  3.963854  0  0  -0.084344  -0.160759  0  3.925688  0
C  C34  1  0.23332197  0.48555598  0.55206911  1  0  0.003659  0  3.718657  0  0  -0.010535  0  3.959679  0  0  -0.007679  0  3.979558  0  0  -0.070259  -0.012057  0  3.945976  0
C  C35  1  0.76667199  0.51443895  0.44793029  1  0  0.003776  0  3.718738  0  0  -0.010422  0  3.959751  0  0  -0.007563  0  3.979627  0  0  -0.07025  -0.011943  0  3.946046  0
C  C36  1  0.32157593  0.60274185  0.51339850  1  0  -0.123228  0  3.730135  0  0  -0.133641  0  3.973698  0  0  -0.140729  0  3.995503  0  0  -0.088681  -0.129025  0  3.958909  0
C  C37  1  0.67841685  0.39725674  0.48660148  1  0  -0.123338  0  3.730364  0  0  -0.133751  0  3.973915  0  0  -0.140846  0  3.995729  0  0  -0.088722  -0.129134  0  3.959126  0
C  C38  1  0.29013771  0.75035211  0.53998040  1  0  0.131675  0  3.718564  0  0  0.101353  0  3.973841  0  0  0.108634  0  3.991799  0  0  0.037888  0.096656  0  3.961577  0
C  C39  1  0.70984790  0.24964536  0.46001919  1  0  0.131765  0  3.718429  0  0  0.10144  0  3.973667  0  0  0.108713  0  3.991634  0  0  0.037978  0.096742  0  3.961409  0
C  C40  1  0.20746253  0.97692906  0.92840731  1  0  0.130443  0  3.76353  0  0  0.125145  0  4.020443  0  0  0.127179  0  4.042053  0  0  0.104985  0.123497  0  4.005879  0
C  C41  1  0.79254228  0.02306939  0.07159426  1  0  0.130477  0  3.763531  0  0  0.125148  0  4.02048  0  0  0.127183  0  4.042087  0  0  0.105008  0.123492  0  4.005927  0
C  C42  1  0.09360755  0.82293395  0.87372718  1  0  -0.06297  0  3.565455  0  0  -0.12659  0  3.821439  0  0  -0.123879  0  3.835211  0  0  0.040815  -0.128112  0  3.812062  0
C  C43  1  0.90639359  0.17706211  0.12627454  1  0  -0.06301  0  3.56555  0  0  -0.126622  0  3.821527  0  0  -0.123914  0  3.835302  0  0  0.040805  -0.128143  0  3.812157  0
C  C44  1  0.28197620  0.03257901  0.02476645  1  0  0.025066  0  3.812731  0  0  0.045934  0  4.036773  0  0  0.045122  0  4.06129  0  0  -0.013193  0.04655  0  4.020132  0
C  C45  1  0.71803728  0.96742419  0.97523617  1  0  0.025055  0  3.813004  0  0  0.045932  0  4.037026  0  0  0.045123  0  4.06154  0  0  -0.013195  0.04655  0  4.020393  0
C  C46  1  0.42563134  0.18257252  0.06567850  1  0  -0.100975  0  3.755718  0  0  -0.120957  0  3.996589  0  0  -0.12412  0  4.020074  0  0  -0.102238  -0.118758  0  3.980684  0
C  C47  1  0.57437912  0.81743314  0.93432253  1  0  -0.101057  0  3.75589  0  0  -0.121048  0  3.996775  0  0  -0.124214  0  4.020263  0  0  -0.102271  -0.118867  0  3.980855  0
C  C48  1  0.49533621  0.23410283  0.15766337  1  0  -0.089244  0  3.809561  0  0  -0.097721  0  4.055812  0  0  -0.100675  0  4.079338  0  0  -0.110335  -0.095568  0  4.039835  0
C  C49  1  0.50467341  0.76590407  0.84233720  1  0  -0.089128  0  3.809286  0  0  -0.097593  0  4.055506  0  0  -0.100547  0  4.079037  0  0  -0.110321  -0.095447  0  4.039529  0
C  C50  1  0.42535583  0.13524497  0.20993328  1  0  -0.065208  0  3.757226  0  0  -0.081578  0  4.007833  0  0  -0.083218  0  4.029427  0  0  -0.103271  -0.080307  0  3.993043  0
C  C51  1  0.57466214  0.86475939  0.79006583  1  0  -0.065375  0  3.757024  0  0  -0.081726  0  4.007638  0  0  -0.083385  0  4.029224  0  0  -0.103405  -0.080456  0  3.992849  0
C  C52  1  0.28502032  0.98430314  0.16947143  1  0  -0.068165  0  3.772627  0  0  -0.08526  0  4.032777  0  0  -0.087475  0  4.05449  0  0  -0.105514  -0.083692  0  4.017944  0
C  C53  1  0.71499865  0.01570364  0.83053067  1  0  -0.067985  0  3.77251  0  0  -0.085078  0  4.032636  0  0  -0.087292  0  4.054354  0  0  -0.10547  -0.083511  0  4.01781  0
C  C54  1  0.21261471  0.93368035  0.07791542  1  0  -0.096903  0  3.72076  0  0  -0.118493  0  3.968604  0  0  -0.121135  0  3.990327  0  0  -0.095685  -0.116594  0  3.953789  0
C  C55  1  0.78739827  0.06632163  0.92208634  1  0  -0.096889  0  3.720885  0  0  -0.118475  0  3.968774  0  0  -0.121116  0  3.990494  0  0  -0.095672  -0.116586  0  3.953958  0
Br  Br56  1  0.79212348  0.96306339  0.57900687  1  0  -0.385335  0  1.142627  0  0  -0.328855  0  1.471278  0  0  -0.349412  0  1.45157  0  0  -0.194005  -0.314984  0  1.484918  0
Br  Br57  1  0.20786346  0.03693407  0.42099212  1  0  -0.385356  0  1.142639  0  0  -0.328892  0  1.471323  0  0  -0.34945  0  1.451613  0  0  -0.194015  -0.315021  0  1.484962  0
Br  Br58  1  0.48985740  0.24766563  0.67840110  1  0  -0.369158  0  1.095711  0  0  -0.312108  0  1.402726  0  0  -0.332315  0  1.38405  0  0  -0.207779  -0.298449  0  1.415823  0
Br  Br59  1  0.51013670  0.75233296  0.32159445  1  0  -0.36915  0  1.095734  0  0  -0.312114  0  1.402778  0  0  -0.332321  0  1.384098  0  0  -0.207782  -0.298458  0  1.415874  0
Br  Br60  1  0.07341244  0.36465784  0.80067964  1  0  -0.383084  0  1.169119  0  0  -0.32847  0  1.494862  0  0  -0.3484  0  1.475045  0  0  -0.192363  -0.314735  0  1.508985  0
Br  Br61  1  0.92658435  0.63534071  0.19932045  1  0  -0.383087  0  1.169105  0  0  -0.32847  0  1.494835  0  0  -0.348399  0  1.475018  0  0  -0.192366  -0.31474  0  1.508958  0
Br  Br62  1  0.73064478  0.47254779  0.94308571  1  0  -0.349302  0  1.190738  0  0  -0.291733  0  1.516443  0  0  -0.312671  0  1.497618  0  0  -0.180657  -0.277236  0  1.529881  0
Br  Br63  1  0.26935686  0.52744949  0.05691303  1  0  -0.349328  0  1.190771  0  0  -0.291766  0  1.516487  0  0  -0.312696  0  1.497646  0  0  -0.180674  -0.277265  0  1.529917  0
N  N64  1  0.06688236  0.83592860  0.79039824  1  0  0.08858  0  3.573238  0  0  0.203344  0  3.759234  0  0  0.19758  0  3.781406  0  0  -0.117657  0.207013  0  3.744294  0
N  N65  1  0.93311427  0.16406630  0.20960188  1  0  0.088699  0  3.573186  0  0  0.203397  0  3.759227  0  0  0.197634  0  3.781401  0  0  -0.117651  0.207066  0  3.744288  0
N  N66  1  0.15577141  0.98713505  0.79084366  1  0  -0.107303  0  3.013949  0  0  -0.099373  0  3.291586  0  0  -0.104118  0  3.309406  0  0  -0.095585  -0.095938  0  3.279366  0
N  N67  1  0.84422522  0.01285985  0.20915646  1  0  -0.107336  0  3.013911  0  0  -0.09936  0  3.291529  0  0  -0.104105  0  3.309349  0  0  -0.095575  -0.095922  0  3.279306  0
N  N68  1  0.24128769  0.07252555  0.87374113  1  0  -0.216159  0  3.12042  0  0  -0.169961  0  3.407049  0  0  -0.182206  0  3.426729  0  0  -0.188603  -0.161286  0  3.393338  0
N  N69  1  0.75871127  0.92747175  0.12625881  1  0  -0.216155  0  3.120497  0  0  -0.169968  0  3.40713  0  0  -0.18221  0  3.426811  0  0  -0.188632  -0.16129  0  3.393418  0
N  N70  1  0.17810128  0.78368182  0.60113675  1  0  -0.335715  0  3.202426  0  0  -0.271752  0  3.464449  0  0  -0.291988  0  3.485908  0  0  -0.310092  -0.25788  0  3.44948  0
N  N71  1  0.82188784  0.21631439  0.39886401  1  0  -0.335767  0  3.202251  0  0  -0.271753  0  3.464293  0  0  -0.291984  0  3.485746  0  0  -0.310165  -0.25788  0  3.449323  0
