# generated using pymatgen
data_AgH28C20N5O3
_symmetry_space_group_name_H-M   'P 1'
_cell_length_a   9.30565048
_cell_length_b   10.10515997
_cell_length_c   11.36780000
_cell_angle_alpha   90.00000000
_cell_angle_beta   90.00000000
_cell_angle_gamma   94.53805615
_symmetry_Int_Tables_number   1
_chemical_formula_structural   AgH28C20N5O3
_chemical_formula_sum   'Ag2 H56 C40 N10 O6'
_cell_volume   1065.62083225
_cell_formula_units_Z   2
loop_
 _symmetry_equiv_pos_site_id
 _symmetry_equiv_pos_as_xyz
  1  'x, y, z'
loop_
 _atom_site_type_symbol
 _atom_site_label
 _atom_site_symmetry_multiplicity
 _atom_site_fract_x
 _atom_site_fract_y
 _atom_site_fract_z
 _atom_site_occupancy
 _atom_site_hle17_bader_spin_density
 _atom_site_hle17_ddec_charge
 _atom_site_hle17_ddec_spin_density
 _atom_site_hle17_ddec_sum_bond_order
 _atom_site_hle17_magmom
 _atom_site_hse06_10hf_bader_spin_density
 _atom_site_hse06_10hf_ddec_charge
 _atom_site_hse06_10hf_ddec_spin_density
 _atom_site_hse06_10hf_ddec_sum_bond_order
 _atom_site_hse06_10hf_magmom
 _atom_site_hse06_bader_spin_density
 _atom_site_hse06_ddec_charge
 _atom_site_hse06_ddec_spin_density
 _atom_site_hse06_ddec_sum_bond_order
 _atom_site_hse06_magmom
 _atom_site_pbe_bader_charge
 _atom_site_pbe_bader_spin_density
 _atom_site_pbe_cm5_charge
 _atom_site_pbe_ddec_charge
 _atom_site_pbe_ddec_spin_density
 _atom_site_pbe_ddec_sum_bond_order
 _atom_site_pbe_magmom
Ag  Ag0  1  0.25605209  0.15461687  0.71988687  1  0  0.465098  0  1.465364  0  0  0.317329  0  1.893323  0  0  0.346208  0  1.851499  0  0.568263  0  0.465347  0.297948  0  1.92218  0
Ag  Ag1  1  0.74394592  0.84538211  0.21988863  1  0  0.465114  0  1.465354  0  0  0.317393  0  1.893304  0  0  0.346272  0  1.851483  0  0.568275  0  0.46534  0.298008  0  1.922164  0
H  H2  1  0.97087345  0.29283226  0.66681504  1  0  0.077308  0  0.962259  0  0  0.084778  0  1.034347  0  0  0.087124  0  1.032122  0  0.076547  0  0.109182  0.08295  0  1.036518  0
H  H3  1  0.02912886  0.70716672  0.16681592  1  0  0.077266  0  0.962302  0  0  0.084735  0  1.034388  0  0  0.087081  0  1.032163  0  0.076523  0  0.109162  0.082907  0  1.036562  0
H  H4  1  0.77959295  0.39901999  0.60022344  1  0  0.039797  0  0.952229  0  0  0.045995  0  1.02484  0  0  0.047587  0  1.023036  0  0.068888  0  0.094167  0.044077  0  1.027231  0
H  H5  1  0.22041043  0.60097899  0.10022432  1  0  0.03977  0  0.9523  0  0  0.046012  0  1.024882  0  0  0.047603  0  1.02308  0  0.068938  0  0.094181  0.044094  0  1.027274  0
H  H6  1  0.73660725  0.31788517  0.40953659  1  0  0.072063  0  0.947079  0  0  0.092761  0  1.005093  0  0  0.093026  0  1.006292  0  0.055443  0  0.089652  0.092265  0  1.004754  0
H  H7  1  0.26339523  0.68211579  0.90953659  1  0  0.072062  0  0.947004  0  0  0.092775  0  1.005005  0  0  0.093044  0  1.0062  0  0.055438  0  0.089656  0.092279  0  1.00467  0
H  H8  1  0.85075923  0.44458220  0.34195975  1  0  0.06477  0  0.946804  0  0  0.082388  0  1.009963  0  0  0.083025  0  1.010748  0  -0.004894  0  0.085965  0.081706  0  1.009673  0
H  H9  1  0.14924415  0.55541678  0.84196063  1  0  0.064775  0  0.946843  0  0  0.082354  0  1.010039  0  0  0.08299  0  1.010824  0  -0.004864  0  0.085957  0.081673  0  1.00975  0
H  H10  1  0.65636086  0.57261540  0.31517708  1  0  0.063405  0  0.968636  0  0  0.073313  0  1.046359  0  0  0.074838  0  1.045392  0  0.055737  0  0.081609  0.072638  0  1.046978  0
H  H11  1  0.34364144  0.42738357  0.81517796  1  0  0.063403  0  0.968593  0  0  0.073295  0  1.046344  0  0  0.074818  0  1.045377  0  0.055743  0  0.081604  0.072621  0  1.046961  0
H  H12  1  0.53883473  0.45296162  0.38774433  1  0  0.060258  0  0.949109  0  0  0.079324  0  1.009253  0  0  0.079758  0  1.009859  0  0.027769  0  0.08577  0.079606  0  1.00787  0
H  H13  1  0.46116758  0.54703735  0.88774433  1  0  0.060258  0  0.949107  0  0  0.079335  0  1.009243  0  0  0.07977  0  1.009848  0  0.027747  0  0.085777  0.079618  0  1.007859  0
H  H14  1  0.62029759  0.70293878  0.48534985  1  0  0.060167  0  0.955503  0  0  0.074732  0  1.023367  0  0  0.075419  0  1.023307  0  0.044635  0  0.093992  0.07429  0  1.023559  0
H  H15  1  0.37970471  0.29706019  0.98534985  1  0  0.060124  0  0.955512  0  0  0.074684  0  1.023381  0  0  0.07537  0  1.023328  0  0.044616  0  0.093972  0.07424  0  1.023572  0
H  H16  1  0.57112998  0.55949680  0.57272295  1  0  0.026435  0  0.941169  0  0  0.04029  0  1.015016  0  0  0.041139  0  1.014088  0  0.019362  0  0.081733  0.04036  0  1.014896  0
H  H17  1  0.42887232  0.44050218  0.07272383  1  0  0.026434  0  0.941154  0  0  0.040298  0  1.014997  0  0  0.041149  0  1.014068  0  0.019342  0  0.081736  0.040363  0  1.014877  0
H  H18  1  0.92440904  0.64721226  0.69656222  1  0  0.079599  0  0.95869  0  0  0.100187  0  1.023944  0  0  0.100507  0  1.025074  0  0.022592  0  0.091776  0.099902  0  1.023349  0
H  H19  1  0.07559310  0.35278473  0.19656222  1  0  0.079652  0  0.958661  0  0  0.100239  0  1.023919  0  0  0.100561  0  1.025047  0  0.022638  0  0.091806  0.099953  0  1.023325  0
H  H20  1  0.74285956  0.58852053  0.73014216  1  0  0.060863  0  0.950582  0  0  0.076112  0  1.025875  0  0  0.077528  0  1.025049  0  0.023932  0  0.079305  0.075268  0  1.02608  0
H  H21  1  0.25714257  0.41147646  0.23014216  1  0  0.060868  0  0.950545  0  0  0.07613  0  1.025829  0  0  0.077547  0  1.025003  0  0.023948  0  0.079323  0.075286  0  1.026032  0
H  H22  1  0.78310698  0.75253932  0.67270712  1  0  0.082178  0  0.948324  0  0  0.107015  0  1.00398  0  0  0.10705  0  1.005631  0  0.036738  0  0.092445  0.107022  0  1.002872  0
H  H23  1  0.21689524  0.24745867  0.17270624  1  0  0.082147  0  0.948365  0  0  0.106988  0  1.004025  0  0  0.107022  0  1.005679  0  0.036687  0  0.092421  0.106995  0  1.002918  0
H  H24  1  0.05698137  0.60729061  0.41639895  1  0  0.099835  0  0.944098  0  0  0.109042  0  1.011724  0  0  0.111829  0  1.00927  0  0.099892  0  0.108942  0.106636  0  1.014181  0
H  H25  1  0.94302325  0.39271035  0.91639807  1  0  0.099847  0  0.944031  0  0  0.109064  0  1.011647  0  0  0.111848  0  1.009194  0  0.099916  0  0.108957  0.10666  0  1.014098  0
H  H26  1  0.31940378  0.57375999  0.43457925  1  0  0.108807  0  0.959127  0  0  0.11798  0  1.019628  0  0  0.120955  0  1.019044  0  0.090474  0  0.107102  0.116033  0  1.019486  0
H  H27  1  0.68059969  0.42623998  0.93457661  1  0  0.108689  0  0.959109  0  0  0.117918  0  1.019567  0  0  0.12089  0  1.018988  0  0.090486  0  0.107067  0.11597  0  1.019426  0
H  H28  1  0.39509073  0.39261207  0.56912771  1  0  0.077249  0  0.977568  0  0  0.082698  0  1.050499  0  0  0.085597  0  1.047492  0  0.092231  0  0.110051  0.080792  0  1.052282  0
H  H29  1  0.60491042  0.60738591  0.06912683  1  0  0.077269  0  0.97757  0  0  0.082712  0  1.050497  0  0  0.085609  0  1.047493  0  0.092267  0  0.110053  0.080806  0  1.05228  0
H  H30  1  0.96274243  0.17269404  0.86067225  1  0  0.079414  0  0.950494  0  0  0.089677  0  1.019168  0  0  0.091824  0  1.016656  0  0.089019  0  0.114284  0.088138  0  1.020754  0
H  H31  1  0.03725386  0.82730990  0.36067049  1  0  0.07945  0  0.95049  0  0  0.089718  0  1.019157  0  0  0.091865  0  1.016646  0  0.089326  0  0.114305  0.088183  0  1.020748  0
H  H32  1  0.77240955  0.17919626  0.98263340  1  0  0.051809  0  0.935308  0  0  0.062276  0  1.001301  0  0  0.063092  0  1.000718  0  0.087856  0  0.10411  0.061405  0  1.00254  0
H  H33  1  0.22758524  0.82080272  0.48263252  1  0  0.051805  0  0.935292  0  0  0.062265  0  1.0013  0  0  0.06308  0  1.000715  0  0.088124  0  0.10411  0.061396  0  1.002539  0
H  H34  1  0.82907873  0.29908333  0.16160647  1  0  0.073597  0  0.968364  0  0  0.090072  0  1.032954  0  0  0.09033  0  1.034955  0  0.070603  0  0.08894  0.089847  0  1.031849  0
H  H35  1  0.17091919  0.70091466  0.66160471  1  0  0.073642  0  0.968481  0  0  0.090126  0  1.033045  0  0  0.090384  0  1.035051  0  0.070564  0  0.088983  0.089901  0  1.03194  0
H  H36  1  0.85505016  0.15248652  0.24181372  1  0  0.066757  0  0.955246  0  0  0.08254  0  1.022802  0  0  0.083217  0  1.023145  0  0.032698  0  0.08698  0.082062  0  1.022492  0
H  H37  1  0.14494759  0.84750947  0.74181372  1  0  0.066763  0  0.955228  0  0  0.082539  0  1.0228  0  0  0.083239  0  1.023117  0  0.03269  0  0.086977  0.082061  0  1.022489  0
H  H38  1  0.60997184  0.13837422  0.29077218  1  0  0.059854  0  0.963045  0  0  0.076479  0  1.031228  0  0  0.077121  0  1.031111  0  -0.001481  0  0.086283  0.075843  0  1.031324  0
H  H39  1  0.39002625  0.86162575  0.79077042  1  0  0.059856  0  0.963037  0  0  0.076487  0  1.031223  0  0  0.077133  0  1.031104  0  -0.001458  0  0.086292  0.075853  0  1.031317  0
H  H40  1  0.57457951  0.26712615  0.19228171  1  0  0.072727  0  0.935753  0  0  0.095256  0  0.988917  0  0  0.095687  0  0.989977  0  0.003808  0  0.092069  0.095109  0  0.987935  0
H  H41  1  0.42541974  0.73287481  0.69227995  1  0  0.072733  0  0.935723  0  0  0.095274  0  0.988892  0  0  0.095706  0  0.98995  0  0.003822  0  0.09209  0.095128  0  0.987911  0
H  H42  1  0.48591082  0.99849106  0.14558490  1  0  0.063589  0  0.962129  0  0  0.076941  0  1.029349  0  0  0.076709  0  1.030555  0  0.031158  0  0.097015  0.076971  0  1.029281  0
H  H43  1  0.51408512  0.00150891  0.64558314  1  0  0.063573  0  0.962176  0  0  0.07693  0  1.029394  0  0  0.076696  0  1.030599  0  0.031202  0  0.097039  0.07696  0  1.029325  0
H  H44  1  0.52164161  0.12170173  0.03414029  1  0  0.056669  0  0.954711  0  0  0.070782  0  1.024916  0  0  0.071444  0  1.02442  0  0.053153  0  0.094067  0.070073  0  1.02571  0
H  H45  1  0.47835540  0.87829824  0.53413941  1  0  0.056674  0  0.954708  0  0  0.070787  0  1.024937  0  0  0.071449  0  1.02444  0  0.053175  0  0.094062  0.070075  0  1.025734  0
H  H46  1  0.58313945  0.85067422  0.97481835  1  0  0.099877  0  0.952108  0  0  0.122274  0  1.013413  0  0  0.123013  0  1.013273  0  0.067234  0  0.099996  0.121745  0  1.013494  0
H  H47  1  0.41685847  0.14932376  0.47481747  1  0  0.099908  0  0.952098  0  0  0.122303  0  1.013397  0  0  0.123043  0  1.013258  0  0.067273  0  0.100009  0.121767  0  1.013486  0
H  H48  1  0.76567498  0.88738546  0.93118281  1  0  0.09009  0  0.942377  0  0  0.112516  0  1.001085  0  0  0.112831  0  1.00236  0  0.038218  0  0.095527  0.112329  0  1.000181  0
H  H49  1  0.23432410  0.11261351  0.43118106  1  0  0.090086  0  0.942379  0  0  0.112514  0  1.001085  0  0  0.112834  0  1.002357  0  0.038231  0  0.095523  0.112326  0  1.00018  0
H  H50  1  0.63204569  0.99761549  0.88984324  1  0  0.08586  0  0.96306  0  0  0.102294  0  1.035455  0  0  0.10327  0  1.035393  0  0.030842  0  0.089376  0.101715  0  1.035232  0
H  H51  1  0.36795232  0.00238349  0.38984236  1  0  0.085855  0  0.963065  0  0  0.10229  0  1.035453  0  0  0.103275  0  1.035386  0  0.03083  0  0.089375  0.101711  0  1.035231  0
H  H52  1  0.98508032  0.97099609  0.19216383  1  0  0.076529  0  1.003627  0  0  0.084919  0  1.079531  0  0  0.088433  0  1.075126  0  0.058578  0  0.094114  0.08245  0  1.082551  0
H  H53  1  0.01491751  0.02900090  0.69216647  1  0  0.076502  0  1.003662  0  0  0.084894  0  1.079557  0  0  0.088409  0  1.075154  0  0.058605  0  0.094119  0.082424  0  1.082579  0
H  H54  1  0.22917824  0.90540704  0.13277151  1  0  0.106593  0  0.985962  0  0  0.110872  0  1.054125  0  0  0.113871  0  1.053461  0  0.129698  0  0.104516  0.108435  0  1.055449  0
H  H55  1  0.77082234  0.09459690  0.63277327  1  0  0.106574  0  0.986007  0  0  0.11085  0  1.054166  0  0  0.113848  0  1.053501  0  0.129603  0  0.104501  0.108422  0  1.055481  0
H  H56  1  0.33156645  0.98525234  0.93938845  1  0  0.076203  0  0.949617  0  0  0.085613  0  1.016118  0  0  0.087889  0  1.014008  0  0.102886  0  0.115712  0.083821  0  1.017948  0
H  H57  1  0.66843241  0.01475657  0.43939021  1  0  0.076129  0  0.949593  0  0  0.08554  0  1.016105  0  0  0.087816  0  1.013994  0  0.102845  0  0.115715  0.083747  0  1.017934  0
C  C58  1  0.04628847  0.35546305  0.61339661  1  0  0.05522  0  3.705966  0  0  0.019826  0  3.953216  0  0  0.024744  0  3.972759  0  0.455101  0  0.035977  0.015275  0  3.942662  0
C  C59  1  0.95371491  0.64453593  0.11339749  1  0  0.05532  0  3.706076  0  0  0.01994  0  3.953324  0  0  0.024855  0  3.972875  0  0.455051  0  0.036018  0.015386  0  3.942765  0
C  C60  1  0.99347868  0.45137032  0.54031915  1  0  0.015047  0  3.734076  0  0  0.034578  0  3.967445  0  0  0.030511  0  3.992102  0  0.016859  0  -0.000517  0.036441  0  3.95196  0
C  C61  1  0.00652363  0.54862866  0.04032003  1  0  0.015056  0  3.734152  0  0  0.034605  0  3.967536  0  0  0.030537  0  3.992194  0  0.016871  0  -0.000477  0.036478  0  3.952032  0
C  C62  1  0.83387053  0.46404320  0.53243636  1  0  0.070302  0  3.656825  0  0  0.056929  0  3.883986  0  0  0.05945  0  3.900136  0  0.314299  0  0.002077  0.055139  0  3.873504  0
C  C63  1  0.16613293  0.53595677  0.03243636  1  0  0.070354  0  3.657005  0  0  0.056912  0  3.884224  0  0  0.059432  0  3.900377  0  0.314241  0  0.002053  0.055123  0  3.873733  0
C  C64  1  0.76964157  0.42444219  0.41126163  1  0  -0.134988  0  3.61104  0  0  -0.178222  0  3.862485  0  0  -0.179606  0  3.875761  0  -0.038728  0  -0.158027  -0.177104  0  3.853708  0
C  C65  1  0.23036074  0.57555679  0.91126163  1  0  -0.134939  0  3.611144  0  0  -0.178145  0  3.862599  0  0  -0.179529  0  3.875877  0  -0.038749  0  -0.157994  -0.177028  0  3.853823  0
C  C66  1  0.64246546  0.51231053  0.39519872  1  0  -0.117702  0  3.641005  0  0  -0.157852  0  3.902568  0  0  -0.158871  0  3.91563  0  -0.064332  0  -0.165942  -0.157476  0  3.8931  0
C  C67  1  0.35753495  0.48769143  0.89519784  1  0  -0.117709  0  3.640985  0  0  -0.157873  0  3.902565  0  0  -0.158895  0  3.915641  0  -0.064343  0  -0.165959  -0.157501  0  3.893095  0
C  C68  1  0.64766690  0.60151604  0.50463590  1  0  0.000256  0  3.659493  0  0  -0.052948  0  3.922919  0  0  -0.049761  0  3.935365  0  0.290544  0  -0.074984  -0.054878  0  3.913499  0
C  C69  1  0.35233549  0.39848393  0.00463590  1  0  0.000349  0  3.659411  0  0  -0.052857  0  3.922828  0  0  -0.049668  0  3.935261  0  0.290594  0  -0.074973  -0.054777  0  3.9134  0
C  C70  1  0.81201724  0.64941508  0.66756013  1  0  -0.16525  0  3.748634  0  0  -0.256274  0  4.00324  0  0  -0.254206  0  4.014489  0  0.26273  0  -0.149524  -0.257723  0  3.995088  0
C  C71  1  0.18798489  0.35058191  0.16756013  1  0  -0.165222  0  3.748643  0  0  -0.256271  0  4.003258  0  0  -0.254204  0  4.014501  0  0.262702  0  -0.149534  -0.25772  0  3.995109  0
C  C72  1  0.09365705  0.53072224  0.47420081  1  0  -0.046223  0  3.692355  0  0  -0.074648  0  3.944293  0  0  -0.071432  0  3.961678  0  -0.07191  0  -0.063801  -0.075498  0  3.931666  0
C  C73  1  0.90634641  0.46927773  0.97419993  1  0  -0.046324  0  3.692393  0  0  -0.074763  0  3.944378  0  0  -0.071544  0  3.961761  0  -0.071955  0  -0.063845  -0.075616  0  3.93175  0
C  C74  1  0.23973079  0.51176255  0.48422474  1  0  -0.120661  0  3.759824  0  0  -0.129273  0  4.007058  0  0  -0.135801  0  4.028975  0  -0.003245  0  -0.085381  -0.124114  0  3.991172  0
C  C75  1  0.76027367  0.48823642  0.98422474  1  0  -0.120475  0  3.759956  0  0  -0.129127  0  4.007177  0  0  -0.135657  0  4.029097  0  -0.003229  0  -0.085326  -0.123969  0  3.991292  0
C  C76  1  0.28229284  0.41242648  0.55860853  1  0  0.096815  0  3.725061  0  0  0.067259  0  3.973026  0  0  0.073023  0  3.991782  0  0.46584  0  0.035431  0.061643  0  3.962338  0
C  C77  1  0.71770938  0.58757151  0.05860853  1  0  0.096711  0  3.725227  0  0  0.067169  0  3.973222  0  0  0.072939  0  3.991967  0  0.465834  0  0.035385  0.061553  0  3.962533  0
C  C78  1  0.02005725  0.11438648  0.92359384  1  0  0.071737  0  3.685145  0  0  0.029727  0  3.944146  0  0  0.036319  0  3.960576  0  0.509486  0  0.044795  0.026861  0  3.931324  0
C  C79  1  0.97994020  0.88561845  0.42359296  1  0  0.071875  0  3.684954  0  0  0.029895  0  3.943982  0  0  0.036487  0  3.960414  0  0.507778  0  0.044935  0.027018  0  3.931169  0
C  C80  1  0.95419003  0.07675599  0.03013160  1  0  0.019702  0  3.716707  0  0  0.038005  0  3.951581  0  0  0.034154  0  3.975815  0  -0.003932  0  0.000144  0.040394  0  3.935925  0
C  C81  1  0.04580608  0.92324596  0.53013248  1  0  0.019705  0  3.716544  0  0  0.037918  0  3.95157  0  0  0.034065  0  3.97581  0  -0.003141  0  8.7e-05  0.040308  0  3.935913  0
C  C82  1  0.80597647  0.11792548  0.05698728  1  0  0.068942  0  3.622526  0  0  0.055068  0  3.844018  0  0  0.057656  0  3.861416  0  0.231611  0  0.002159  0.052647  0  3.833597  0
C  C83  1  0.19401948  0.88207449  0.55698728  1  0  0.06892  0  3.622501  0  0  0.055069  0  3.843987  0  0  0.057656  0  3.861392  0  0.231096  0  0.002139  0.052647  0  3.833561  0
C  C84  1  0.79068492  0.19453555  0.17215292  1  0  -0.155192  0  3.648543  0  0  -0.204591  0  3.911866  0  0  -0.205982  0  3.924963  0  -0.047673  0  -0.164054  -0.203558  0  3.902971  0
C  C85  1  0.20931300  0.80546244  0.67215204  1  0  -0.155277  0  3.648599  0  0  -0.204667  0  3.911952  0  0  -0.206076  0  3.925045  0  -0.047653  0  -0.164107  -0.203636  0  3.90306  0
C  C86  1  0.62778874  0.17445510  0.20050933  1  0  -0.115337  0  3.639839  0  0  -0.158386  0  3.902509  0  0  -0.158999  0  3.915016  0  0.012331  0  -0.163628  -0.157373  0  3.893191  0
C  C87  1  0.37221051  0.82554586  0.70050845  1  0  -0.115325  0  3.639699  0  0  -0.15841  0  3.90245  0  0  -0.159027  0  3.914961  0  0.01233  0  -0.16365  -0.1574  0  3.893134  0
C  C88  1  0.56757933  0.07166044  0.11016995  1  0  -0.021969  0  3.620386  0  0  -0.075363  0  3.874697  0  0  -0.071934  0  3.887642  0  0.270004  0  -0.080881  -0.077971  0  3.866643  0
C  C89  1  0.43241876  0.92833953  0.61016907  1  0  -0.021972  0  3.620436  0  0  -0.075385  0  3.874789  0  0  -0.071953  0  3.88773  0  0.269918  0  -0.080899  -0.077988  0  3.866728  0
C  C90  1  0.66712434  0.93122632  0.95961928  1  0  -0.189173  0  3.689837  0  0  -0.287058  0  3.940962  0  0  -0.284724  0  3.952023  0  0.246263  0  -0.156998  -0.288408  0  3.932811  0
C  C91  1  0.33287367  0.06877266  0.45961752  1  0  -0.189199  0  3.689855  0  0  -0.287098  0  3.940969  0  0  -0.28478  0  3.952023  0  0.246205  0  -0.157005  -0.288441  0  3.932825  0
C  C92  1  0.03192719  0.00200527  0.10755115  1  0  -0.054492  0  3.713302  0  0  -0.078419  0  3.957027  0  0  -0.076109  0  3.974684  0  -0.05233  0  -0.069521  -0.081066  0  3.946866  0
C  C93  1  0.96806991  0.99799570  0.60755291  1  0  -0.054535  0  3.713293  0  0  -0.078418  0  3.957033  0  0  -0.076112  0  3.974692  0  -0.052366  0  -0.069552  -0.081065  0  3.946872  0
C  C94  1  0.16808319  0.96654381  0.07548954  1  0  -0.116776  0  3.746479  0  0  -0.124062  0  3.990142  0  0  -0.130836  0  4.01259  0  -0.077294  0  -0.086318  -0.121346  0  3.97831  0
C  C95  1  0.83191516  0.03345914  0.57548954  1  0  -0.116803  0  3.746501  0  0  -0.124087  0  3.99016  0  0  -0.130862  0  4.012614  0  -0.077297  0  -0.0863  -0.121379  0  3.978322  0
C  C96  1  0.22471235  0.00917359  0.96740530  1  0  0.119728  0  3.705454  0  0  0.08836  0  3.955259  0  0  0.094946  0  3.973357  0  0.483238  0  0.044437  0.084169  0  3.944389  0
C  C97  1  0.77528625  0.99083233  0.46740706  1  0  0.119911  0  3.705368  0  0  0.088556  0  3.95517  0  0  0.095141  0  3.973262  0  0.483262  0  0.044459  0.084366  0  3.944301  0
N  N98  1  0.18712561  0.33472741  0.62223033  1  0  -0.295264  0  3.329213  0  0  -0.2148  0  3.609077  0  0  -0.231732  0  3.625744  0  -1.219529  0  -0.343076  -0.204107  0  3.599867  0
N  N99  1  0.81287652  0.66526958  0.12223121  1  0  -0.29524  0  3.329315  0  0  -0.214814  0  3.609199  0  0  -0.23175  0  3.625866  0  -1.219473  0  -0.343071  -0.204119  0  3.599986  0
N  N100  1  0.79620278  0.60192007  0.54722198  1  0  -0.222262  0  3.207128  0  0  -0.144865  0  3.467096  0  0  -0.160037  0  3.488187  0  -1.007005  0  -0.344141  -0.133429  0  3.451502  0
N  N101  1  0.20379944  0.39807791  0.04722198  1  0  -0.222418  0  3.207242  0  0  -0.144993  0  3.467219  0  0  -0.16016  0  3.488313  0  -1.00702  0  -0.344154  -0.133562  0  3.451624  0
N  N102  1  0.15243851  0.08239754  0.89215240  1  0  -0.294833  0  3.312879  0  0  -0.218114  0  3.599954  0  0  -0.234378  0  3.614515  0  -1.20445  0  -0.339142  -0.206589  0  3.589019  0
N  N103  1  0.84755803  0.91760938  0.39215328  1  0  -0.295013  0  3.312972  0  0  -0.218326  0  3.600107  0  0  -0.234588  0  3.61466  0  -1.20353  0  -0.339227  -0.2068  0  3.589177  0
N  N104  1  0.69480213  0.00407208  0.07030032  1  0  -0.19744  0  3.227789  0  0  -0.088242  0  3.46573  0  0  -0.107388  0  3.487306  0  -0.961684  0  -0.342504  -0.07378  0  3.450118  0
N  N105  1  0.30519489  0.99592789  0.57029944  1  0  -0.197399  0  3.227781  0  0  -0.088145  0  3.465631  0  0  -0.10729  0  3.487204  0  -0.9616  0  -0.342485  -0.073684  0  3.450016  0
N  N106  1  0.59618392  0.23114653  0.74636869  1  0  0.68485  0  4.157242  0  0  0.72882  0  4.435278  0  0  0.757616  0  4.439274  0  0.813884  0  0.089001  0.709603  0  4.431586  0
N  N107  1  0.40381632  0.76885344  0.24636869  1  0  0.684873  0  4.15721  0  0  0.728862  0  4.435225  0  0  0.757655  0  4.439225  0  0.813886  0  0.089007  0.709645  0  4.431534  0
O  O108  1  0.72533977  0.25320842  0.78099544  1  0  -0.48713  0  1.73752  0  0  -0.482881  0  1.953026  0  0  -0.496947  0  1.945426  0  -0.561618  0  -0.203313  -0.472785  0  1.958051  0
O  O109  1  0.27466047  0.74679155  0.28099544  1  0  -0.487118  0  1.737523  0  0  -0.482883  0  1.953014  0  0  -0.496948  0  1.945414  0  -0.561633  0  -0.203307  -0.47279  0  1.958042  0
O  O110  1  0.49929710  0.18760249  0.81960010  1  0  -0.488046  0  1.80465  0  0  -0.470218  0  2.045944  0  0  -0.486963  0  2.035895  0  -0.56678  0  -0.205337  -0.458033  0  2.052313  0
O  O111  1  0.50070305  0.81239649  0.31960098  1  0  -0.488051  0  1.804647  0  0  -0.470234  0  2.045918  0  0  -0.486985  0  2.035886  0  -0.56679  0  -0.205341  -0.458047  0  2.052288  0
O  O112  1  0.56290254  0.24995135  0.63996288  1  0  -0.477256  0  1.742572  0  0  -0.468834  0  1.954845  0  0  -0.483054  0  1.947464  0  -0.563539  0  -0.196971  -0.458387  0  1.959431  0
O  O113  1  0.43709770  0.75004862  0.13996288  1  0  -0.477292  0  1.742564  0  0  -0.468856  0  1.954847  0  0  -0.483072  0  1.947463  0  -0.56354  0  -0.196972  -0.458409  0  1.959432  0
