# generated using pymatgen
data_CoH18C18(NO3)2
_symmetry_space_group_name_H-M   'P 1'
_cell_length_a   9.34893195
_cell_length_b   13.00549818
_cell_length_c   19.90244480
_cell_angle_alpha   109.08206250
_cell_angle_beta   102.78406965
_cell_angle_gamma   89.96687521
_symmetry_Int_Tables_number   1
_chemical_formula_structural   CoH18C18(NO3)2
_chemical_formula_sum   'Co4 H72 C72 N8 O24'
_cell_volume   2223.45731759
_cell_formula_units_Z   4
loop_
 _symmetry_equiv_pos_site_id
 _symmetry_equiv_pos_as_xyz
  1  'x, y, z'
loop_
 _atom_site_type_symbol
 _atom_site_label
 _atom_site_symmetry_multiplicity
 _atom_site_fract_x
 _atom_site_fract_y
 _atom_site_fract_z
 _atom_site_occupancy
 _atom_site_pbe_bader_charge
 _atom_site_pbe_bader_spin_density
 _atom_site_pbe_cm5_charge
 _atom_site_pbe_ddec_charge
 _atom_site_pbe_ddec_spin_density
 _atom_site_pbe_ddec_sum_bond_order
 _atom_site_pbe_magmom
Co  Co0  1  0.17495543  0.13604145  0.72498703  1  1.296433  2.640169  0.67529  0.904737  2.869229  2.466157  2.62
Co  Co1  1  0.32507740  0.41144337  0.27503653  1  1.299211  2.639921  0.675515  0.905517  2.869788  2.465457  2.621
Co  Co2  1  0.82501119  0.86392281  0.27500819  1  1.296331  2.640147  0.675444  0.904802  2.869255  2.467453  2.62
Co  Co3  1  0.67487904  0.58860575  0.72496670  1  1.299203  2.639947  0.675384  0.905213  2.869891  2.465425  2.621
H  H4  1  0.86967074  0.17956718  0.75323220  1  0.070248  0.001911  0.120482  0.089831  0.000428  0.982354  0.001
H  H5  1  0.61002216  0.13454857  0.68104904  1  0.092002  0.001168  0.108116  0.120772  0.000559  1.00864  0.0
H  H6  1  0.77895355  0.97139969  0.49074054  1  0.093695  0.000998  0.106495  0.113541  0.000471  1.035241  0.0
H  H7  1  0.03060549  0.02249972  0.57154369  1  0.096337  0.001867  0.115048  0.084616  0.00064  1.029649  0.001
H  H8  1  0.15494494  0.24163353  0.88254150  1  0.09851  0.001884  0.119276  0.097499  0.000607  0.986595  0.001
H  H9  1  0.08933746  0.18540676  0.98052090  1  0.092931  0.001021  0.108348  0.113443  0.000471  1.007485  0.0
H  H10  1  0.00678699  0.85505500  0.82606573  1  0.121172  0.001086  0.110287  0.128902  0.000536  1.011981  0.0
H  H11  1  0.07556043  0.92586387  0.73561922  1  0.132826  0.001444  0.118896  0.096712  0.000174  1.019521  0.001
H  H12  1  0.43649065  0.05185084  0.56769258  1  0.099018  3.6e-05  0.10216  0.10381  3e-06  1.027891  0.0
H  H13  1  0.96896193  0.88317501  0.94414662  1  0.058309  6.8e-05  0.106229  0.107091  6.8e-05  0.998505  0.0
H  H14  1  0.46228726  0.32660482  0.59352956  1  0.090203  0.000953  0.104341  0.127336  0.000252  1.014113  0.0
H  H15  1  0.15180342  0.20941836  0.52362835  1  0.10286  0.000302  0.103204  0.095  0.000118  1.012172  0.0
H  H16  1  0.04306147  0.21527819  0.39902306  1  0.101562  0.001322  0.1056  0.124627  0.000482  1.003649  0.001
H  H17  1  0.36714757  0.30850057  0.45721031  1  0.070607  0.000371  0.101713  0.094059  0.000166  1.020256  0.0
H  H18  1  0.42549773  0.23465964  0.77287534  1  0.621091  0.000327  0.282922  0.368928  0.000236  0.971287  0.0
H  H19  1  0.43575281  0.10795648  0.76480142  1  0.623714  0.000125  0.277301  0.364013  0.000149  0.990078  0.0
H  H20  1  0.05296993  0.33514871  0.74676912  1  0.668431  0.000467  0.285851  0.387035  0.000364  0.952678  0.001
H  H21  1  0.22774582  0.34106135  0.76614792  1  0.622627  0.000236  0.304831  0.386629  2.5e-05  0.922825  0.0
H  H22  1  0.63027959  0.42642765  0.24674372  1  0.054208  0.001908  0.120557  0.089785  0.000432  0.982578  0.001
H  H23  1  0.88995608  0.45346176  0.31894556  1  0.089228  0.001176  0.10819  0.120926  0.000561  1.009056  0.0
H  H24  1  0.72105943  0.48068352  0.50921975  1  0.078358  0.00101  0.106369  0.113534  0.000471  1.03528  0.0
H  H25  1  0.46939123  0.45128199  0.42844502  1  0.096828  0.001869  0.115382  0.085137  0.000641  1.028976  0.001
H  H26  1  0.34484203  0.35951100  0.11716454  1  0.117018  0.001878  0.119081  0.097837  0.000603  0.986834  0.001
H  H27  1  0.41051663  0.20500314  0.01928250  1  0.079939  0.001036  0.108433  0.113405  0.000474  1.007339  0.0
H  H28  1  0.49398019  0.02986471  0.17414689  1  0.105298  0.001089  0.110237  0.128248  0.000532  1.012876  0.0
H  H29  1  0.42516078  0.19131750  0.26443782  1  0.137608  0.001445  0.118801  0.096508  0.00017  1.020475  0.001
H  H30  1  0.06346351  0.48424706  0.43225919  1  0.083431  3.4e-05  0.102048  0.103568  3e-06  1.028011  0.0
H  H31  1  0.53110584  0.93927712  0.05605650  1  0.05677  6.4e-05  0.106001  0.106776  7e-05  0.998848  0.0
H  H32  1  0.03779216  0.73355568  0.40651389  1  0.082728  0.00096  0.104628  0.127873  0.000253  1.013986  0.001
H  H33  1  0.34820854  0.68571836  0.47625125  1  0.072555  0.000305  0.103382  0.095011  0.000118  1.012996  0.0
H  H34  1  0.45743908  0.81619357  0.60082044  1  0.083947  0.001345  0.105999  0.124796  0.000483  1.004345  0.001
H  H35  1  0.13319395  0.85149405  0.54293393  1  0.076277  0.000368  0.101708  0.093916  0.000167  1.021443  0.0
H  H36  1  0.07425335  0.46193233  0.22706721  1  0.630829  0.000291  0.283229  0.370133  0.000232  0.969623  0.0
H  H37  1  0.06440053  0.34337423  0.23527742  1  0.624985  0.000114  0.277251  0.364211  0.000148  0.989834  0.0
H  H38  1  0.44703795  0.58861474  0.25327521  1  0.650032  0.000517  0.2858  0.386828  0.000369  0.952591  0.001
H  H39  1  0.27224646  0.57520849  0.23385772  1  0.61842  0.000226  0.305001  0.387151  2.5e-05  0.922501  0.0
H  H40  1  0.13026716  0.82036843  0.24674342  1  0.070557  0.001911  0.120474  0.089892  0.000428  0.982416  0.001
H  H41  1  0.38993627  0.86541058  0.31890614  1  0.092213  0.001169  0.108128  0.12081  0.00056  1.008529  0.0
H  H42  1  0.22107887  0.02857355  0.50922305  1  0.094334  0.000997  0.106442  0.113497  0.000471  1.035422  0.0
H  H43  1  0.96940895  0.97746961  0.42845256  1  0.096643  0.001865  0.114973  0.084448  0.000638  1.029858  0.001
H  H44  1  0.84506583  0.75836851  0.11745234  1  0.09886  0.001885  0.119325  0.097596  0.000608  0.986553  0.001
H  H45  1  0.91077987  0.81464264  0.01951041  1  0.079924  0.001032  0.108281  0.113353  0.000471  1.007925  0.0
H  H46  1  0.99330475  0.14495340  0.17400360  1  0.114876  0.00109  0.11034  0.129043  0.000536  1.011709  0.0
H  H47  1  0.92441908  0.07412056  0.26441315  1  0.13189  0.001443  0.118863  0.096902  0.000174  1.019286  0.001
H  H48  1  0.56351687  0.94811663  0.43224819  1  0.099717  3.6e-05  0.102026  0.103655  4e-06  1.027601  0.0
H  H49  1  0.03123089  0.11685973  0.05591976  1  0.057093  6.8e-05  0.10628  0.107282  6.8e-05  0.998382  0.0
H  H50  1  0.53770132  0.67335575  0.40645226  1  0.090123  0.000954  0.104453  0.127479  0.000252  1.014216  0.0
H  H51  1  0.84817713  0.79054293  0.47635094  1  0.103382  0.000302  0.103099  0.094832  0.000118  1.012302  0.0
H  H52  1  0.95690628  0.78472590  0.60097033  1  0.101488  0.001322  0.105673  0.124712  0.000482  1.003516  0.001
H  H53  1  0.63282161  0.69148421  0.54277768  1  0.070907  0.000371  0.101589  0.093896  0.000166  1.020318  0.0
H  H54  1  0.57449133  0.76529990  0.22709977  1  0.620968  0.000329  0.282898  0.368832  0.000238  0.971428  0.0
H  H55  1  0.56424349  0.89200261  0.23518950  1  0.624083  0.000126  0.277465  0.364321  0.000151  0.989647  0.0
H  H56  1  0.94701872  0.66483443  0.25321483  1  0.668642  0.00047  0.285954  0.38718  0.000367  0.952522  0.001
H  H57  1  0.77224183  0.65890869  0.23383437  1  0.623924  0.000237  0.304808  0.38662  2.7e-05  0.922641  0.0
H  H58  1  0.36968513  0.57360635  0.75324041  1  0.054837  0.001907  0.120482  0.089612  0.000432  0.982579  0.001
H  H59  1  0.11001823  0.54653983  0.68102503  1  0.090619  0.001174  0.108213  0.120961  0.000561  1.008918  0.0
H  H60  1  0.27895285  0.51931431  0.49075366  1  0.077737  0.001011  0.106485  0.113758  0.000471  1.035223  0.0
H  H61  1  0.53061336  0.54873689  0.57154849  1  0.096968  0.001869  0.115343  0.085105  0.000641  1.028946  0.001
H  H62  1  0.65515519  0.64049158  0.88283633  1  0.117065  0.001876  0.119067  0.097783  0.000602  0.986936  0.001
H  H63  1  0.58953827  0.79496511  0.98076228  1  0.079844  0.001036  0.108374  0.113259  0.000473  1.007354  0.0
H  H64  1  0.50603523  0.97020673  0.82595660  1  0.106257  0.001088  0.110379  0.128567  0.000532  1.012719  0.0
H  H65  1  0.57483799  0.80879382  0.73563139  1  0.137799  0.001445  0.118703  0.096287  0.00017  1.0207  0.001
H  H66  1  0.93653713  0.51574775  0.56769494  1  0.080813  3.4e-05  0.102167  0.103857  4e-06  1.027556  0.0
H  H67  1  0.46890853  0.06072258  0.94403903  1  0.058099  6.3e-05  0.106295  0.106946  6.9e-05  0.999176  0.0
H  H68  1  0.96219121  0.26646686  0.59346943  1  0.086586  0.000957  0.104661  0.127946  0.000253  1.014095  0.001
H  H69  1  0.65176639  0.31429873  0.52372990  1  0.074028  0.000305  0.103319  0.094857  0.000118  1.012984  0.0
H  H70  1  0.54255575  0.18378861  0.39916907  1  0.083084  0.001346  0.106007  0.124722  0.000484  1.004371  0.001
H  H71  1  0.86679808  0.14851956  0.45706002  1  0.076182  0.000368  0.101746  0.093925  0.000167  1.021507  0.0
H  H72  1  0.92569418  0.53808498  0.77291412  1  0.631155  0.000291  0.283119  0.369893  0.000233  0.969894  0.0
H  H73  1  0.93554747  0.65665407  0.76471890  1  0.624091  0.000112  0.27725  0.364197  0.000148  0.989858  0.0
H  H74  1  0.55294171  0.41138540  0.74670289  1  0.65025  0.000517  0.285901  0.386979  0.000368  0.952339  0.001
H  H75  1  0.72772720  0.42480824  0.76612144  1  0.618512  0.000224  0.305014  0.387158  2.3e-05  0.922099  0.0
C  C76  1  0.84420337  0.13411298  0.69474685  1  0.434328  -0.010866  0.044083  0.091056  -0.011992  3.972991  -0.006
C  C77  1  0.70011857  0.10944293  0.65426607  1  0.019532  0.00362  -0.079188  -0.158796  0.001377  3.909313  0.004
C  C78  1  0.67082773  0.05023332  0.57895151  1  0.006098  -0.014679  0.007122  0.150971  -0.015508  4.014085  -0.009
C  C79  1  0.79297732  0.01810898  0.54854987  1  -0.026947  0.004636  -0.084703  -0.176898  0.001976  3.943327  0.004
C  C80  1  0.93330659  0.04599651  0.59281639  1  0.489804  -0.008735  0.037634  0.08315  -0.008949  3.966645  -0.005
C  C81  1  0.12158415  0.15674279  0.87306502  1  0.464821  -0.006653  0.038645  0.078066  -0.006969  3.975734  -0.003
C  C82  1  0.08475961  0.12429904  0.92724262  1  -0.06588  0.00455  -0.085233  -0.180284  0.001998  3.951096  0.004
C  C83  1  0.04182418  0.01363995  0.91254611  1  -1.1e-05  -0.014463  0.003993  0.143262  -0.01529  4.039035  -0.009
C  C84  1  0.03892108  0.94174308  0.84185919  1  -0.056071  0.003211  -0.07978  -0.168957  0.001008  3.908531  0.003
C  C85  1  0.07658023  0.98055517  0.79047785  1  0.484907  -0.011506  0.046379  0.099286  -0.012629  3.936596  -0.007
C  C86  1  0.52036259  0.02560224  0.53659847  1  -0.194659  -0.009704  -0.081002  -0.116252  -0.010432  3.954744  -0.005
C  C87  1  0.00082172  0.97079534  0.96507036  1  -0.079807  -0.009775  -0.08065  -0.119341  -0.010586  3.965152  -0.005
C  C88  1  0.33546640  0.25938406  0.65289625  1  1.546973  -0.001622  0.203059  0.607473  -0.002401  4.213545  -0.001
C  C89  1  0.35969002  0.28075227  0.58748304  1  -0.108014  0.004263  -0.09763  -0.244601  0.002079  3.888913  0.003
C  C90  1  0.25436423  0.25051134  0.52439574  1  -0.03105  -0.001393  -0.076638  -0.024761  -0.001686  4.017115  -0.001
C  C91  1  0.15647266  0.28319893  0.33567172  1  1.548273  0.00133  0.204502  0.608926  0.000337  4.205008  0.001
C  C92  1  0.14956522  0.25094415  0.39993064  1  -0.05467  0.004378  -0.086471  -0.215233  0.002074  3.858077  0.004
C  C93  1  0.26371615  0.27150683  0.45893052  1  -0.058175  0.000369  -0.080686  -0.040089  1.4e-05  4.02059  0.0
C  C94  1  0.65576251  0.43948994  0.30523515  1  0.437395  -0.010883  0.044253  0.09178  -0.012015  3.975023  -0.006
C  C95  1  0.79984426  0.45520109  0.34570682  1  0.098026  0.003638  -0.079334  -0.159784  0.001382  3.912133  0.004
C  C96  1  0.82914748  0.47129707  0.42101850  1  -0.000977  -0.01471  0.007022  0.150619  -0.015528  4.016307  -0.009
C  C97  1  0.70702299  0.46960695  0.45141868  1  -0.061221  0.004608  -0.084324  -0.176406  0.001982  3.943004  0.004
C  C98  1  0.56669760  0.45340403  0.40717460  1  0.483644  -0.008697  0.036765  0.081761  -0.008966  3.966407  -0.005
C  C99  1  0.37846437  0.28418379  0.12675753  1  0.397704  -0.006584  0.039976  0.078152  -0.007  3.977574  -0.003
C  C100  1  0.41534023  0.19740752  0.07263920  1  0.000872  0.004558  -0.085856  -0.179829  0.002018  3.950219  0.004
C  C101  1  0.45851586  0.10154630  0.08746542  1  -0.04839  -0.014521  0.0038  0.141691  -0.015337  4.037646  -0.009
C  C102  1  0.46175581  0.10066283  0.15824780  1  0.04273  0.003168  -0.079859  -0.16707  0.000984  3.908972  0.003
C  C103  1  0.42405888  0.19097169  0.20955144  1  0.423827  -0.011515  0.045894  0.098154  -0.012651  3.93919  -0.007
C  C104  1  0.97963204  0.48901914  0.46335936  1  -0.002299  -0.009676  -0.080887  -0.115854  -0.010431  3.956225  -0.005
C  C105  1  0.49933630  0.00590889  0.03503796  1  0.030751  -0.009725  -0.080172  -0.118589  -0.010568  3.964592  -0.005
C  C106  1  0.16451518  0.60679593  0.34706237  1  1.520822  -0.001648  0.202865  0.607709  -0.00244  4.213563  -0.001
C  C107  1  0.14031046  0.69357318  0.41250179  1  -0.127912  0.004279  -0.097858  -0.245006  0.002086  3.888674  0.003
C  C108  1  0.24575017  0.72624168  0.47555956  1  0.035713  -0.001445  -0.076629  -0.024922  -0.001721  4.017942  -0.001
C  C109  1  0.34403105  0.94742866  0.66435229  1  1.553804  0.001295  0.203681  0.608071  0.000328  4.206898  0.001
C  C110  1  0.35091995  0.85100581  0.59999764  1  0.008019  0.004328  -0.086563  -0.215434  0.00206  3.860885  0.004
C  C111  1  0.23662014  0.81271132  0.54107498  1  -0.102532  0.000388  -0.080889  -0.039903  8e-06  4.022924  0.0
C  C112  1  0.15574056  0.86583288  0.30522354  1  0.434424  -0.010885  0.044052  0.091026  -0.012011  3.972412  -0.006
C  C113  1  0.29984595  0.89051236  0.34569097  1  0.018681  0.003627  -0.078986  -0.15865  0.00138  3.908674  0.004
C  C114  1  0.32916559  0.94973295  0.42099861  1  0.004543  -0.014695  0.007147  0.151165  -0.015523  4.013339  -0.009
C  C115  1  0.20702475  0.98186262  0.45141531  1  -0.025018  0.004643  -0.084709  -0.177255  0.001978  3.943699  0.004
C  C116  1  0.06668916  0.95397116  0.40716762  1  0.488181  -0.008735  0.037761  0.083533  -0.008953  3.966504  -0.005
C  C117  1  0.87845371  0.84326523  0.12695186  1  0.46212  -0.006658  0.038473  0.077581  -0.006977  3.97613  -0.003
C  C118  1  0.91534455  0.87572872  0.07279803  1  -0.053426  0.004548  -0.085124  -0.179842  0.002003  3.951746  0.004
C  C119  1  0.95831117  0.98638857  0.08750996  1  0.001986  -0.014477  0.004237  0.143166  -0.015309  4.039541  -0.009
C  C120  1  0.96116934  0.05826520  0.15819783  1  -0.048242  0.003217  -0.080178  -0.16902  0.001012  3.90852  0.003
C  C121  1  0.92343767  0.01943270  0.20955797  1  0.484459  -0.011519  0.046248  0.098368  -0.012644  3.936448  -0.007
C  C122  1  0.47964232  0.97437119  0.46334416  1  0.06445  -0.009653  -0.081117  -0.116393  -0.010417  3.954126  -0.005
C  C123  1  0.99933913  0.02923842  0.03499338  1  0.026282  -0.009737  -0.080935  -0.120016  -0.010564  3.965728  -0.005
C  C124  1  0.66451344  0.74058808  0.34707675  1  1.546668  -0.001627  0.202862  0.607158  -0.002407  4.214114  -0.001
C  C125  1  0.64028560  0.71921765  0.41248937  1  -0.109305  0.004265  -0.097772  -0.244812  0.002079  3.889545  0.003
C  C126  1  0.74560914  0.74945218  0.47558007  1  -0.03004  -0.001398  -0.076398  -0.024483  -0.001691  4.017323  -0.001
C  C127  1  0.84348859  0.71683311  0.66432915  1  1.546809  0.001326  0.204587  0.609211  0.000333  4.205009  0.001
C  C128  1  0.85039448  0.74905460  0.60005419  1  -0.051961  0.004376  -0.086493  -0.215411  0.002072  3.857958  0.004
C  C129  1  0.73625875  0.72846904  0.54105106  1  -0.059277  0.000369  -0.080619  -0.039897  1.3e-05  4.020741  0.0
C  C130  1  0.34420440  0.56052889  0.69474447  1  0.437913  -0.010879  0.044472  0.09214  -0.012015  3.975297  -0.006
C  C131  1  0.20013063  0.54480439  0.65426278  1  0.096513  0.003633  -0.079345  -0.159717  0.001381  3.912004  0.004
C  C132  1  0.17084757  0.52870374  0.57895054  1  -0.003041  -0.014711  0.007224  0.150982  -0.015527  4.015675  -0.009
C  C133  1  0.29298281  0.53039462  0.54855925  1  -0.058551  0.004607  -0.08466  -0.177102  0.001981  3.943435  0.004
C  C134  1  0.43329921  0.54661066  0.59281392  1  0.482133  -0.008694  0.036743  0.081992  -0.008963  3.966605  -0.005
C  C135  1  0.62153897  0.71583351  0.87327341  1  0.398564  -0.00657  0.039917  0.078208  -0.00699  3.977621  -0.003
C  C136  1  0.58469250  0.80259216  0.92741326  1  0.000251  0.00455  -0.085719  -0.179659  0.002014  3.950581  0.004
C  C137  1  0.54151315  0.89847022  0.91260946  1  -0.049393  -0.014504  0.003897  0.142194  -0.015319  4.038237  -0.009
C  C138  1  0.53825761  0.89940017  0.84183917  1  0.043215  0.003162  -0.080056  -0.167662  0.000979  3.909896  0.003
C  C139  1  0.57594396  0.80910907  0.79051581  1  0.423294  -0.011507  0.045897  0.098396  -0.01264  3.939206  -0.007
C  C140  1  0.02037806  0.51097252  0.53659816  1  -0.098111  -0.009686  -0.080827  -0.1158  -0.010431  3.955997  -0.005
C  C141  1  0.50067855  0.99409181  0.96505287  1  -0.072488  -0.009761  -0.080489  -0.11907  -0.010594  3.96505  -0.005
C  C142  1  0.83547478  0.39321694  0.65292191  1  1.518502  -0.001636  0.203178  0.608116  -0.002433  4.212905  -0.001
C  C143  1  0.85966894  0.30644273  0.58747899  1  -0.130687  0.004275  -0.097839  -0.245186  0.002085  3.889147  0.003
C  C144  1  0.75423557  0.27377932  0.52442385  1  0.035194  -0.001438  -0.076593  -0.024561  -0.001713  4.017816  -0.001
C  C145  1  0.65597691  0.05253055  0.33564526  1  1.552986  0.001306  0.204044  0.608573  0.000332  4.206468  0.001
C  C146  1  0.64907764  0.14897646  0.39998708  1  0.009018  0.004334  -0.086567  -0.215225  0.002063  3.860197  0.004
C  C147  1  0.76337718  0.18729857  0.45891365  1  -0.102557  0.000389  -0.08094  -0.040221  1e-05  4.022307  0.0
N  N148  1  0.96028667  0.10349750  0.66501349  1  -1.238147  0.062263  -0.337135  -0.262692  0.03285  3.617477  0.054
N  N149  1  0.11766253  0.08652646  0.80524909  1  -1.224346  0.064758  -0.332927  -0.259857  0.034464  3.595947  0.055
N  N150  1  0.53970807  0.43874619  0.33497952  1  -1.233635  0.06234  -0.337195  -0.262335  0.032927  3.617519  0.054
N  N151  1  0.38259459  0.28202630  0.19462758  1  -1.213593  0.064736  -0.333015  -0.25969  0.034459  3.598217  0.055
N  N152  1  0.03967264  0.89645650  0.33496501  1  -1.237808  0.062268  -0.33726  -0.262844  0.03285  3.616707  0.054
N  N153  1  0.88233031  0.91346145  0.19476805  1  -1.222492  0.064763  -0.332508  -0.258803  0.034467  3.594968  0.055
N  N154  1  0.46026831  0.56128438  0.66500772  1  -1.233713  0.062329  -0.337172  -0.262562  0.032921  3.617726  0.054
N  N155  1  0.61738999  0.71802628  0.80540594  1  -1.212968  0.064715  -0.332818  -0.259687  0.034451  3.597667  0.055
O  O156  1  0.23933072  0.18288914  0.64279921  1  -1.166205  0.05902  -0.316894  -0.574529  0.031015  2.342673  0.051
O  O157  1  0.41026655  0.31862857  0.71662092  1  -1.200367  -0.001002  -0.320253  -0.586538  -0.002415  2.188461  -0.001
O  O158  1  0.28427083  0.31320379  0.33113544  1  -1.157114  0.086091  -0.322791  -0.578378  0.04437  2.373052  0.072
O  O159  1  0.03628681  0.28140570  0.29051876  1  -1.171087  0.008366  -0.312281  -0.545899  0.003569  2.149676  0.007
O  O160  1  0.39506638  0.17811106  0.79151979  1  -1.237767  0.065771  -0.595175  -0.763574  0.034214  2.079624  0.052
O  O161  1  0.14086411  0.30680983  0.77273262  1  -1.259116  0.061686  -0.572315  -0.754029  0.032089  2.101273  0.049
O  O162  1  0.26059906  0.54030337  0.35713427  1  -1.162311  0.059292  -0.317259  -0.574838  0.031103  2.344431  0.051
O  O163  1  0.08981323  0.60241712  0.28333030  1  -1.200716  -0.00102  -0.319816  -0.586914  -0.002438  2.189504  -0.001
O  O164  1  0.21615515  0.98187266  0.66895275  1  -1.158885  0.086348  -0.322367  -0.577789  0.044536  2.374725  0.073
O  O165  1  0.46416955  0.99075380  0.70951287  1  -1.173133  0.008399  -0.312612  -0.545647  0.003583  2.148495  0.007
O  O166  1  0.10483853  0.38675761  0.20848073  1  -1.247464  0.065757  -0.595392  -0.765008  0.034219  2.077811  0.052
O  O167  1  0.35917925  0.53433386  0.22732937  1  -1.23891  0.062013  -0.571979  -0.754092  0.032249  2.102959  0.049
O  O168  1  0.76065372  0.81708483  0.35716749  1  -1.166083  0.059071  -0.316974  -0.574454  0.031041  2.342943  0.051
O  O169  1  0.58971860  0.68134539  0.28335228  1  -1.200489  -0.001007  -0.320022  -0.586256  -0.002422  2.189216  -0.001
O  O170  1  0.71569102  0.68685057  0.66887218  1  -1.157394  0.086094  -0.322853  -0.578437  0.04437  2.373268  0.072
O  O171  1  0.96367152  0.71864189  0.70949027  1  -1.170928  0.008369  -0.312371  -0.546081  0.003571  2.149778  0.007
O  O172  1  0.60496316  0.82185972  0.20847549  1  -1.238044  0.065797  -0.595326  -0.763796  0.034228  2.079767  0.052
O  O173  1  0.85912295  0.69320891  0.22728105  1  -1.260615  0.061732  -0.572278  -0.754095  0.032115  2.101356  0.049
O  O174  1  0.73939113  0.45971391  0.64284627  1  -1.161839  0.059261  -0.317363  -0.574988  0.031085  2.343556  0.051
O  O175  1  0.91018315  0.39759971  0.71665629  1  -1.200404  -0.001019  -0.320017  -0.587142  -0.002435  2.189022  -0.001
O  O176  1  0.78384667  0.01807137  0.33104432  1  -1.158235  0.086365  -0.322671  -0.578197  0.044559  2.3749  0.073
O  O177  1  0.53584942  0.00920325  0.29049311  1  -1.173109  0.008408  -0.31271  -0.545882  0.003587  2.148703  0.007
O  O178  1  0.89511189  0.61325942  0.79150682  1  -1.246537  0.065746  -0.595236  -0.764629  0.034215  2.078253  0.052
O  O179  1  0.64078648  0.46566874  0.77266416  1  -1.239397  0.061977  -0.572132  -0.754199  0.032233  2.10204  0.049
