# generated using pymatgen
data_Zr3H26C30NO16
_symmetry_space_group_name_H-M   'P 1'
_cell_length_a   14.77819132
_cell_length_b   14.78291957
_cell_length_c   14.80764412
_cell_angle_alpha   60.02488665
_cell_angle_beta   59.92179489
_cell_angle_gamma   60.02526804
_symmetry_Int_Tables_number   1
_chemical_formula_structural   Zr3H26C30NO16
_chemical_formula_sum   'Zr6 H52 C60 N2 O32'
_cell_volume   2286.96462509
_cell_formula_units_Z   2
loop_
 _symmetry_equiv_pos_site_id
 _symmetry_equiv_pos_as_xyz
  1  'x, y, z'
loop_
 _atom_site_type_symbol
 _atom_site_label
 _atom_site_symmetry_multiplicity
 _atom_site_fract_x
 _atom_site_fract_y
 _atom_site_fract_z
 _atom_site_occupancy
 _atom_site_pbe_bader_charge
 _atom_site_pbe_bader_spin_density
 _atom_site_pbe_cm5_charge
 _atom_site_pbe_ddec_charge
 _atom_site_pbe_ddec_spin_density
 _atom_site_pbe_ddec_sum_bond_order
 _atom_site_pbe_magmom
Zr  Zr0  1  0.88007417  0.88132173  0.61381760  1  2.633728  0  1.630645  2.367585  0  2.765325  0
Zr  Zr1  1  0.12432945  0.11430766  0.38045655  1  2.628616  0  1.630932  2.363837  0  2.783229  0
Zr  Zr2  1  0.11903599  0.87655241  0.61814571  1  2.628253  0  1.629908  2.368109  0  2.769093  0
Zr  Zr3  1  0.88459202  0.12156716  0.37501049  1  2.636321  0  1.627512  2.371092  0  2.747315  0
Zr  Zr4  1  0.12087738  0.87927694  0.37728733  1  2.634568  0  1.632392  2.369353  0  2.770574  0
Zr  Zr5  1  0.88284560  0.11791341  0.61645619  1  2.630116  0  1.629418  2.369475  0  2.760647  0
H  H6  1  0.09131090  0.71614406  0.59243560  1  0.598551  0  0.333223  0.42674  0  0.853955  0
H  H7  1  0.09855343  0.09502213  0.21486271  1  0.598766  0  0.332398  0.425333  0  0.855352  0
H  H8  1  0.09674017  0.08717022  0.59528734  1  0.604941  0  0.331766  0.42252  0  0.85888  0
H  H9  1  0.71984787  0.09796761  0.58680033  1  0.59683  0  0.33068  0.420599  0  0.862357  0
H  H10  1  0.16464748  0.56078852  0.39634013  1  0.087007  0  0.102293  0.10724  0  1.022614  0
H  H11  1  0.83725138  0.44299968  0.58635173  1  0.075622  0  0.102617  0.107314  0  1.030029  0
H  H12  1  0.63434929  0.08619131  0.94523209  1  0.072022  0  0.102269  0.107043  0  1.031518  0
H  H13  1  0.38242186  0.89340526  0.06111770  1  0.078715  0  0.101907  0.105916  0  1.026843  0
H  H14  1  0.85991798  0.13570405  0.09042551  1  0.08583  0  0.103418  0.107884  0  1.028499  0
H  H15  1  0.13086380  0.84952418  0.91680254  1  0.077515  0  0.100978  0.105446  0  1.030223  0
H  H16  1  0.61177722  0.42573141  0.34174713  1  0.106512  0  0.103419  0.108936  0  1.026143  0
H  H17  1  0.40962504  0.59037922  0.63666828  1  0.074998  0  0.104062  0.110708  0  1.020511  0
H  H18  1  0.74477128  0.61206730  0.95285852  1  0.041466  0  0.089747  0.095739  0  1.002982  0
H  H19  1  0.85158042  0.52483346  0.87236681  1  0.039205  0  0.090968  0.098525  0  0.992451  0
H  H20  1  0.85237943  0.35925920  0.04590581  1  0.022879  0  0.090634  0.098892  0  0.995031  0
H  H21  1  0.74602415  0.44635051  0.12655067  1  0.03917  0  0.089719  0.095268  0  1.000012  0
H  H22  1  0.59912689  0.86108016  0.63114203  1  0.08294  0  0.105923  0.111501  0  1.029137  0
H  H23  1  0.40994861  0.13120919  0.35832906  1  0.071245  0  0.105081  0.109829  0  1.031454  0
H  H24  1  0.28031401  0.40426372  0.35343254  1  0.010327  0  0.088449  0.120881  0  1.00489  0
H  H25  1  0.24497906  0.28101451  0.43523861  1  0.037482  0  0.093051  0.134491  0  1.003312  0
H  H26  1  0.22206159  0.36060598  0.30782375  1  0.053375  0  0.092693  0.133719  0  1.00906  0
H  H27  1  0.72110906  0.60196387  0.62701983  1  0.011379  0  0.088769  0.121779  0  1.005864  0
H  H28  1  0.78096169  0.63437406  0.68156604  1  0.047676  0  0.095502  0.134294  0  1.002262  0
H  H29  1  0.75992937  0.72329877  0.55425131  1  0.057014  0  0.094774  0.139873  0  1.00593  0
H  H30  1  0.55384526  0.11440692  0.11344526  1  0.024255  0  0.089162  0.122357  0  1.003719  0
H  H31  1  0.41117486  0.18663618  0.12574384  1  0.034711  0  0.09272  0.129967  0  0.993062  0
H  H32  1  0.44890299  0.05871912  0.22687238  1  0.063431  0  0.09471  0.140024  0  1.018035  0
H  H33  1  0.55725395  0.91924790  0.78388167  1  0.035705  0  0.092795  0.135174  0  1.011254  0
H  H34  1  0.61793666  0.79502677  0.87456513  1  0.058523  0  0.095927  0.134821  0  1.007239  0
H  H35  1  0.47123594  0.84601688  0.90655139  1  0.024213  0  0.087389  0.119316  0  1.005778  0
H  H36  1  0.76721618  0.22551744  0.97120818  1  0.028183  0  0.087458  0.118562  0  1.00686  0
H  H37  1  0.84920285  0.22697691  0.83214244  1  0.074068  0  0.097615  0.142508  0  0.992232  0
H  H38  1  0.76293632  0.14570619  0.91509844  1  0.041076  0  0.094317  0.134682  0  1.018532  0
H  H39  1  0.21860220  0.75520963  0.04037387  1  0.020386  0  0.084008  0.113354  0  1.011678  0
H  H40  1  0.22734952  0.83553260  0.09228675  1  0.048848  0  0.094872  0.135982  0  1.008823  0
H  H41  1  0.13787044  0.75749801  0.17869950  1  0.059696  0  0.097644  0.144428  0  0.995356  0
H  H42  1  0.49598864  0.55138424  0.24531055  1  0.037197  0  0.086391  0.116109  0  1.012441  0
H  H43  1  0.35350537  0.60411225  0.32300346  1  0.072514  0  0.093308  0.133427  0  1.011212  0
H  H44  1  0.43621186  0.68835364  0.25075886  1  0.10651  0  0.096966  0.143846  0  0.993571  0
H  H45  1  0.52811852  0.46850443  0.73012198  1  -0.001277  0  0.086882  0.117286  0  1.008649  0
H  H46  1  0.58831400  0.33060447  0.72695022  1  0.071327  0  0.096735  0.141298  0  0.994954  0
H  H47  1  0.67009894  0.41612146  0.65128041  1  0.057092  0  0.093486  0.132603  0  1.016158  0
H  H48  1  0.47919197  0.76780573  0.72869245  1  0.037645  0  0.088116  0.120518  0  1.007302  0
H  H49  1  0.33965060  0.84020860  0.72823467  1  0.043391  0  0.094042  0.136925  0  1.00545  0
H  H50  1  0.43274782  0.75431613  0.64687869  1  0.047897  0  0.096632  0.140258  0  0.996658  0
H  H51  1  0.52711555  0.22729752  0.26342622  1  -0.009233  0  0.087031  0.118101  0  1.00868  0
H  H52  1  0.59031323  0.23070239  0.33731015  1  0.059212  0  0.096205  0.138785  0  1.000923  0
H  H53  1  0.66846592  0.14649454  0.25398022  1  0.054352  0  0.096073  0.138559  0  1.000885  0
H  H54  1  0.13622025  0.37987750  0.18225053  1  0.484086  0  0.295475  0.301555  0  0.998747  0
H  H55  1  0.19419954  0.47774154  0.07207251  1  0.403791  0  0.298071  0.282929  0  0.969537  0
H  H56  1  0.10800011  0.71082060  0.88505440  1  0.478157  0  0.294575  0.299773  0  1.00163  0
H  H57  1  0.11537642  0.64504833  0.01614569  1  0.409312  0  0.298452  0.284535  0  0.966338  0
C  C58  1  0.99326148  0.70165797  0.49061042  1  1.540803  0  0.237445  0.646761  0  4.085332  0
C  C59  1  0.31329700  0.99285639  0.19947635  1  1.538718  0  0.23743  0.647234  0  4.080939  0
C  C60  1  0.00876745  0.30050036  0.49547032  1  1.540271  0  0.236097  0.645606  0  4.085723  0
C  C61  1  0.69797759  0.99527068  0.80164996  1  1.533129  0  0.236994  0.645186  0  4.088212  0
C  C62  1  0.98702948  0.70444108  0.80995929  1  1.507344  0  0.232922  0.657286  0  4.086829  0
C  C63  1  0.70064865  0.00382156  0.48642842  1  1.562284  0  0.236321  0.640878  0  4.089717  0
C  C64  1  0.99580217  0.31258797  0.20416437  1  1.509619  0  0.233857  0.659246  0  4.081145  0
C  C65  1  0.31013056  0.98666461  0.50139438  1  1.546181  0  0.236002  0.640175  0  4.090944  0
C  C66  1  0.30890598  0.69773998  0.49156749  1  1.534021  0  0.237045  0.645032  0  4.08106  0
C  C67  1  0.99301771  0.99378478  0.80839853  1  1.547294  0  0.235751  0.641668  0  4.087976  0
C  C68  1  0.70545270  0.31094546  0.49307789  1  1.525472  0  0.23725  0.64475  0  4.083737  0
C  C69  1  0.00141542  0.99460254  0.19516777  1  1.553855  0  0.237255  0.644272  0  4.083792  0
C  C70  1  0.00975600  0.40283717  0.49181323  1  -0.060569  0  -0.014774  -0.09124  0  3.930847  0
C  C71  1  0.99204139  0.60067498  0.49168914  1  -0.013843  0  -0.014622  -0.090866  0  3.929856  0
C  C72  1  0.10570517  0.43395931  0.43653257  1  0.027478  0  -0.000311  0.160176  0  3.943292  0
C  C73  1  0.89624083  0.56942166  0.54711618  1  0.009389  0  0.001484  0.162586  0  3.942508  0
C  C74  1  0.09293819  0.53346578  0.43788339  1  -0.052773  0  -0.088419  -0.162448  0  3.960914  0
C  C75  1  0.90886363  0.47032588  0.54507650  1  -0.004618  0  -0.085824  -0.155713  0  3.954135  0
C  C76  1  0.41646486  0.99157890  0.10050898  1  -0.047549  0  -0.015017  -0.092511  0  3.932148  0
C  C77  1  0.59916812  0.98987855  0.90482228  1  -0.046832  0  -0.013869  -0.089059  0  3.927308  0
C  C78  1  0.48806034  0.04638665  0.07058718  1  -0.029477  0  0.001598  0.163362  0  3.940075  0
C  C79  1  0.52931589  0.93229414  0.93628370  1  -0.011695  0  0.00054  0.16146  0  3.936351  0
C  C80  1  0.57747691  0.04420468  0.97208204  1  0.029526  0  -0.086607  -0.158677  0  3.9568  0
C  C81  1  0.43920480  0.93553369  0.03423202  1  -0.012916  0  -0.087908  -0.161703  0  3.961816  0
C  C82  1  0.98892455  0.99589180  0.91034380  1  -0.037652  0  -0.016276  -0.094485  0  3.92771  0
C  C83  1  0.00079257  0.98846203  0.09761196  1  -0.113682  0  -0.013523  -0.08954  0  3.918746  0
C  C84  1  0.90911511  0.07946658  0.95859077  1  0.030967  0  0.002755  0.166469  0  3.929882  0
C  C85  1  0.07951189  0.90383260  0.05049843  1  0.041136  0  0.000983  0.162755  0  3.933734  0
C  C86  1  0.91859548  0.07244974  0.05129994  1  -0.02618  0  -0.086996  -0.161411  0  3.955932  0
C  C87  1  0.07061783  0.91147381  0.95723048  1  -0.007676  0  -0.090221  -0.164308  0  3.966389  0
C  C88  1  0.41437203  0.60133425  0.48517496  1  -0.044624  0  -0.014869  -0.094523  0  3.924031  0
C  C89  1  0.60611892  0.41384106  0.49402894  1  -0.037015  0  -0.014899  -0.092858  0  3.92281  0
C  C90  1  0.47119712  0.55687033  0.39810264  1  0.047745  0  0.002746  0.165612  0  3.930725  0
C  C91  1  0.55100034  0.46012855  0.57953087  1  -0.01793  0  0.002109  0.162591  0  3.935001  0
C  C92  1  0.56585364  0.46347865  0.40627714  1  -0.039331  0  -0.086917  -0.159282  0  3.95223  0
C  C93  1  0.45587618  0.55305212  0.57177133  1  -0.019937  0  -0.087591  -0.158774  0  3.953483  0
C  C94  1  0.98062135  0.61534941  0.91794070  1  0.01632  0  -0.029933  -0.196117  0  3.977361  0
C  C95  1  0.98502986  0.42072411  0.11539657  1  0.017154  0  -0.031768  -0.201142  0  3.983231  0
C  C96  1  0.91042295  0.55385005  0.96445284  1  -0.028485  0  -0.024845  0.039167  0  3.960164  0
C  C97  1  0.05243004  0.48447261  0.07489702  1  0.423753  0  0.100158  0.194921  0  4.008981  0
C  C98  1  0.91127923  0.46232946  0.05946013  1  -0.009308  0  -0.023721  0.043183  0  3.959936  0
C  C99  1  0.04759177  0.58309666  0.97922565  1  0.44569  0  0.098919  0.191656  0  3.990645  0
C  C100  1  0.82373981  0.54293572  0.94752964  1  -0.021698  0  -0.154624  -0.192119  0  3.900601  0
C  C101  1  0.82438602  0.43859289  0.05666663  1  -0.005412  0  -0.154683  -0.190288  0  3.90212  0
C  C102  1  0.41083649  0.98686709  0.50210014  1  -0.021945  0  -0.015945  -0.095853  0  3.927767  0
C  C103  1  0.59965343  0.00396042  0.48595368  1  -0.095787  0  -0.015196  -0.094314  0  3.926633  0
C  C104  1  0.46301944  0.90766588  0.58240848  1  -0.016571  0  0.002726  0.166153  0  3.933819  0
C  C105  1  0.54723789  0.08340818  0.40587716  1  0.060417  0  0.001711  0.164388  0  3.933839  0
C  C106  1  0.55627147  0.91985230  0.57117688  1  -0.0494  0  -0.087674  -0.164747  0  3.960681  0
C  C107  1  0.45342382  0.07179263  0.41766594  1  0.010031  0  -0.087489  -0.163891  0  3.9621  0
C  C108  1  0.21931442  0.36648722  0.38018474  1  -0.015736  0  -0.241028  -0.408629  0  3.979594  0
C  C109  1  0.78332920  0.63588186  0.60546791  1  -0.032804  0  -0.240018  -0.411471  0  3.9734  0
C  C110  1  0.47509963  0.10421914  0.13802905  1  -0.040932  0  -0.240822  -0.408812  0  3.974359  0
C  C111  1  0.54446040  0.87010359  0.87176376  1  -0.020583  0  -0.240104  -0.409957  0  3.975231  0
C  C112  1  0.81709974  0.17456973  0.91724988  1  -0.063886  0  -0.239423  -0.410438  0  3.971819  0
C  C113  1  0.17070888  0.80781266  0.09264227  1  -0.044596  0  -0.240077  -0.409406  0  3.975881  0
C  C114  1  0.43755112  0.60239504  0.29893494  1  -0.124457  0  -0.240441  -0.409961  0  3.973938  0
C  C115  1  0.58605761  0.41658967  0.67731729  1  -0.038411  0  -0.239646  -0.40773  0  3.976478  0
C  C116  1  0.42661863  0.81242625  0.67691907  1  -0.035228  0  -0.239132  -0.410653  0  3.974364  0
C  C117  1  0.58504975  0.17728010  0.31005063  1  -0.016944  0  -0.238557  -0.40794  0  3.973969  0
N  N118  1  0.12416796  0.45762725  0.12525201  1  -1.2188  0  -0.600239  -0.604787  0  3.330054  0
N  N119  1  0.11549764  0.63918994  0.95041699  1  -1.2069  0  -0.604405  -0.616521  0  3.344004  0
O  O120  1  0.91732836  0.74205987  0.56721430  1  -1.179701  0  -0.351782  -0.610771  0  2.307165  0
O  O121  1  0.27107121  0.07104850  0.23826465  1  -1.174917  0  -0.35504  -0.615553  0  2.301258  0
O  O122  1  0.08647195  0.25744887  0.42112301  1  -1.185621  0  -0.356041  -0.614933  0  2.31893  0
O  O123  1  0.73772587  0.92147392  0.75810775  1  -1.17698  0  -0.354686  -0.610571  0  2.330479  0
O  O124  1  0.06803436  0.74185775  0.76415871  1  -1.19239  0  -0.371833  -0.634274  0  2.32734  0
O  O125  1  0.74140270  0.08043700  0.41143998  1  -1.182878  0  -0.348896  -0.60557  0  2.309154  0
O  O126  1  0.92531755  0.26700106  0.23668601  1  -1.180814  0  -0.360517  -0.616716  0  2.283155  0
O  O127  1  0.26727209  0.91217044  0.57841152  1  -1.179477  0  -0.349561  -0.606264  0  2.310409  0
O  O128  1  0.26559092  0.73696238  0.41783525  1  -1.180687  0  -0.353487  -0.609809  0  2.326922  0
O  O129  1  0.91899289  0.07058716  0.76499214  1  -1.180522  0  -0.353419  -0.607915  0  2.330708  0
O  O130  1  0.74630827  0.26770350  0.56979571  1  -1.181468  0  -0.356522  -0.613711  0  2.323305  0
O  O131  1  0.07891441  0.92036843  0.23485708  1  -1.18818  0  -0.355566  -0.611067  0  2.332783  0
O  O132  1  0.07130177  0.91657226  0.76962475  1  -1.187287  0  -0.352228  -0.626221  0  2.279496  0
O  O133  1  0.74223425  0.27101403  0.41724740  1  -1.182299  0  -0.351558  -0.621177  0  2.28156  0
O  O134  1  0.92606554  0.07399580  0.23167363  1  -1.185641  0  -0.350552  -0.619847  0  2.273382  0
O  O135  1  0.26725210  0.73395858  0.57146040  1  -1.17944  0  -0.355584  -0.622405  0  2.27775  0
O  O136  1  0.91601305  0.73755413  0.76541613  1  -1.172025  0  -0.34817  -0.6092  0  2.241787  0
O  O137  1  0.27220340  0.06305315  0.42330162  1  -1.19762  0  -0.357019  -0.625823  0  2.313409  0
O  O138  1  0.07583928  0.26748567  0.24216942  1  -1.196318  0  -0.356422  -0.629549  0  2.29712  0
O  O139  1  0.73917624  0.92660013  0.56382330  1  -1.18704  0  -0.356013  -0.623315  0  2.313242  0
O  O140  1  0.73616167  0.07299929  0.76349856  1  -1.173992  0  -0.352391  -0.624374  0  2.267839  0
O  O141  1  0.07226244  0.73905069  0.41514485  1  -1.186163  0  -0.354852  -0.625232  0  2.283804  0
O  O142  1  0.27206769  0.91777136  0.23680255  1  -1.17868  0  -0.352659  -0.621737  0  2.283166  0
O  O143  1  0.93029580  0.26292146  0.57201198  1  -1.187405  0  -0.350978  -0.622712  0  2.273526  0
O  O144  1  0.80019566  0.06950076  0.56123185  1  -1.22312  0  -0.694592  -1.068384  0  2.374539  0
O  O145  1  0.06992014  0.06152929  0.56751125  1  -1.232451  0  -0.69861  -1.071844  0  2.38184  0
O  O146  1  0.07158624  0.06657387  0.29506045  1  -1.226944  0  -0.696523  -1.072463  0  2.368197  0
O  O147  1  0.06600934  0.79641106  0.56426862  1  -1.224026  0  -0.696047  -1.073395  0  2.366709  0
O  O148  1  0.15136738  0.94618747  0.44898587  1  -1.19737  0  -0.795903  -1.149439  0  2.143788  0
O  O149  1  0.95207121  0.95169813  0.44509285  1  -1.202404  0  -0.791417  -1.148974  0  2.133244  0
O  O150  1  0.95467864  0.14763482  0.44768623  1  -1.195993  0  -0.792204  -1.14653  0  2.136254  0
O  O151  1  0.95001169  0.94903588  0.64559491  1  -1.194706  0  -0.792813  -1.148222  0  2.138985  0
