# generated using pymatgen
data_ZnH7C13(NO2)2
_symmetry_space_group_name_H-M   'P 1'
_cell_length_a   11.94381237
_cell_length_b   11.80987289
_cell_length_c   13.13781502
_cell_angle_alpha   85.85579282
_cell_angle_beta   89.67296175
_cell_angle_gamma   85.45389459
_symmetry_Int_Tables_number   1
_chemical_formula_structural   ZnH7C13(NO2)2
_chemical_formula_sum   'Zn2 H14 C26 N4 O8'
_cell_volume   1842.49285420
_cell_formula_units_Z   2
loop_
 _symmetry_equiv_pos_site_id
 _symmetry_equiv_pos_as_xyz
  1  'x, y, z'
loop_
 _atom_site_type_symbol
 _atom_site_label
 _atom_site_symmetry_multiplicity
 _atom_site_fract_x
 _atom_site_fract_y
 _atom_site_fract_z
 _atom_site_occupancy
 _atom_site_pbe_bader_charge
 _atom_site_pbe_bader_spin_density
 _atom_site_pbe_cm5_charge
 _atom_site_pbe_ddec_charge
 _atom_site_pbe_ddec_spin_density
 _atom_site_pbe_ddec_sum_bond_order
 _atom_site_pbe_magmom
Zn  Zn0  1  0.48925377  0.61802653  0.50189161  1  1.280223  0  0.664854  0.809595  0  2.443502  0
Zn  Zn1  1  0.50706717  0.38251006  0.49755723  1  1.277763  0  0.665654  0.811271  0  2.443282  0
H  H2  1  0.48170557  0.35934831  0.17906704  1  0.0315  0  0.097906  0.100324  0  1.041275  0
H  H3  1  0.51799554  0.22916413  0.09497062  1  0.447916  0  0.29854  0.28787  0  0.97572  0
H  H4  1  0.55202518  0.81911170  0.02280956  1  0.427036  0  0.301695  0.292113  0  0.950209  0
H  H5  1  0.57253764  0.75759674  0.91174467  1  0.446578  0  0.300217  0.290901  0  0.966303  0
H  H6  1  0.60108956  0.81245302  0.40823358  1  0.139088  0  0.13533  0.113173  0  0.964637  0
H  H7  1  0.39400236  0.18815187  0.59044292  1  0.140138  0  0.136583  0.115291  0  0.962638  0
H  H8  1  0.51943875  0.64227754  0.82053099  1  0.109517  0  0.097848  0.101533  0  1.041185  0
H  H9  1  0.50900619  0.71752169  0.17908377  1  0.076359  0  0.097869  0.11262  0  1.015877  0
H  H10  1  0.51088321  0.28136660  0.82081062  1  0.065734  0  0.097863  0.112781  0  1.013045  0
H  H11  1  0.35008436  0.77801071  0.62412411  1  0.135038  0  0.134909  0.11587  0  0.963201  0
H  H12  1  0.64758365  0.22227141  0.37716180  1  0.146035  0  0.132709  0.113238  0  0.968369  0
H  H13  1  0.66835833  0.01158366  0.35387381  1  0.086627  0  0.122765  0.130594  0  0.97205  0
H  H14  1  0.32853289  0.98870839  0.64654039  1  0.081034  0  0.125232  0.133605  0  0.969063  0
H  H15  1  0.51363444  0.17176866  0.98071801  1  0.409651  0  0.303857  0.294529  0  0.950855  0
C  C16  1  0.51454705  0.47389155  0.69787443  1  1.491928  0  0.215427  0.59839  0  4.146609  0
C  C17  1  0.53737469  0.97544343  0.46511450  1  -0.065678  0  0.012985  0.054332  0  4.004184  0
C  C18  1  0.27824131  0.49591371  0.51462803  1  1.667885  0  0.219906  0.660181  0  4.249285  0
C  C19  1  0.71873576  0.50262107  0.48543606  1  1.693923  0  0.218618  0.659826  0  4.249805  0
C  C20  1  0.15709681  0.49668501  0.51220910  1  0.241315  0  -0.020339  -0.149595  0  3.873812  0
C  C21  1  0.83991903  0.50046004  0.48898606  1  0.287665  0  -0.021216  -0.15149  0  3.876905  0
C  C22  1  0.05489566  0.49742865  0.50507204  1  -0.37524  0  -0.023448  0.012264  0  4.266977  0
C  C23  1  0.94214658  0.49886701  0.49669580  1  -0.415962  0  -0.024339  0.012446  0  4.268787  0
C  C24  1  0.49423665  0.53647459  0.18758101  1  -0.024596  0  -0.023992  -0.009022  0  4.029899  0
C  C25  1  0.51498458  0.46386356  0.81201652  1  0.036269  0  -0.023942  -0.009497  0  4.03232  0
C  C26  1  0.50340490  0.34550861  0.97061959  1  0.311546  0  0.094591  0.258348  0  4.082565  0
C  C27  1  0.48682146  0.52747961  0.30152006  1  1.522048  0  0.214731  0.596151  0  4.145614  0
C  C28  1  0.51764780  0.65285214  0.02955061  1  0.358733  0  0.093115  0.256665  0  4.077226  0
C  C29  1  0.51046915  0.35619816  0.86489368  1  0.074628  0  -0.112086  -0.239411  0  3.973404  0
C  C30  1  0.50691211  0.64298582  0.13494413  1  -0.021296  0  -0.111716  -0.2401  0  3.977831  0
C  C31  1  0.51737760  0.56107279  0.86500414  1  -0.023582  0  -0.104934  -0.17797  0  3.997346  0
C  C32  1  0.49273979  0.43912792  0.13465923  1  0.047422  0  -0.103596  -0.173934  0  3.995421  0
C  C33  1  0.51323679  0.55378618  0.97255944  1  0.008179  0  -0.012802  -0.002097  0  3.975447  0
C  C34  1  0.50291191  0.44527430  0.02744290  1  -0.054373  0  -0.012109  -0.004173  0  3.973693  0
C  C35  1  0.60682889  0.04720441  0.40682353  1  0.037876  0  -0.067508  -0.160159  0  3.958723  0
C  C36  1  0.38947361  0.95324938  0.59301310  1  0.011342  0  -0.064188  -0.155117  0  3.954052  0
C  C37  1  0.59611057  0.16227123  0.41873211  1  0.41821  0  0.053853  0.084776  0  3.914207  0
C  C38  1  0.40054139  0.83808530  0.58141729  1  0.445043  0  0.056038  0.087063  0  3.908151  0
C  C39  1  0.45360389  0.14468928  0.54007455  1  0.552145  0  0.087149  0.079443  0  3.833239  0
C  C40  1  0.54199016  0.85590613  0.45905671  1  0.583671  0  0.08553  0.077109  0  3.837169  0
C  C41  1  0.45836850  0.02508557  0.53418988  1  -0.005054  0  0.013566  0.05272  0  4.004773  0
N  N42  1  0.47601112  0.79114787  0.51485960  1  -1.233625  0  -0.306698  -0.171132  0  3.512661  0
N  N43  1  0.52002498  0.20935206  0.48469209  1  -1.198915  0  -0.306667  -0.171224  0  3.514355  0
N  N44  1  0.49199847  0.23983038  0.02140526  1  -1.227102  0  -0.601738  -0.619437  0  3.330354  0
N  N45  1  0.52858345  0.75866255  0.97802885  1  -1.230249  0  -0.603902  -0.623796  0  3.313346  0
O  O46  1  0.50486159  0.57423668  0.65403030  1  -1.164337  0  -0.321562  -0.554222  0  2.34851  0
O  O47  1  0.48527497  0.42779741  0.34591165  1  -1.161991  0  -0.322806  -0.55526  0  2.341117  0
O  O48  1  0.52264035  0.38196562  0.65189946  1  -1.158545  0  -0.320624  -0.545512  0  2.317377  0
O  O49  1  0.48404782  0.61967922  0.34695809  1  -1.160291  0  -0.320089  -0.544346  0  2.318711  0
O  O50  1  0.31846037  0.59278869  0.51216507  1  -1.144683  0  -0.311118  -0.539711  0  2.249704  0
O  O51  1  0.67757184  0.40696341  0.47990547  1  -1.141023  0  -0.312848  -0.543197  0  2.251773  0
O  O52  1  0.33274984  0.39861444  0.51764805  1  -1.14543  0  -0.312399  -0.542099  0  2.25531  0
O  O53  1  0.66512058  0.59971783  0.48948401  1  -1.13809  0  -0.312672  -0.542522  0  2.251582  0
