# generated using pymatgen
data_HgH16C22(BrN2)2
_symmetry_space_group_name_H-M   'P 1'
_cell_length_a   5.07565675
_cell_length_b   7.54991602
_cell_length_c   26.83794424
_cell_angle_alpha   91.98219798
_cell_angle_beta   90.00037421
_cell_angle_gamma   89.99849599
_symmetry_Int_Tables_number   1
_chemical_formula_structural   HgH16C22(BrN2)2
_chemical_formula_sum   'Hg2 H32 C44 Br4 N8'
_cell_volume   1027.83561374
_cell_formula_units_Z   2
loop_
 _symmetry_equiv_pos_site_id
 _symmetry_equiv_pos_as_xyz
  1  'x, y, z'
loop_
 _atom_site_type_symbol
 _atom_site_label
 _atom_site_symmetry_multiplicity
 _atom_site_fract_x
 _atom_site_fract_y
 _atom_site_fract_z
 _atom_site_occupancy
 _atom_site_hle17_bader_spin_density
 _atom_site_hle17_ddec_charge
 _atom_site_hle17_ddec_spin_density
 _atom_site_hle17_ddec_sum_bond_order
 _atom_site_hle17_magmom
 _atom_site_hse06_10hf_bader_spin_density
 _atom_site_hse06_10hf_ddec_charge
 _atom_site_hse06_10hf_ddec_spin_density
 _atom_site_hse06_10hf_ddec_sum_bond_order
 _atom_site_hse06_10hf_magmom
 _atom_site_hse06_bader_spin_density
 _atom_site_hse06_ddec_charge
 _atom_site_hse06_ddec_spin_density
 _atom_site_hse06_ddec_sum_bond_order
 _atom_site_hse06_magmom
 _atom_site_pbe_bader_spin_density
 _atom_site_pbe_cm5_charge
 _atom_site_pbe_ddec_charge
 _atom_site_pbe_ddec_spin_density
 _atom_site_pbe_ddec_sum_bond_order
 _atom_site_pbe_magmom
Hg  Hg0  1  0.61902290  0.25002710  0.25000424  1  0  0.668134  0  2.078357  0  0  0.509368  0  2.576713  0  0  0.557431  0  2.54783  0  0  0.461918  0.477007  0  2.595594  0
Hg  Hg1  1  0.38096614  0.74998974  0.74999810  1  0  0.668107  0  2.0785  0  0  0.509351  0  2.576867  0  0  0.557401  0  2.54801  0  0  0.461891  0.476987  0  2.595763  0
H  H2  1  0.88391129  0.87550553  0.29118747  1  0  0.075869  0  0.965779  0  0  0.078391  0  1.041492  0  0  0.081844  0  1.037724  0  0  0.098381  0.075858  0  1.044234  0
H  H3  1  0.88392650  0.62453586  0.20880944  1  0  0.076033  0  0.96579  0  0  0.078501  0  1.041556  0  0  0.081945  0  1.037819  0  0  0.098335  0.075969  0  1.044292  0
H  H4  1  0.11606397  0.12452790  0.70880885  1  0  0.075952  0  0.965636  0  0  0.078467  0  1.041352  0  0  0.08192  0  1.037588  0  0  0.098324  0.075931  0  1.044098  0
H  H5  1  0.11609407  0.37547290  0.79119387  1  0  0.0759  0  0.965689  0  0  0.078419  0  1.041396  0  0  0.081861  0  1.037662  0  0  0.098287  0.075887  0  1.044134  0
H  H6  1  0.21915710  0.76753542  0.35126687  1  0  0.102196  0  0.973063  0  0  0.11246  0  1.033897  0  0  0.115837  0  1.032488  0  0  0.0944  0.110044  0  1.035115  0
H  H7  1  0.21918969  0.73248045  0.14873089  1  0  0.10211  0  0.973043  0  0  0.112353  0  1.033927  0  0  0.115731  0  1.032515  0  0  0.094298  0.109934  0  1.035148  0
H  H8  1  0.78081028  0.23246270  0.64872469  1  0  0.102149  0  0.972969  0  0  0.112397  0  1.03384  0  0  0.115776  0  1.032427  0  0  0.094367  0.10998  0  1.035062  0
H  H9  1  0.78084073  0.26752447  0.85127124  1  0  0.102143  0  0.972995  0  0  0.112412  0  1.033854  0  0  0.115791  0  1.032443  0  0  0.094356  0.109993  0  1.035072  0
H  H10  1  0.46260596  0.99256614  0.40617814  1  0  0.103135  0  0.94295  0  0  0.113626  0  1.004458  0  0  0.116767  0  1.001811  0  0  0.110271  0.1113  0  1.006379  0
H  H11  1  0.46261772  0.50743066  0.09382110  1  0  0.103148  0  0.942885  0  0  0.113647  0  1.004384  0  0  0.116793  0  1.001729  0  0  0.110264  0.111322  0  1.006305  0
H  H12  1  0.53739884  0.00742246  0.59381549  1  0  0.10314  0  0.942881  0  0  0.113649  0  1.004377  0  0  0.116774  0  1.001756  0  0  0.110273  0.111356  0  1.006263  0
H  H13  1  0.53737527  0.49255840  0.90618036  1  0  0.103099  0  0.942889  0  0  0.113615  0  1.004382  0  0  0.11674  0  1.001763  0  0  0.110253  0.111307  0  1.006286  0
H  H14  1  0.98331346  0.39635738  0.34146150  1  0  0.073876  0  0.96111  0  0  0.076235  0  1.038944  0  0  0.079361  0  1.035935  0  0  0.100323  0.073935  0  1.041191  0
H  H15  1  0.98328831  0.10368090  0.15853676  1  0  0.073861  0  0.961156  0  0  0.076096  0  1.039125  0  0  0.079221  0  1.036117  0  0  0.100176  0.073793  0  1.041382  0
H  H16  1  0.01672287  0.60366364  0.65853906  1  0  0.073912  0  0.961158  0  0  0.076174  0  1.039075  0  0  0.079301  0  1.036064  0  0  0.100287  0.073871  0  1.041326  0
H  H17  1  0.01668694  0.89632240  0.84146795  1  0  0.073826  0  0.961297  0  0  0.076158  0  1.039155  0  0  0.079283  0  1.036147  0  0  0.100243  0.073854  0  1.041412  0
H  H18  1  0.28432555  0.48348095  0.40677047  1  0  0.053106  0  0.953107  0  0  0.062355  0  1.024955  0  0  0.064738  0  1.022361  0  0  0.104064  0.060648  0  1.026813  0
H  H19  1  0.28432314  0.01652330  0.09322695  1  0  0.053049  0  0.95317  0  0  0.062297  0  1.025008  0  0  0.064677  0  1.022425  0  0  0.104059  0.060591  0  1.026868  0
H  H20  1  0.71569896  0.51650696  0.59322948  1  0  0.053094  0  0.953124  0  0  0.062301  0  1.024971  0  0  0.064657  0  1.022452  0  0  0.104033  0.060579  0  1.026869  0
H  H21  1  0.71567379  0.98347392  0.90677280  1  0  0.053082  0  0.953171  0  0  0.062322  0  1.025008  0  0  0.064712  0  1.02239  0  0  0.104069  0.060631  0  1.026832  0
H  H22  1  0.82136739  0.15165025  0.49196619  1  0  0.095548  0  0.969055  0  0  0.102227  0  1.03819  0  0  0.10579  0  1.036247  0  0  0.098813  0.099701  0  1.039606  0
H  H23  1  0.82135512  0.34834554  0.00803404  1  0  0.095516  0  0.969025  0  0  0.102213  0  1.038129  0  0  0.105776  0  1.036185  0  0  0.098821  0.099691  0  1.03954  0
H  H24  1  0.17866304  0.84833740  0.50803599  1  0  0.095516  0  0.969081  0  0  0.102193  0  1.038203  0  0  0.105759  0  1.036254  0  0  0.098831  0.099669  0  1.039615  0
H  H25  1  0.17863393  0.65165168  0.99196571  1  0  0.095549  0  0.969023  0  0  0.102217  0  1.038168  0  0  0.105781  0  1.036223  0  0  0.098814  0.099692  0  1.039578  0
H  H26  1  0.13180972  0.09208623  0.56105084  1  0  0.082831  0  0.970819  0  0  0.094574  0  1.031913  0  0  0.096886  0  1.031278  0  0  0.095962  0.092894  0  1.032427  0
H  H27  1  0.13180435  0.40791545  0.93895341  1  0  0.08281  0  0.970796  0  0  0.09458  0  1.03186  0  0  0.09689  0  1.031226  0  0  0.095984  0.092904  0  1.032372  0
H  H28  1  0.86820691  0.90789496  0.43894973  1  0  0.082797  0  0.970901  0  0  0.094648  0  1.031864  0  0  0.096967  0  1.031227  0  0  0.096012  0.092969  0  1.032376  0
H  H29  1  0.86818864  0.59209211  0.06104877  1  0  0.082903  0  0.970817  0  0  0.094597  0  1.031956  0  0  0.096906  0  1.031323  0  0  0.095989  0.092922  0  1.032466  0
H  H30  1  0.39742846  0.33626163  0.59974263  1  0  0.092428  0  0.98172  0  0  0.101732  0  1.049036  0  0  0.104582  0  1.04774  0  0  0.093382  0.09969  0  1.050014  0
H  H31  1  0.39742917  0.16373149  0.90026071  1  0  0.092543  0  0.981612  0  0  0.101847  0  1.048918  0  0  0.104701  0  1.047627  0  0  0.093419  0.0998  0  1.049912  0
H  H32  1  0.60260787  0.66371965  0.40025720  1  0  0.092532  0  0.981708  0  0  0.101819  0  1.049016  0  0  0.104672  0  1.047725  0  0  0.093408  0.099775  0  1.049999  0
H  H33  1  0.60256382  0.83627885  0.09974040  1  0  0.092491  0  0.981656  0  0  0.101783  0  1.048975  0  0  0.104636  0  1.047676  0  0  0.093383  0.099732  0  1.049981  0
C  C34  1  0.98858213  0.96739222  0.31653312  1  0  0.12939  0  3.697669  0  0  0.098024  0  3.949499  0  0  0.106097  0  3.967312  0  0  0.043849  0.092869  0  3.937329  0
C  C35  1  0.98859803  0.53262857  0.18346542  1  0  0.128822  0  3.69821  0  0  0.09746  0  3.950064  0  0  0.105527  0  3.967881  0  0  0.043711  0.092315  0  3.93787  0
C  C36  1  0.01138918  0.03261837  0.68346576  1  0  0.129045  0  3.697768  0  0  0.097682  0  3.949577  0  0  0.105754  0  3.967394  0  0  0.043857  0.092535  0  3.937398  0
C  C37  1  0.01142057  0.46738012  0.81653864  1  0  0.129184  0  3.697886  0  0  0.097825  0  3.949745  0  0  0.105895  0  3.967557  0  0  0.043911  0.092679  0  3.937555  0
C  C38  1  0.17787694  0.90873569  0.34985148  1  0  -0.116838  0  3.749718  0  0  -0.12676  0  3.997739  0  0  -0.134835  0  4.019596  0  0  -0.087351  -0.121694  0  3.98308  0
C  C39  1  0.17790910  0.59128174  0.15015073  1  0  -0.116434  0  3.7497  0  0  -0.126307  0  3.997664  0  0  -0.13438  0  4.019522  0  0  -0.087184  -0.121241  0  3.983003  0
C  C40  1  0.82210029  0.09126189  0.65014492  1  0  -0.116471  0  3.749418  0  0  -0.126366  0  3.997411  0  0  -0.134436  0  4.019262  0  0  -0.087199  -0.121299  0  3.982765  0
C  C41  1  0.82211344  0.40872952  0.84985412  1  0  -0.116707  0  3.749652  0  0  -0.126652  0  3.997705  0  0  -0.134723  0  4.019556  0  0  -0.087301  -0.121586  0  3.983047  0
C  C42  1  0.31054714  0.03210258  0.38016218  1  0  -0.025105  0  3.664302  0  0  -0.050565  0  3.90724  0  0  -0.04582  0  3.924046  0  0  -0.059088  -0.053231  0  3.89571  0
C  C43  1  0.31054600  0.46791048  0.11983543  1  0  -0.025247  0  3.664093  0  0  -0.050688  0  3.907097  0  0  -0.045945  0  3.923907  0  0  -0.059079  -0.053356  0  3.895564  0
C  C44  1  0.68945373  0.96788847  0.61983335  1  0  -0.025277  0  3.664226  0  0  -0.050773  0  3.907212  0  0  -0.04602  0  3.924016  0  0  -0.059158  -0.053475  0  3.895675  0
C  C45  1  0.68944305  0.53209721  0.88016563  1  0  -0.025095  0  3.664029  0  0  -0.050556  0  3.907021  0  0  -0.045803  0  3.923826  0  0  -0.059072  -0.053241  0  3.895488  0
C  C46  1  0.24456399  0.21200363  0.37765434  1  0  -0.009383  0  3.800424  0  0  0.012747  0  4.036776  0  0  0.005677  0  4.059519  0  0  -0.008766  0.01706  0  4.021568  0
C  C47  1  0.24453441  0.28800836  0.12233944  1  0  -0.009387  0  3.800223  0  0  0.0126  0  4.036749  0  0  0.005528  0  4.059494  0  0  -0.008776  0.016926  0  4.021536  0
C  C48  1  0.75545067  0.78798966  0.62234497  1  0  -0.009425  0  3.800624  0  0  0.012662  0  4.036941  0  0  0.005592  0  4.059679  0  0  -0.00883  0.016983  0  4.021732  0
C  C49  1  0.75543691  0.71199829  0.87765899  1  0  -0.009301  0  3.800321  0  0  0.012725  0  4.036756  0  0  0.005653  0  4.059499  0  0  -0.008718  0.017039  0  4.021556  0
C  C50  1  0.04435591  0.25840341  0.34453534  1  0  0.09183  0  3.704607  0  0  0.052957  0  3.959079  0  0  0.060209  0  3.977299  0  0  0.04553  0.048323  0  3.946761  0
C  C51  1  0.04433519  0.24162244  0.15546103  1  0  0.092014  0  3.704225  0  0  0.053242  0  3.958694  0  0  0.060491  0  3.976918  0  0  0.045699  0.048589  0  3.946388  0
C  C52  1  0.95566072  0.74160449  0.65546386  1  0  0.091951  0  3.704586  0  0  0.053151  0  3.959039  0  0  0.060405  0  3.977251  0  0  0.045649  0.048513  0  3.946724  0
C  C53  1  0.95564795  0.75838260  0.84453998  1  0  0.091983  0  3.704546  0  0  0.053149  0  3.958984  0  0  0.060398  0  3.977208  0  0  0.045736  0.048511  0  3.946674  0
C  C54  1  0.37979552  0.35232573  0.40623695  1  0  0.13653  0  3.722816  0  0  0.100888  0  3.985021  0  0  0.112239  0  3.997876  0  0  0.076293  0.093365  0  3.976345  0
C  C55  1  0.37976837  0.14768076  0.09376101  1  0  0.136568  0  3.722916  0  0  0.100998  0  3.985067  0  0  0.112344  0  3.997924  0  0  0.076271  0.093474  0  3.976393  0
C  C56  1  0.62024476  0.64766748  0.59376309  1  0  0.136518  0  3.722475  0  0  0.101004  0  3.984545  0  0  0.112352  0  3.997383  0  0  0.076322  0.093476  0  3.975866  0
C  C57  1  0.62021674  0.85231906  0.90623916  1  0  0.136513  0  3.72278  0  0  0.100978  0  3.984853  0  0  0.112334  0  3.997707  0  0  0.076277  0.093448  0  3.976187  0
C  C58  1  0.74030703  0.46694499  0.44996916  1  0  0.168206  0  3.805474  0  0  0.169304  0  4.051601  0  0  0.173771  0  4.075375  0  0  0.091462  0.166351  0  4.035464  0
C  C59  1  0.74028277  0.03304975  0.05002945  1  0  0.168146  0  3.80517  0  0  0.169251  0  4.051424  0  0  0.17372  0  4.075195  0  0  0.091447  0.1663  0  4.035292  0
C  C60  1  0.25971945  0.53304151  0.55003151  1  0  0.167994  0  3.805627  0  0  0.169267  0  4.051696  0  0  0.173741  0  4.075456  0  0  0.091456  0.166319  0  4.035555  0
C  C61  1  0.25970234  0.96694717  0.94997290  1  0  0.168225  0  3.805471  0  0  0.169244  0  4.051825  0  0  0.173705  0  4.075614  0  0  0.091524  0.166297  0  4.035684  0
C  C62  1  0.92041715  0.42946907  0.48956286  1  0  -0.006451  0  3.746343  0  0  0.006651  0  3.971805  0  0  0.005012  0  3.996234  0  0  -0.005599  0.007717  0  3.955341  0
C  C63  1  0.92039203  0.07052389  0.01043522  1  0  -0.006198  0  3.746233  0  0  0.006659  0  3.972  0  0  0.005012  0  3.996437  0  0  -0.005561  0.007712  0  3.955553  0
C  C64  1  0.07961918  0.57051635  0.51043555  1  0  -0.006144  0  3.746191  0  0  0.006535  0  3.971989  0  0  0.00489  0  3.99642  0  0  -0.005553  0.007592  0  3.955531  0
C  C65  1  0.07957928  0.92947333  0.98956453  1  0  -0.006451  0  3.746179  0  0  0.006461  0  3.971941  0  0  0.004822  0  3.996378  0  0  -0.005635  0.007522  0  3.955483  0
C  C66  1  0.94402760  0.25693264  0.50816805  1  0  -0.102426  0  3.742323  0  0  -0.127242  0  3.996426  0  0  -0.130804  0  4.018758  0  0  -0.093943  -0.124769  0  3.981246  0
C  C67  1  0.94401861  0.24306066  0.99183045  1  0  -0.102418  0  3.742138  0  0  -0.127177  0  3.996315  0  0  -0.130737  0  4.018646  0  0  -0.093926  -0.124704  0  3.981143  0
C  C68  1  0.05600085  0.74305323  0.49182627  1  0  -0.102514  0  3.742321  0  0  -0.127248  0  3.996566  0  0  -0.130809  0  4.018904  0  0  -0.094045  -0.124782  0  3.981391  0
C  C69  1  0.05596650  0.75693619  0.00817265  1  0  -0.102328  0  3.742239  0  0  -0.127064  0  3.996374  0  0  -0.130627  0  4.018709  0  0  -0.093884  -0.124587  0  3.981191  0
C  C70  1  0.11778508  0.22465785  0.54640610  1  0  -0.065471  0  3.816271  0  0  -0.076232  0  4.065085  0  0  -0.078295  0  4.089061  0  0  -0.097477  -0.074626  0  4.04862  0
C  C71  1  0.11778926  0.27533759  0.95359690  1  0  -0.065453  0  3.816195  0  0  -0.07622  0  4.064984  0  0  -0.07828  0  4.088962  0  0  -0.097501  -0.074616  0  4.048524  0
C  C72  1  0.88221185  0.77532993  0.45359497  1  0  -0.065437  0  3.816471  0  0  -0.076275  0  4.065228  0  0  -0.078349  0  4.089219  0  0  -0.097533  -0.074666  0  4.048759  0
C  C73  1  0.88218008  0.72465694  0.04640317  1  0  -0.065581  0  3.816613  0  0  -0.076296  0  4.065394  0  0  -0.078358  0  4.089375  0  0  -0.09756  -0.074698  0  4.048933  0
C  C74  1  0.27250761  0.36197339  0.56775716  1  0  -0.159886  0  3.741152  0  0  -0.179784  0  3.990345  0  0  -0.18492  0  4.013137  0  0  -0.099225  -0.176288  0  3.974949  0
C  C75  1  0.27251240  0.13801669  0.93224558  1  0  -0.160043  0  3.741276  0  0  -0.179867  0  3.99052  0  0  -0.185017  0  4.013339  0  0  -0.099262  -0.176378  0  3.975133  0
C  C76  1  0.72750902  0.63801335  0.43224128  1  0  -0.159981  0  3.741457  0  0  -0.179833  0  3.990673  0  0  -0.184979  0  4.013486  0  0  -0.099198  -0.176336  0  3.975273  0
C  C77  1  0.72747468  0.86197643  0.06775521  1  0  -0.160006  0  3.741368  0  0  -0.179838  0  3.990572  0  0  -0.184981  0  4.013381  0  0  -0.099211  -0.176343  0  3.975177  0
Br  Br78  1  0.51552781  0.54872015  0.29072374  1  0  -0.419849  0  1.065148  0  0  -0.360175  0  1.37845  0  0  -0.38016  0  1.36061  0  0  -0.209851  -0.346336  0  1.390547  0
Br  Br79  1  0.51549696  0.95132324  0.20927792  1  0  -0.419936  0  1.065001  0  0  -0.3602  0  1.3782  0  0  -0.380173  0  1.360336  0  0  -0.20986  -0.34635  0  1.390296  0
Br  Br80  1  0.48450655  0.45131015  0.70927699  1  0  -0.41984  0  1.065238  0  0  -0.360143  0  1.378507  0  0  -0.380118  0  1.360658  0  0  -0.209824  -0.346296  0  1.390606  0
Br  Br81  1  0.48443693  0.04870084  0.79071897  1  0  -0.41989  0  1.065043  0  0  -0.360167  0  1.378267  0  0  -0.380139  0  1.360406  0  0  -0.209847  -0.346323  0  1.39037  0
N  N82  1  0.92383203  0.13959903  0.31424997  1  0  -0.300032  0  3.273119  0  0  -0.222386  0  3.538001  0  0  -0.24337  0  3.559846  0  0  -0.314627  -0.208209  0  3.522787  0
N  N83  1  0.92382947  0.36042967  0.18574840  1  0  -0.299906  0  3.272976  0  0  -0.222148  0  3.537633  0  0  -0.243128  0  3.559476  0  0  -0.314473  -0.207967  0  3.522425  0
N  N84  1  0.07616095  0.86041565  0.68574786  1  0  -0.299992  0  3.273249  0  0  -0.222323  0  3.538046  0  0  -0.243304  0  3.559888  0  0  -0.314655  -0.208141  0  3.52282  0
N  N85  1  0.07615761  0.63958200  0.81425274  1  0  -0.29998  0  3.273175  0  0  -0.222326  0  3.53801  0  0  -0.243304  0  3.559849  0  0  -0.314693  -0.20815  0  3.522795  0
N  N86  1  0.60025263  0.32481609  0.42833102  1  0  -0.33356  0  3.113867  0  0  -0.293675  0  3.385549  0  0  -0.309272  0  3.403061  0  0  -0.307766  -0.283071  0  3.373472  0
N  N87  1  0.60022760  0.17517456  0.07166695  1  0  -0.333657  0  3.114037  0  0  -0.293749  0  3.385679  0  0  -0.309347  0  3.403192  0  0  -0.307804  -0.28314  0  3.373598  0
N  N88  1  0.39975218  0.67515600  0.57166789  1  0  -0.333538  0  3.113663  0  0  -0.293689  0  3.385218  0  0  -0.309286  0  3.402724  0  0  -0.307782  -0.28308  0  3.373138  0
N  N89  1  0.39974569  0.82482875  0.92833776  1  0  -0.333666  0  3.113839  0  0  -0.293759  0  3.385506  0  0  -0.309357  0  3.403021  0  0  -0.307869  -0.283153  0  3.373428  0
