# generated using pymatgen
data_TbH13C14(NO3)2
_symmetry_space_group_name_H-M   'P 1'
_cell_length_a   7.23481831
_cell_length_b   13.04524120
_cell_length_c   15.53214235
_cell_angle_alpha   89.99980215
_cell_angle_beta   89.99997869
_cell_angle_gamma   90.00020827
_symmetry_Int_Tables_number   1
_chemical_formula_structural   TbH13C14(NO3)2
_chemical_formula_sum   'Tb4 H52 C56 N8 O24'
_cell_volume   1465.92281727
_cell_formula_units_Z   4
loop_
 _symmetry_equiv_pos_site_id
 _symmetry_equiv_pos_as_xyz
  1  'x, y, z'
loop_
 _atom_site_type_symbol
 _atom_site_label
 _atom_site_symmetry_multiplicity
 _atom_site_fract_x
 _atom_site_fract_y
 _atom_site_fract_z
 _atom_site_occupancy
 _atom_site_hle17_bader_spin_density
 _atom_site_hle17_ddec_charge
 _atom_site_hle17_ddec_spin_density
 _atom_site_hle17_ddec_sum_bond_order
 _atom_site_hle17_magmom
 _atom_site_hse06_10hf_bader_spin_density
 _atom_site_hse06_10hf_ddec_charge
 _atom_site_hse06_10hf_ddec_spin_density
 _atom_site_hse06_10hf_ddec_sum_bond_order
 _atom_site_hse06_10hf_magmom
 _atom_site_hse06_bader_spin_density
 _atom_site_hse06_ddec_charge
 _atom_site_hse06_ddec_spin_density
 _atom_site_hse06_ddec_sum_bond_order
 _atom_site_hse06_magmom
 _atom_site_pbe_bader_spin_density
 _atom_site_pbe_cm5_charge
 _atom_site_pbe_ddec_charge
 _atom_site_pbe_ddec_spin_density
 _atom_site_pbe_ddec_sum_bond_order
 _atom_site_pbe_magmom
Tb  Tb0  1  0.11852326  0.71317156  0.99538385  1  0  2.237161  0  1.71398  0  0  2.090985  0  2.178863  0  0  2.141974  0  2.133202  0  0  1.502997  2.05197  0  2.214812  0
Tb  Tb1  1  0.38148235  0.28682657  0.49538710  1  0  2.237172  0  1.713959  0  0  2.091001  0  2.178828  0  0  2.141989  0  2.133167  0  0  1.503029  2.05198  0  2.214801  0
Tb  Tb2  1  0.88148083  0.21317108  0.50461512  1  0  2.237178  0  1.713972  0  0  2.09098  0  2.178887  0  0  2.141967  0  2.133225  0  0  1.503005  2.051971  0  2.214837  0
Tb  Tb3  1  0.61852262  0.78682853  0.00461760  1  0  2.237194  0  1.713968  0  0  2.091084  0  2.178736  0  0  2.14207  0  2.133075  0  0  1.503011  2.052063  0  2.214703  0
H  H4  1  0.06291957  0.49688609  0.07146462  1  0  0.34037  0  0.970902  0  0  0.303283  0  1.060458  0  0  0.315045  0  1.048782  0  0  0.288666  0.295126  0  1.06838  0
H  H5  1  0.43708221  0.50310994  0.57146257  1  0  0.3404  0  0.970912  0  0  0.303326  0  1.060465  0  0  0.315083  0  1.0488  0  0  0.288683  0.295163  0  1.068377  0
H  H6  1  0.93708125  0.99689003  0.42853368  1  0  0.340327  0  0.970985  0  0  0.303267  0  1.060512  0  0  0.315028  0  1.04884  0  0  0.288659  0.295103  0  1.068438  0
H  H7  1  0.56291358  0.00311015  0.92853637  1  0  0.34039  0  0.970863  0  0  0.303311  0  1.060414  0  0  0.315074  0  1.048734  0  0  0.288689  0.295145  0  1.068344  0
H  H8  1  0.45627307  0.54438269  0.09362308  1  0  0.034065  0  0.926722  0  0  0.049443  0  0.995461  0  0  0.049359  0  0.994485  0  0  0.092835  0.049425  0  0.996197  0
H  H9  1  0.04373423  0.45561785  0.59362317  1  0  0.034037  0  0.926624  0  0  0.049418  0  0.995385  0  0  0.049334  0  0.994408  0  0  0.092777  0.049392  0  0.996139  0
H  H10  1  0.54372892  0.04438142  0.40637847  1  0  0.03408  0  0.92665  0  0  0.049458  0  0.9954  0  0  0.049375  0  0.994423  0  0  0.092828  0.049444  0  0.996129  0
H  H11  1  0.95627146  0.95561425  0.90637574  1  0  0.034087  0  0.926723  0  0  0.049444  0  0.995465  0  0  0.049358  0  0.994493  0  0  0.092828  0.049423  0  0.996219  0
H  H12  1  0.57614710  0.51969457  0.99589851  1  0  0.046652  0  0.933341  0  0  0.060208  0  1.003227  0  0  0.059911  0  1.003367  0  0  0.096728  0.060315  0  1.003242  0
H  H13  1  0.92386150  0.48030533  0.49589668  1  0  0.046672  0  0.933381  0  0  0.060255  0  1.003241  0  0  0.059957  0  1.003383  0  0  0.096784  0.060365  0  1.003252  0
H  H14  1  0.42385709  0.01969317  0.50410489  1  0  0.046648  0  0.933375  0  0  0.060242  0  1.003209  0  0  0.059945  0  1.00335  0  0  0.096733  0.060348  0  1.003235  0
H  H15  1  0.07614336  0.98030544  0.00410038  1  0  0.046696  0  0.933365  0  0  0.060246  0  1.003229  0  0  0.059949  0  1.003369  0  0  0.096736  0.060359  0  1.00324  0
H  H16  1  0.28684049  0.47695394  0.92122442  1  0  0.048746  0  0.929667  0  0  0.062857  0  0.998696  0  0  0.062968  0  0.998341  0  0  0.099011  0.062731  0  0.998959  0
H  H17  1  0.21316794  0.52304526  0.42122314  1  0  0.048732  0  0.929731  0  0  0.062844  0  0.998765  0  0  0.062954  0  0.998411  0  0  0.098999  0.062724  0  0.999017  0
H  H18  1  0.71316811  0.97695042  0.57877507  1  0  0.0487  0  0.929673  0  0  0.0628  0  0.99873  0  0  0.06291  0  0.998376  0  0  0.098967  0.062675  0  0.999002  0
H  H19  1  0.78683805  0.02304505  0.07877461  1  0  0.048758  0  0.929656  0  0  0.062862  0  0.998704  0  0  0.062971  0  0.998352  0  0  0.099011  0.062746  0  0.998949  0
H  H20  1  0.29155806  0.40497322  0.01923498  1  0  0.047419  0  0.932311  0  0  0.062604  0  0.998763  0  0  0.062318  0  0.998946  0  0  0.097094  0.06265  0  0.998795  0
H  H21  1  0.20844929  0.59502456  0.51923527  1  0  0.047415  0  0.93234  0  0  0.062584  0  0.998815  0  0  0.0623  0  0.998995  0  0  0.097086  0.062649  0  0.998819  0
H  H22  1  0.70844906  0.90497265  0.48076294  1  0  0.047366  0  0.93238  0  0  0.062543  0  0.998853  0  0  0.062257  0  0.999035  0  0  0.097089  0.062621  0  0.998854  0
H  H23  1  0.79155540  0.09502578  0.98076340  1  0  0.047393  0  0.932319  0  0  0.062565  0  0.998796  0  0  0.062281  0  0.998974  0  0  0.097103  0.062626  0  0.998804  0
H  H24  1  0.95848418  0.86216699  0.60911553  1  0  0.072263  0  0.938885  0  0  0.082924  0  0.99894  0  0  0.085423  0  0.997303  0  0  0.111131  0.081064  0  1.000233  0
H  H25  1  0.54151643  0.13783832  0.10911219  1  0  0.072244  0  0.938861  0  0  0.082937  0  0.998871  0  0  0.08544  0  0.997238  0  0  0.111152  0.081074  0  1.000161  0
H  H26  1  0.04152504  0.36216554  0.89088108  1  0  0.072234  0  0.938856  0  0  0.082887  0  0.998915  0  0  0.085386  0  0.997278  0  0  0.111109  0.081027  0  1.000199  0
H  H27  1  0.45849031  0.63783455  0.39089037  1  0  0.072164  0  0.938935  0  0  0.082867  0  0.998953  0  0  0.085367  0  0.997316  0  0  0.111129  0.081003  0  1.000245  0
H  H28  1  0.03833798  0.85853760  0.76655880  1  0  0.114497  0  0.935958  0  0  0.124847  0  0.994356  0  0  0.128836  0  0.992113  0  0  0.114217  0.121859  0  0.996208  0
H  H29  1  0.46167471  0.14146837  0.26655603  1  0  0.114468  0  0.936017  0  0  0.124769  0  0.994474  0  0  0.12875  0  0.992248  0  0  0.114202  0.121846  0  0.996239  0
H  H30  1  0.96166983  0.35853634  0.73343974  1  0  0.114456  0  0.935932  0  0  0.124794  0  0.994354  0  0  0.128781  0  0.992114  0  0  0.114203  0.121843  0  0.996161  0
H  H31  1  0.53833344  0.64146770  0.23344717  1  0  0.114525  0  0.936119  0  0  0.124814  0  0.994565  0  0  0.128799  0  0.992333  0  0  0.114227  0.121866  0  0.996355  0
H  H32  1  0.59741055  0.78628821  0.69404922  1  0  0.104603  0  0.958654  0  0  0.113961  0  1.020225  0  0  0.117098  0  1.019667  0  0  0.105511  0.111688  0  1.020781  0
H  H33  1  0.90259137  0.21371829  0.19405526  1  0  0.104644  0  0.958499  0  0  0.113974  0  1.020118  0  0  0.117112  0  1.019562  0  0  0.105461  0.111698  0  1.02067  0
H  H34  1  0.40259540  0.28628553  0.80594825  1  0  0.104616  0  0.95863  0  0  0.113971  0  1.020202  0  0  0.117111  0  1.019641  0  0  0.10549  0.111701  0  1.020761  0
H  H35  1  0.09741450  0.71371414  0.30594773  1  0  0.104666  0  0.958505  0  0  0.113989  0  1.020121  0  0  0.117128  0  1.019563  0  0  0.105483  0.111714  0  1.020674  0
H  H36  1  0.49181845  0.77990831  0.54052824  1  0  0.068898  0  0.954351  0  0  0.071308  0  1.028653  0  0  0.074566  0  1.025965  0  0  0.10546  0.068899  0  1.030654  0
H  H37  1  0.00818060  0.22009551  0.04053176  1  0  0.068948  0  0.954426  0  0  0.071339  0  1.02872  0  0  0.074594  0  1.026033  0  0  0.10549  0.068932  0  1.030728  0
H  H38  1  0.50819300  0.27990446  0.95947054  1  0  0.068911  0  0.954418  0  0  0.071339  0  1.028687  0  0  0.074596  0  1.025999  0  0  0.105461  0.068932  0  1.03069  0
H  H39  1  0.99182393  0.72009406  0.45947121  1  0  0.06891  0  0.954362  0  0  0.071293  0  1.02868  0  0  0.07455  0  1.025992  0  0  0.105461  0.068885  0  1.03069  0
H  H40  1  0.25179080  0.91825146  0.43102353  1  0  0.078773  0  0.970219  0  0  0.08182  0  1.043744  0  0  0.085361  0  1.040326  0  0  0.115115  0.079164  0  1.046374  0
H  H41  1  0.24818168  0.08174770  0.93102081  1  0  0.078762  0  0.970165  0  0  0.081827  0  1.043657  0  0  0.085361  0  1.04025  0  0  0.115139  0.079179  0  1.04627  0
H  H42  1  0.74820259  0.41824431  0.06897564  1  0  0.07878  0  0.970195  0  0  0.081862  0  1.043685  0  0  0.085398  0  1.04027  0  0  0.11515  0.079208  0  1.046306  0
H  H43  1  0.75179252  0.58175196  0.56897726  1  0  0.078801  0  0.970212  0  0  0.081869  0  1.043701  0  0  0.085407  0  1.040281  0  0  0.115141  0.079217  0  1.04632  0
H  H44  1  0.47446388  0.87430334  0.31025401  1  0  0.111457  0  0.949553  0  0  0.119929  0  1.010828  0  0  0.123204  0  1.010175  0  0  0.109887  0.117546  0  1.011475  0
H  H45  1  0.02551698  0.12569938  0.81024670  1  0  0.111351  0  0.949517  0  0  0.119855  0  1.010783  0  0  0.123132  0  1.010129  0  0  0.109882  0.117476  0  1.011421  0
H  H46  1  0.52552645  0.37430292  0.18974593  1  0  0.111338  0  0.949629  0  0  0.119831  0  1.010887  0  0  0.123108  0  1.010235  0  0  0.109872  0.117446  0  1.011531  0
H  H47  1  0.97446442  0.62569670  0.68974931  1  0  0.111456  0  0.949549  0  0  0.119924  0  1.010841  0  0  0.123202  0  1.010188  0  0  0.109871  0.117543  0  1.011485  0
H  H48  1  0.01992605  0.91133820  0.13392996  1  0  0.124434  0  0.977295  0  0  0.130583  0  1.042501  0  0  0.134545  0  1.040412  0  0  0.120533  0.12774  0  1.044  0
H  H49  1  0.48007707  0.08865987  0.63393427  1  0  0.124439  0  0.977313  0  0  0.13061  0  1.042466  0  0  0.134576  0  1.040377  0  0  0.120524  0.127765  0  1.043966  0
H  H50  1  0.98006038  0.41134027  0.36606858  1  0  0.124412  0  0.977283  0  0  0.130552  0  1.042497  0  0  0.134517  0  1.040408  0  0  0.120496  0.127709  0  1.043999  0
H  H51  1  0.51991791  0.58865786  0.86606893  1  0  0.124495  0  0.97731  0  0  0.130683  0  1.042459  0  0  0.13465  0  1.04037  0  0  0.120565  0.12784  0  1.043957  0
H  H52  1  0.82401963  0.96627066  0.25910958  1  0  0.084774  0  0.91764  0  0  0.095078  0  0.977268  0  0  0.098535  0  0.973961  0  0  0.119419  0.092438  0  0.979903  0
H  H53  1  0.67597395  0.03372637  0.75911603  1  0  0.084846  0  0.917638  0  0  0.095101  0  0.977326  0  0  0.098556  0  0.974021  0  0  0.119456  0.092471  0  0.979953  0
H  H54  1  0.17597269  0.46626780  0.24089009  1  0  0.084831  0  0.917607  0  0  0.095113  0  0.977261  0  0  0.098572  0  0.973951  0  0  0.119418  0.092479  0  0.979889  0
H  H55  1  0.32401237  0.53372908  0.74088861  1  0  0.084786  0  0.917616  0  0  0.095092  0  0.977243  0  0  0.098564  0  0.973929  0  0  0.119445  0.092455  0  0.979881  0
C  C56  1  0.44480081  0.54902819  0.02266892  1  0  0.138489  0  3.752755  0  0  0.077802  0  4.036435  0  0  0.086755  0  4.041816  0  0  -0.090883  0.071802  0  4.032081  0
C  C57  1  0.05520931  0.45097034  0.52266645  1  0  0.13853  0  3.752665  0  0  0.077809  0  4.036389  0  0  0.086763  0  4.041772  0  0  -0.090872  0.071807  0  4.032046  0
C  C58  1  0.55520397  0.04902589  0.47733326  1  0  0.138473  0  3.752525  0  0  0.077766  0  4.036199  0  0  0.086719  0  4.04158  0  0  -0.090859  0.071766  0  4.031842  0
C  C59  1  0.94480188  0.95097102  0.97733119  1  0  0.13838  0  3.752709  0  0  0.07774  0  4.036333  0  0  0.086694  0  4.041712  0  0  -0.090865  0.071739  0  4.032001  0
C  C60  1  0.28462342  0.48297745  0.99201310  1  0  0.096343  0  3.674037  0  0  0.034745  0  3.955777  0  0  0.041709  0  3.961374  0  0  -0.085638  0.030092  0  3.951688  0
C  C61  1  0.21538633  0.51702223  0.49201184  1  0  0.096344  0  3.67398  0  0  0.03475  0  3.955744  0  0  0.041714  0  3.961339  0  0  -0.085615  0.030086  0  3.951631  0
C  C62  1  0.71538521  0.98297499  0.50798637  1  0  0.096436  0  3.673941  0  0  0.034843  0  3.955702  0  0  0.041807  0  3.961301  0  0  -0.085592  0.030175  0  3.951599  0
C  C63  1  0.78462100  0.01702154  0.00798657  1  0  0.096393  0  3.673802  0  0  0.034793  0  3.955531  0  0  0.041757  0  3.96113  0  0  -0.085621  0.030134  0  3.95141  0
C  C64  1  0.09854544  0.84356926  0.63030524  1  0  0.107267  0  3.741611  0  0  0.085327  0  4.000587  0  0  0.089039  0  4.018376  0  0  0.038963  0.082924  0  3.988399  0
C  C65  1  0.40145491  0.15643419  0.13030307  1  0  0.107347  0  3.741319  0  0  0.085408  0  4.000294  0  0  0.089109  0  4.01809  0  0  0.039007  0.083003  0  3.988124  0
C  C66  1  0.90146366  0.34356963  0.86969400  1  0  0.107318  0  3.741542  0  0  0.085389  0  4.000513  0  0  0.089101  0  4.018298  0  0  0.038915  0.082986  0  3.988325  0
C  C67  1  0.59855057  0.65643386  0.36969879  1  0  0.10744  0  3.74159  0  0  0.08547  0  4.000564  0  0  0.089179  0  4.018354  0  0  0.039046  0.083065  0  3.988388  0
C  C68  1  0.14280775  0.84328090  0.71768018  1  0  -0.116235  0  3.709611  0  0  -0.140261  0  3.957847  0  0  -0.144372  0  3.979117  0  0  -0.076837  -0.137429  0  3.94362  0
C  C69  1  0.35720360  0.15672910  0.21767930  1  0  -0.116195  0  3.709592  0  0  -0.140187  0  3.957902  0  0  -0.144297  0  3.979172  0  0  -0.076821  -0.137407  0  3.943627  0
C  C70  1  0.85719858  0.34327463  0.78231777  1  0  -0.1162  0  3.709574  0  0  -0.14015  0  3.957878  0  0  -0.144262  0  3.97915  0  0  -0.076737  -0.137351  0  3.943632  0
C  C71  1  0.64280051  0.65672537  0.28232385  1  0  -0.116317  0  3.709827  0  0  -0.140262  0  3.958109  0  0  -0.144374  0  3.979382  0  0  -0.076877  -0.13746  0  3.943842  0
C  C72  1  0.32509145  0.82241749  0.74210438  1  0  -0.017434  0  3.725193  0  0  0.00248  0  3.953605  0  0  -0.00125  0  3.974967  0  0  0.001031  0.004853  0  3.939319  0
C  C73  1  0.17491573  0.17758551  0.24210412  1  0  -0.01745  0  3.725186  0  0  0.002436  0  3.953675  0  0  -0.001289  0  3.975033  0  0  0.000985  0.004801  0  3.939397  0
C  C74  1  0.67491613  0.32241632  0.75789814  1  0  -0.017282  0  3.725099  0  0  0.002431  0  3.953766  0  0  -0.001297  0  3.975129  0  0  0.000987  0.004801  0  3.939492  0
C  C75  1  0.82508989  0.67758302  0.25789897  1  0  -0.017367  0  3.725152  0  0  0.002449  0  3.953677  0  0  -0.00128  0  3.975039  0  0  0.001013  0.004819  0  3.93939  0
C  C76  1  0.45424185  0.80270941  0.67731231  1  0  -0.126213  0  3.729909  0  0  -0.148186  0  3.972787  0  0  -0.152843  0  3.995748  0  0  -0.081973  -0.145067  0  3.957361  0
C  C77  1  0.04576676  0.19729692  0.17731781  1  0  -0.12616  0  3.729682  0  0  -0.148119  0  3.972621  0  0  -0.152767  0  3.995556  0  0  -0.081851  -0.144998  0  3.957186  0
C  C78  1  0.54576421  0.30270619  0.82268705  1  0  -0.126271  0  3.729832  0  0  -0.14818  0  3.972781  0  0  -0.152835  0  3.995733  0  0  -0.081957  -0.145068  0  3.957364  0
C  C79  1  0.95424176  0.69729212  0.32268587  1  0  -0.126251  0  3.729743  0  0  -0.148174  0  3.972675  0  0  -0.152829  0  3.995627  0  0  -0.081945  -0.145052  0  3.957244  0
C  C80  1  0.39507246  0.80056162  0.59185147  1  0  0.10189  0  3.747609  0  0  0.080772  0  4.00912  0  0  0.084176  0  4.027332  0  0  0.037024  0.078621  0  3.996645  0
C  C81  1  0.10492931  0.19944506  0.09185245  1  0  0.101803  0  3.747487  0  0  0.080722  0  4.008993  0  0  0.084133  0  4.027202  0  0  0.036976  0.078556  0  3.996552  0
C  C82  1  0.60493636  0.30055740  0.90814854  1  0  0.101941  0  3.747555  0  0  0.080819  0  4.009036  0  0  0.084226  0  4.027248  0  0  0.03709  0.078663  0  3.996567  0
C  C83  1  0.89507646  0.69944056  0.40814929  1  0  0.101806  0  3.747537  0  0  0.08072  0  4.009047  0  0  0.084128  0  4.027256  0  0  0.036984  0.078556  0  3.996609  0
C  C84  1  0.37837815  0.81683064  0.83549395  1  0  0.692154  0  3.884509  0  0  0.643517  0  4.179969  0  0  0.678866  0  4.168316  0  0  0.228165  0.619674  0  4.186617  0
C  C85  1  0.12163311  0.18317198  0.33549497  1  0  0.69204  0  3.884518  0  0  0.643375  0  4.18005  0  0  0.67872  0  4.1684  0  0  0.228105  0.619536  0  4.186692  0
C  C86  1  0.62162248  0.31683281  0.66450730  1  0  0.691949  0  3.8845  0  0  0.64334  0  4.179999  0  0  0.678688  0  4.16835  0  0  0.228068  0.619499  0  4.186648  0
C  C87  1  0.87837394  0.68316691  0.16450681  1  0  0.692112  0  3.884532  0  0  0.643504  0  4.179991  0  0  0.678851  0  4.168345  0  0  0.228206  0.619657  0  4.186639  0
C  C88  1  0.21014639  0.91995793  0.36359175  1  0  0.12623  0  3.694744  0  0  0.094976  0  3.952248  0  0  0.100148  0  3.969224  0  0  0.052237  0.091621  0  3.940823  0
C  C89  1  0.28983305  0.08004151  0.86359096  1  0  0.126299  0  3.694425  0  0  0.094982  0  3.951954  0  0  0.100155  0  3.968933  0  0  0.052226  0.091644  0  3.940494  0
C  C90  1  0.78984563  0.41995365  0.13640548  1  0  0.126153  0  3.694585  0  0  0.094803  0  3.952124  0  0  0.099982  0  3.969105  0  0  0.052161  0.09147  0  3.940696  0
C  C91  1  0.71014390  0.58004465  0.63640647  1  0  0.126184  0  3.694738  0  0  0.094914  0  3.952218  0  0  0.100095  0  3.969194  0  0  0.052183  0.091562  0  3.940768  0
C  C92  1  0.33100631  0.89435268  0.29729056  1  0  -0.13557  0  3.715628  0  0  -0.155885  0  3.963294  0  0  -0.161261  0  3.984524  0  0  -0.076893  -0.152395  0  3.949167  0
C  C93  1  0.16898286  0.10564780  0.79728778  1  0  -0.135419  0  3.715657  0  0  -0.155798  0  3.963266  0  0  -0.161181  0  3.984499  0  0  -0.076837  -0.152298  0  3.949132  0
C  C94  1  0.66898001  0.39435172  0.20270868  1  0  -0.135362  0  3.715648  0  0  -0.15571  0  3.963252  0  0  -0.161096  0  3.984485  0  0  -0.076856  -0.152217  0  3.949115  0
C  C95  1  0.83099841  0.60564861  0.70270828  1  0  -0.135493  0  3.715629  0  0  -0.155859  0  3.963289  0  0  -0.161234  0  3.984506  0  0  -0.076823  -0.152369  0  3.949165  0
C  C96  1  0.26382428  0.89293388  0.21293968  1  0  0.000542  0  3.717213  0  0  0.018395  0  3.946735  0  0  0.015844  0  3.966423  0  0  0.010084  0.020042  0  3.933555  0
C  C97  1  0.23617187  0.10706388  0.71293882  1  0  0.000418  0  3.717466  0  0  0.01838  0  3.946726  0  0  0.01584  0  3.966414  0  0  0.010014  0.02002  0  3.933572  0
C  C98  1  0.73616342  0.39293654  0.28705828  1  0  0.000341  0  3.717351  0  0  0.018371  0  3.946701  0  0  0.015836  0  3.966389  0  0  0.010055  0.020013  0  3.933525  0
C  C99  1  0.76381632  0.60706651  0.78705982  1  0  0.000602  0  3.717382  0  0  0.018546  0  3.946726  0  0  0.016005  0  3.966409  0  0  0.010095  0.020192  0  3.933562  0
C  C100  1  0.07808507  0.91668184  0.19836021  1  0  -0.107944  0  3.670389  0  0  -0.133102  0  3.923686  0  0  -0.137711  0  3.944573  0  0  -0.068243  -0.130126  0  3.909737  0
C  C101  1  0.42191523  0.08331367  0.69836326  1  0  -0.107984  0  3.670468  0  0  -0.133174  0  3.923702  0  0  -0.137796  0  3.944596  0  0  -0.068288  -0.130182  0  3.909757  0
C  C102  1  0.92190692  0.41668329  0.30163767  1  0  -0.107819  0  3.670186  0  0  -0.133027  0  3.923482  0  0  -0.137649  0  3.944377  0  0  -0.06822  -0.130053  0  3.909542  0
C  C103  1  0.57807556  0.58331510  0.80163674  1  0  -0.108282  0  3.670485  0  0  -0.133511  0  3.923759  0  0  -0.13813  0  3.944654  0  0  -0.068399  -0.130522  0  3.909813  0
C  C104  1  0.96871151  0.94499253  0.26802981  1  0  0.126063  0  3.691899  0  0  0.09328  0  3.954234  0  0  0.098518  0  3.970722  0  0  0.052884  0.089895  0  3.943078  0
C  C105  1  0.53127791  0.05500447  0.76803752  1  0  0.125931  0  3.692151  0  0  0.093104  0  3.954482  0  0  0.098341  0  3.970972  0  0  0.052908  0.089719  0  3.943328  0
C  C106  1  0.03128343  0.44499248  0.23196670  1  0  0.125946  0  3.691851  0  0  0.093132  0  3.954201  0  0  0.098369  0  3.970691  0  0  0.052866  0.089763  0  3.943065  0
C  C107  1  0.46870440  0.55500750  0.73196385  1  0  0.126187  0  3.691966  0  0  0.093405  0  3.954267  0  0  0.098625  0  3.970775  0  0  0.052944  0.090008  0  3.943118  0
C  C108  1  0.38873958  0.86432985  0.14007918  1  0  0.671809  0  3.886251  0  0  0.62835  0  4.17118  0  0  0.66321  0  4.159564  0  0  0.215151  0.604792  0  4.177978  0
C  C109  1  0.11127044  0.13566897  0.64007440  1  0  0.671719  0  3.88651  0  0  0.628309  0  4.171269  0  0  0.663165  0  4.15966  0  0  0.215151  0.604756  0  4.178065  0
C  C110  1  0.61125345  0.36433427  0.35992272  1  0  0.671975  0  3.886104  0  0  0.628379  0  4.171182  0  0  0.66323  0  4.159576  0  0  0.215146  0.604826  0  4.177971  0
C  C111  1  0.88872761  0.63566925  0.85992093  1  0  0.671681  0  3.886596  0  0  0.628257  0  4.171417  0  0  0.663113  0  4.159803  0  0  0.215145  0.604696  0  4.178221  0
N  N112  1  0.22040609  0.82090684  0.56771634  1  0  -0.31781  0  3.078282  0  0  -0.281189  0  3.348109  0  0  -0.290533  0  3.362062  0  0  -0.321113  -0.274633  0  3.33843  0
N  N113  1  0.27959570  0.17909994  0.06771542  1  0  -0.317885  0  3.07807  0  0  -0.281284  0  3.347926  0  0  -0.290628  0  3.361879  0  0  -0.321192  -0.274747  0  3.33828  0
N  N114  1  0.77960424  0.32090441  0.93228167  1  0  -0.317881  0  3.078284  0  0  -0.281268  0  3.348117  0  0  -0.290612  0  3.362068  0  0  -0.321133  -0.274709  0  3.338435  0
N  N115  1  0.72040994  0.67909422  0.43228574  1  0  -0.317798  0  3.078226  0  0  -0.281179  0  3.348068  0  0  -0.290524  0  3.362022  0  0  -0.321138  -0.274642  0  3.338423  0
N  N116  1  0.03350210  0.94653759  0.34905027  1  0  -0.290107  0  3.206329  0  0  -0.225364  0  3.450138  0  0  -0.238811  0  3.46757  0  0  -0.302278  -0.216265  0  3.438216  0
N  N117  1  0.46647874  0.05346038  0.84905468  1  0  -0.290009  0  3.206184  0  0  -0.225168  0  3.449924  0  0  -0.238612  0  3.467352  0  0  -0.302258  -0.21606  0  3.437987  0
N  N118  1  0.96648733  0.44653437  0.15094753  1  0  -0.290039  0  3.206261  0  0  -0.225183  0  3.450001  0  0  -0.238629  0  3.467431  0  0  -0.302228  -0.216138  0  3.438128  0
N  N119  1  0.53350080  0.55346540  0.65094798  1  0  -0.29015  0  3.206599  0  0  -0.225393  0  3.450398  0  0  -0.238839  0  3.467836  0  0  -0.302297  -0.216268  0  3.438439  0
O  O120  1  0.11362450  0.53081664  0.01568024  1  0  -0.646357  0  2.200756  0  0  -0.580846  0  2.455398  0  0  -0.600614  0  2.445545  0  0  -0.470484  -0.566559  0  2.461583  0
O  O121  1  0.38638562  0.46918422  0.51567766  1  0  -0.646392  0  2.200604  0  0  -0.580888  0  2.455252  0  0  -0.600656  0  2.445398  0  0  -0.470516  -0.566603  0  2.46145  0
O  O122  1  0.88638154  0.03081574  0.48432006  1  0  -0.646334  0  2.200681  0  0  -0.58082  0  2.455306  0  0  -0.60059  0  2.445452  0  0  -0.470473  -0.566526  0  2.461496  0
O  O123  1  0.61362016  0.96917961  0.98431992  1  0  -0.646391  0  2.20048  0  0  -0.580892  0  2.455134  0  0  -0.600663  0  2.445278  0  0  -0.470512  -0.566599  0  2.461328  0
O  O124  1  0.41468115  0.65179699  0.99700507  1  0  -0.925338  0  2.121362  0  0  -0.850081  0  2.402824  0  0  -0.875424  0  2.393488  0  0  -0.603546  -0.831153  0  2.408105  0
O  O125  1  0.08532584  0.34820191  0.49700755  1  0  -0.925386  0  2.121523  0  0  -0.850088  0  2.402998  0  0  -0.875433  0  2.393668  0  0  -0.60354  -0.831153  0  2.408277  0
O  O126  1  0.58532668  0.15179591  0.50299730  1  0  -0.925359  0  2.121296  0  0  -0.850085  0  2.402782  0  0  -0.875429  0  2.393449  0  0  -0.603555  -0.831151  0  2.408059  0
O  O127  1  0.91467815  0.84820140  0.00299504  1  0  -0.92528  0  2.121261  0  0  -0.85003  0  2.402704  0  0  -0.875371  0  2.393365  0  0  -0.603554  -0.831097  0  2.407987  0
O  O128  1  0.56195195  0.86719542  0.14974364  1  0  -0.64751  0  1.937466  0  0  -0.606436  0  2.172742  0  0  -0.630166  0  2.164915  0  0  -0.342682  -0.589772  0  2.177553  0
O  O129  1  0.93805000  0.13280360  0.64973945  1  0  -0.647449  0  1.937417  0  0  -0.606388  0  2.172629  0  0  -0.630116  0  2.164803  0  0  -0.342686  -0.589709  0  2.177431  0
O  O130  1  0.43804110  0.36720566  0.35026212  1  0  -0.647528  0  1.937401  0  0  -0.606413  0  2.172722  0  0  -0.63015  0  2.164921  0  0  -0.342663  -0.589746  0  2.177526  0
O  O131  1  0.06194250  0.63280303  0.85025589  1  0  -0.647436  0  1.937512  0  0  -0.606374  0  2.172741  0  0  -0.630125  0  2.164966  0  0  -0.342706  -0.589706  0  2.177555  0
O  O132  1  0.31543843  0.83635037  0.06818960  1  0  -0.801525  0  2.14009  0  0  -0.743095  0  2.394598  0  0  -0.768919  0  2.383666  0  0  -0.424694  -0.72451  0  2.401236  0
O  O133  1  0.18457579  0.16364414  0.56818601  1  0  -0.801457  0  2.140225  0  0  -0.74307  0  2.39474  0  0  -0.768895  0  2.383817  0  0  -0.424628  -0.72446  0  2.40136  0
O  O134  1  0.68456133  0.33635388  0.43181174  1  0  -0.8016  0  2.140017  0  0  -0.743121  0  2.394566  0  0  -0.768942  0  2.383636  0  0  -0.424672  -0.724537  0  2.401198  0
O  O135  1  0.81542935  0.66364552  0.93181182  1  0  -0.801448  0  2.140205  0  0  -0.74305  0  2.394704  0  0  -0.768873  0  2.383778  0  0  -0.424612  -0.72445  0  2.401331  0
O  O136  1  0.54857175  0.81010035  0.85494779  1  0  -0.703738  0  1.999561  0  0  -0.658102  0  2.24913  0  0  -0.682825  0  2.23957  0  0  -0.374624  -0.6406  0  2.255018  0
O  O137  1  0.95143834  0.18990166  0.35494874  1  0  -0.703687  0  1.999636  0  0  -0.658058  0  2.249271  0  0  -0.682783  0  2.239717  0  0  -0.374645  -0.640569  0  2.255156  0
O  O138  1  0.45143298  0.31010149  0.64505605  1  0  -0.703614  0  1.99971  0  0  -0.657995  0  2.24934  0  0  -0.682719  0  2.239786  0  0  -0.374599  -0.640491  0  2.255213  0
O  O139  1  0.04857013  0.68990114  0.14505045  1  0  -0.703764  0  1.999652  0  0  -0.658136  0  2.24925  0  0  -0.682863  0  2.239695  0  0  -0.374687  -0.640643  0  2.255137  0
O  O140  1  0.24831128  0.81792582  0.89071107  1  0  -0.739156  0  2.078036  0  0  -0.686991  0  2.339468  0  0  -0.712732  0  2.329116  0  0  -0.394289  -0.668506  0  2.345687  0
O  O141  1  0.25169302  0.18206968  0.39071529  1  0  -0.739077  0  2.077919  0  0  -0.686887  0  2.33936  0  0  -0.712624  0  2.329004  0  0  -0.394257  -0.668426  0  2.3456  0
O  O142  1  0.75168797  0.31793001  0.60928438  1  0  -0.739092  0  2.077774  0  0  -0.686904  0  2.339199  0  0  -0.712647  0  2.328848  0  0  -0.394215  -0.668425  0  2.345425  0
O  O143  1  0.74831402  0.68206304  0.10928779  1  0  -0.739128  0  2.077978  0  0  -0.686974  0  2.339411  0  0  -0.712714  0  2.329061  0  0  -0.394287  -0.668506  0  2.345642  0
