# generated using pymatgen
data_GdH21(C9O2)3
_symmetry_space_group_name_H-M   'P 1'
_cell_length_a   7.57582967
_cell_length_b   13.28881983
_cell_length_c   13.28880615
_cell_angle_alpha   116.46912475
_cell_angle_beta   100.95632108
_cell_angle_gamma   100.95636454
_symmetry_Int_Tables_number   1
_chemical_formula_structural   GdH21(C9O2)3
_chemical_formula_sum   'Gd2 H42 C54 O12'
_cell_volume   1116.82392243
_cell_formula_units_Z   2
loop_
 _symmetry_equiv_pos_site_id
 _symmetry_equiv_pos_as_xyz
  1  'x, y, z'
loop_
 _atom_site_type_symbol
 _atom_site_label
 _atom_site_symmetry_multiplicity
 _atom_site_fract_x
 _atom_site_fract_y
 _atom_site_fract_z
 _atom_site_occupancy
 _atom_site_hle17_bader_spin_density
 _atom_site_hle17_ddec_charge
 _atom_site_hle17_ddec_spin_density
 _atom_site_hle17_ddec_sum_bond_order
 _atom_site_hle17_magmom
 _atom_site_hse06_10hf_bader_spin_density
 _atom_site_hse06_10hf_ddec_charge
 _atom_site_hse06_10hf_ddec_spin_density
 _atom_site_hse06_10hf_ddec_sum_bond_order
 _atom_site_hse06_10hf_magmom
 _atom_site_hse06_bader_spin_density
 _atom_site_hse06_ddec_charge
 _atom_site_hse06_ddec_spin_density
 _atom_site_hse06_ddec_sum_bond_order
 _atom_site_hse06_magmom
 _atom_site_pbe_bader_spin_density
 _atom_site_pbe_cm5_charge
 _atom_site_pbe_ddec_charge
 _atom_site_pbe_ddec_spin_density
 _atom_site_pbe_ddec_sum_bond_order
 _atom_site_pbe_magmom
Gd  Gd0  1  0.66507447  0.00008306  0.00008197  1  0  2.130741  0  1.810975  0  0  2.02717  0  2.19225  0  0  2.091077  0  2.125976  0  0  1.476272  1.978738  0  2.243439  0
Gd  Gd1  1  0.16507406  0.00008181  0.00008338  1  0  2.130723  0  1.810967  0  0  2.027194  0  2.192203  0  0  2.091089  0  2.125946  0  0  1.47628  1.978725  0  2.243451  0
H  H2  1  0.26783261  0.82691615  0.17469919  1  0  0.115626  0  0.97548  0  0  0.124014  0  1.038826  0  0  0.127443  0  1.03863  0  0  0.105386  0.121596  0  1.039135  0
H  H3  1  0.44106061  0.34781041  0.17309539  1  0  0.117065  0  0.975046  0  0  0.126076  0  1.037832  0  0  0.129549  0  1.037595  0  0  0.106116  0.123568  0  1.038255  0
H  H4  1  0.09339297  0.82536264  0.65232748  1  0  0.117532  0  0.975696  0  0  0.126374  0  1.038345  0  0  0.129888  0  1.038095  0  0  0.106266  0.123881  0  1.03874  0
H  H5  1  0.59339325  0.65232696  0.82536242  1  0  0.117597  0  0.97568  0  0  0.126445  0  1.038306  0  0  0.129956  0  1.038063  0  0  0.106291  0.123952  0  1.038701  0
H  H6  1  0.76783641  0.17470164  0.82691846  1  0  0.115627  0  0.975437  0  0  0.124011  0  1.038797  0  0  0.127433  0  1.038622  0  0  0.105376  0.121593  0  1.039102  0
H  H7  1  0.94105980  0.17309482  0.34781043  1  0  0.11705  0  0.975059  0  0  0.126066  0  1.037832  0  0  0.129539  0  1.037596  0  0  0.106107  0.123552  0  1.038273  0
H  H8  1  0.46388664  0.65475398  0.03326862  1  0  0.09745  0  0.941223  0  0  0.108931  0  1.001435  0  0  0.111329  0  1.000293  0  0  0.107432  0.107159  0  1.002333  0
H  H9  1  0.80928526  0.37850614  0.34528576  1  0  0.097042  0  0.940243  0  0  0.108514  0  1.000416  0  0  0.111038  0  0.999073  0  0  0.107401  0.106685  0  1.001405  0
H  H10  1  0.43083737  0.96668515  0.62140179  1  0  0.098221  0  0.940858  0  0  0.109621  0  1.000981  0  0  0.112043  0  0.999825  0  0  0.107813  0.107812  0  1.001897  0
H  H11  1  0.93083798  0.62140205  0.96668584  1  0  0.098259  0  0.940862  0  0  0.109654  0  1.000992  0  0  0.11208  0  0.99983  0  0  0.107817  0.107844  0  1.001909  0
H  H12  1  0.96389148  0.03327261  0.65475596  1  0  0.097477  0  0.941177  0  0  0.108955  0  1.001385  0  0  0.111353  0  1.000242  0  0  0.10745  0.107187  0  1.002278  0
H  H13  1  0.30928443  0.34528551  0.37850708  1  0  0.097156  0  0.940248  0  0  0.108592  0  1.000446  0  0  0.111117  0  0.999102  0  0  0.107432  0.106762  0  1.001437  0
H  H14  1  0.34199688  0.45527461  0.98160505  1  0  0.086785  0  1.002254  0  0  0.095883  0  1.067877  0  0  0.097221  0  1.070212  0  0  0.095627  0.094891  0  1.066335  0
H  H15  1  0.88686299  0.52637166  0.54484516  1  0  0.087426  0  1.001768  0  0  0.096458  0  1.067555  0  0  0.097783  0  1.069935  0  0  0.09546  0.095478  0  1.06598  0
H  H16  1  0.36050762  0.01840318  0.47368200  1  0  0.086193  0  1.002042  0  0  0.095639  0  1.06754  0  0  0.096985  0  1.069862  0  0  0.094892  0.094656  0  1.065952  0
H  H17  1  0.86050808  0.47368128  0.01840314  1  0  0.086196  0  1.002026  0  0  0.095642  0  1.067521  0  0  0.096987  0  1.069849  0  0  0.094898  0.094659  0  1.065934  0
H  H18  1  0.84199804  0.98160635  0.45527526  1  0  0.086804  0  1.002256  0  0  0.095905  0  1.067872  0  0  0.097243  0  1.070207  0  0  0.095618  0.094913  0  1.066329  0
H  H19  1  0.38686352  0.54484588  0.52637392  1  0  0.087416  0  1.001793  0  0  0.096459  0  1.067563  0  0  0.097783  0  1.069945  0  0  0.09547  0.095479  0  1.065988  0
H  H20  1  0.17409294  0.30036043  0.01576086  1  0  0.095356  0  0.9626  0  0  0.106035  0  1.022219  0  0  0.108341  0  1.021608  0  0  0.105026  0.104371  0  1.022739  0
H  H21  1  0.87385753  0.71546310  0.69965246  1  0  0.095492  0  0.962967  0  0  0.105985  0  1.022677  0  0  0.108334  0  1.021998  0  0  0.105065  0.104276  0  1.023298  0
H  H22  1  0.15847113  0.98435329  0.28467793  1  0  0.096337  0  0.962193  0  0  0.106805  0  1.021857  0  0  0.109127  0  1.021219  0  0  0.105334  0.105124  0  1.02243  0
H  H23  1  0.65847059  0.28467733  0.98435191  1  0  0.09633  0  0.962184  0  0  0.106791  0  1.021853  0  0  0.109114  0  1.021213  0  0  0.105338  0.10511  0  1.022427  0
H  H24  1  0.67409297  0.01576031  0.30036027  1  0  0.095326  0  0.962607  0  0  0.106004  0  1.022232  0  0  0.108312  0  1.02162  0  0  0.105019  0.104343  0  1.022746  0
H  H25  1  0.37385850  0.69965317  0.71546489  1  0  0.095481  0  0.962975  0  0  0.105986  0  1.022675  0  0  0.108334  0  1.021996  0  0  0.105051  0.104275  0  1.023298  0
H  H26  1  0.01689337  0.35242208  0.17251863  1  0  0.107515  0  0.948497  0  0  0.116686  0  1.009063  0  0  0.119435  0  1.008528  0  0  0.106242  0.114672  0  1.009575  0
H  H27  1  0.66444619  0.82004176  0.64741479  1  0  0.10578  0  0.949553  0  0  0.115518  0  1.009639  0  0  0.11833  0  1.009032  0  0  0.106235  0.113464  0  1.010195  0
H  H28  1  0.84451142  0.82753398  0.17994328  1  0  0.10709  0  0.948314  0  0  0.116668  0  1.008441  0  0  0.119407  0  1.007935  0  0  0.106591  0.114661  0  1.008918  0
H  H29  1  0.34451118  0.17994424  0.82753385  1  0  0.107047  0  0.948349  0  0  0.116656  0  1.008445  0  0  0.119396  0  1.007934  0  0  0.106586  0.114649  0  1.008923  0
H  H30  1  0.51688989  0.17251718  0.35241972  1  0  0.107476  0  0.948482  0  0  0.116658  0  1.009045  0  0  0.119408  0  1.00851  0  0  0.106227  0.114643  0  1.009557  0
H  H31  1  0.16444679  0.64741604  0.82004397  1  0  0.105777  0  0.949562  0  0  0.115509  0  1.009655  0  0  0.11832  0  1.009049  0  0  0.106238  0.113455  0  1.010211  0
H  H32  1  0.03114120  0.56300036  0.29536923  1  0  0.086365  0  0.957719  0  0  0.098154  0  1.016325  0  0  0.10035  0  1.016573  0  0  0.097859  0.09662  0  1.016125  0
H  H33  1  0.46820585  0.73223077  0.43679781  1  0  0.088474  0  0.95842  0  0  0.0999  0  1.016995  0  0  0.10212  0  1.017237  0  0  0.099202  0.098342  0  1.01685  0
H  H34  1  0.73600306  0.70456286  0.26761111  1  0  0.087531  0  0.958962  0  0  0.099453  0  1.017177  0  0  0.10166  0  1.017447  0  0  0.098409  0.097898  0  1.017025  0
H  H35  1  0.23600331  0.26761154  0.70456333  1  0  0.087563  0  0.959032  0  0  0.099491  0  1.017224  0  0  0.101698  0  1.017496  0  0  0.098446  0.097935  0  1.017072  0
H  H36  1  0.53114004  0.29536840  0.56299916  1  0  0.086382  0  0.95771  0  0  0.098163  0  1.016328  0  0  0.100358  0  1.016574  0  0  0.097857  0.096629  0  1.016124  0
H  H37  1  0.96820689  0.43679887  0.73223286  1  0  0.088455  0  0.958405  0  0  0.099874  0  1.016995  0  0  0.102094  0  1.017238  0  0  0.099198  0.098315  0  1.016849  0
H  H38  1  0.19614499  0.71753791  0.26037001  1  0  0.084761  0  0.999439  0  0  0.094382  0  1.064881  0  0  0.095771  0  1.06674  0  0  0.096719  0.093358  0  1.063675  0
H  H39  1  0.47884603  0.54275517  0.28237417  1  0  0.084632  0  1.000025  0  0  0.094323  0  1.065411  0  0  0.095728  0  1.067305  0  0  0.096899  0.093269  0  1.064197  0
H  H40  1  0.93600565  0.73945981  0.45707538  1  0  0.085043  0  0.998955  0  0  0.094514  0  1.064553  0  0  0.095957  0  1.066356  0  0  0.096944  0.093458  0  1.063378  0
H  H41  1  0.43600509  0.45707525  0.73945950  1  0  0.085033  0  0.998944  0  0  0.094508  0  1.064542  0  0  0.095951  0  1.066344  0  0  0.096937  0.093451  0  1.063367  0
H  H42  1  0.69614434  0.26037086  0.71753755  1  0  0.084773  0  0.999449  0  0  0.094403  0  1.064871  0  0  0.095793  0  1.066728  0  0  0.096718  0.093378  0  1.063665  0
H  H43  1  0.97884392  0.28237480  0.54275670  1  0  0.084642  0  1.000041  0  0  0.09433  0  1.065426  0  0  0.095739  0  1.067314  0  0  0.096888  0.093276  0  1.064211  0
C  C44  1  0.45932280  0.86781560  0.08485893  1  0  0.711448  0  3.879725  0  0  0.67009  0  4.170173  0  0  0.706819  0  4.159678  0  0  0.206511  0.645211  0  4.176187  0
C  C45  1  0.59167851  0.21708476  0.13221283  1  0  0.711013  0  3.882719  0  0  0.669864  0  4.172935  0  0  0.706606  0  4.162442  0  0  0.206536  0.644964  0  4.178958  0
C  C46  1  0.37473686  0.91523330  0.78301245  1  0  0.712268  0  3.881409  0  0  0.672272  0  4.169482  0  0  0.709009  0  4.158961  0  0  0.207044  0.647379  0  4.175519  0
C  C47  1  0.87473677  0.78301288  0.91523287  1  0  0.71213  0  3.881521  0  0  0.6722  0  4.169501  0  0  0.708937  0  4.158979  0  0  0.206991  0.647303  0  4.175541  0
C  C48  1  0.95932642  0.08485930  0.86781606  1  0  0.711455  0  3.879688  0  0  0.670057  0  4.170199  0  0  0.706786  0  4.159699  0  0  0.206459  0.645178  0  4.176212  0
C  C49  1  0.09167863  0.13221354  0.21708570  1  0  0.711025  0  3.882618  0  0  0.669855  0  4.172879  0  0  0.706605  0  4.162376  0  0  0.206533  0.644957  0  4.178896  0
C  C50  1  0.35999814  0.79260974  0.12345907  1  0  -0.225143  0  3.658969  0  0  -0.240045  0  3.913885  0  0  -0.252321  0  3.929455  0  0  -0.094847  -0.232078  0  3.903525  0
C  C51  1  0.56758785  0.33088063  0.20740325  1  0  -0.227469  0  3.660403  0  0  -0.242681  0  3.914588  0  0  -0.255024  0  3.930201  0  0  -0.095349  -0.234649  0  3.904279  0
C  C52  1  0.23676161  0.87654252  0.66916832  1  0  -0.227906  0  3.661529  0  0  -0.243208  0  3.915159  0  0  -0.255572  0  3.930668  0  0  -0.09555  -0.235194  0  3.90487  0
C  C53  1  0.73676045  0.66916870  0.87654247  1  0  -0.227969  0  3.661462  0  0  -0.2433  0  3.915096  0  0  -0.255665  0  3.930603  0  0  -0.095587  -0.235285  0  3.90481  0
C  C54  1  0.86000319  0.12346159  0.79261127  1  0  -0.225153  0  3.658902  0  0  -0.240046  0  3.913816  0  0  -0.252325  0  3.929379  0  0  -0.094806  -0.232079  0  3.90346  0
C  C55  1  0.06758678  0.20740334  0.33088117  1  0  -0.227437  0  3.660349  0  0  -0.242634  0  3.914534  0  0  -0.254982  0  3.930148  0  0  -0.095333  -0.234604  0  3.904219  0
C  C56  1  0.37550634  0.68354895  0.09017167  1  0  -0.017153  0  3.694482  0  0  -0.040594  0  3.93806  0  0  -0.034499  0  3.954014  0  0  -0.062109  -0.044479  0  3.927198  0
C  C57  1  0.69211276  0.40662058  0.31647591  1  0  -0.017855  0  3.69035  0  0  -0.041073  0  3.934372  0  0  -0.035012  0  3.950329  0  0  -0.063099  -0.044964  0  3.923525  0
C  C58  1  0.28556358  0.90977026  0.59335194  1  0  -0.018337  0  3.694587  0  0  -0.041589  0  3.938428  0  0  -0.035532  0  3.954461  0  0  -0.062473  -0.045421  0  3.927541  0
C  C59  1  0.78556515  0.59335187  0.90977130  1  0  -0.018387  0  3.694479  0  0  -0.041651  0  3.938331  0  0  -0.035596  0  3.954359  0  0  -0.062483  -0.045482  0  3.927445  0
C  C60  1  0.87550861  0.09017376  0.68354911  1  0  -0.017191  0  3.694456  0  0  -0.040596  0  3.938004  0  0  -0.0345  0  3.953955  0  0  -0.062132  -0.044485  0  3.92714  0
C  C61  1  0.19211540  0.31648039  0.40662412  1  0  -0.017946  0  3.690443  0  0  -0.041146  0  3.93447  0  0  -0.035084  0  3.950426  0  0  -0.063072  -0.045036  0  3.923622  0
C  C62  1  0.27961585  0.59727146  0.11722119  1  0  0.056837  0  3.831498  0  0  0.080123  0  4.059006  0  0  0.077854  0  4.082477  0  0  -0.015469  0.081549  0  4.043021  0
C  C63  1  0.68241024  0.51993167  0.40273915  1  0  0.058911  0  3.826598  0  0  0.081211  0  4.055512  0  0  0.078854  0  4.079126  0  0  -0.015645  0.082697  0  4.039443  0
C  C64  1  0.16250227  0.88268587  0.48001261  1  0  0.059305  0  3.829549  0  0  0.08157  0  4.058304  0  0  0.079239  0  4.08191  0  0  -0.015214  0.083032  0  4.042235  0
C  C65  1  0.66250289  0.48001322  0.88268607  1  0  0.059338  0  3.829516  0  0  0.081629  0  4.058244  0  0  0.079298  0  4.081849  0  0  -0.015217  0.083087  0  4.04218  0
C  C66  1  0.77961964  0.11722028  0.59727213  1  0  0.05688  0  3.83149  0  0  0.080135  0  4.059038  0  0  0.077866  0  4.082509  0  0  -0.015495  0.08156  0  4.043052  0
C  C67  1  0.18240926  0.40273944  0.51993194  1  0  0.058926  0  3.8267  0  0  0.081227  0  4.055611  0  0  0.07887  0  4.079224  0  0  -0.015686  0.082712  0  4.039543  0
C  C68  1  0.27326116  0.47864055  0.05015137  1  0  -0.114671  0  3.729647  0  0  -0.132637  0  3.96866  0  0  -0.134666  0  3.990628  0  0  -0.087846  -0.131086  0  3.953667  0
C  C69  1  0.79483204  0.57157587  0.52138570  1  0  -0.115553  0  3.728064  0  0  -0.133101  0  3.967131  0  0  -0.13512  0  3.989111  0  0  -0.08717  -0.131567  0  3.952143  0
C  C70  1  0.22326375  0.94978893  0.42845238  1  0  -0.115324  0  3.729516  0  0  -0.133313  0  3.968569  0  0  -0.135349  0  3.990559  0  0  -0.087635  -0.131739  0  3.953546  0
C  C71  1  0.72326216  0.42845339  0.94978953  1  0  -0.115328  0  3.729521  0  0  -0.13332  0  3.968561  0  0  -0.135359  0  3.990556  0  0  -0.087652  -0.131745  0  3.953539  0
C  C72  1  0.77325937  0.05015145  0.47863956  1  0  -0.114772  0  3.729617  0  0  -0.132735  0  3.96865  0  0  -0.134764  0  3.990619  0  0  -0.087843  -0.131185  0  3.953656  0
C  C73  1  0.29483151  0.52138532  0.57157637  1  0  -0.11552  0  3.728005  0  0  -0.133071  0  3.967074  0  0  -0.13509  0  3.989054  0  0  -0.087154  -0.131538  0  3.952087  0
C  C74  1  0.17845382  0.39152024  0.06942829  1  0  -0.070614  0  3.773326  0  0  -0.082943  0  4.024632  0  0  -0.085038  0  4.045034  0  0  -0.090136  -0.081531  0  4.01077  0
C  C75  1  0.78705085  0.67794301  0.60849154  1  0  -0.072414  0  3.773604  0  0  -0.084708  0  4.025228  0  0  -0.086794  0  4.045564  0  0  -0.091259  -0.083321  0  4.01142  0
C  C76  1  0.10911911  0.93063484  0.32213180  1  0  -0.073336  0  3.773741  0  0  -0.085542  0  4.025284  0  0  -0.087621  0  4.045663  0  0  -0.09162  -0.084157  0  4.011449  0
C  C77  1  0.60911770  0.32213161  0.93063370  1  0  -0.073324  0  3.773735  0  0  -0.08552  0  4.025274  0  0  -0.087599  0  4.04565  0  0  -0.091598  -0.084135  0  4.01144  0
C  C78  1  0.67845234  0.06942751  0.39151920  1  0  -0.070537  0  3.773145  0  0  -0.082869  0  4.024457  0  0  -0.084964  0  4.04486  0  0  -0.090124  -0.081455  0  4.010593  0
C  C79  1  0.28705113  0.60849191  0.67794434  1  0  -0.072418  0  3.773567  0  0  -0.084725  0  4.0252  0  0  -0.086811  0  4.045535  0  0  -0.09126  -0.083337  0  4.011392  0
C  C80  1  0.09062681  0.42088364  0.15756982  1  0  -0.059157  0  3.713354  0  0  -0.075896  0  3.965269  0  0  -0.076759  0  3.984884  0  0  -0.08273  -0.07512  0  3.951823  0
C  C81  1  0.66984362  0.73665374  0.57904128  1  0  -0.056261  0  3.712198  0  0  -0.073486  0  3.963876  0  0  -0.074368  0  3.983379  0  0  -0.08219  -0.072684  0  3.950524  0
C  C82  1  0.93321110  0.84245643  0.26334112  1  0  -0.056857  0  3.711398  0  0  -0.073904  0  3.9631  0  0  -0.074772  0  3.982699  0  0  -0.082185  -0.073109  0  3.949659  0
C  C83  1  0.43321116  0.26334206  0.84245708  1  0  -0.056794  0  3.711393  0  0  -0.073867  0  3.963095  0  0  -0.074734  0  3.982691  0  0  -0.08217  -0.073073  0  3.949654  0
C  C84  1  0.59062502  0.15756918  0.42088292  1  0  -0.059099  0  3.713229  0  0  -0.075852  0  3.965152  0  0  -0.076716  0  3.984769  0  0  -0.082733  -0.075076  0  3.951704  0
C  C85  1  0.16984369  0.57904189  0.73665577  1  0  -0.056305  0  3.712221  0  0  -0.073532  0  3.963911  0  0  -0.074416  0  3.983418  0  0  -0.082217  -0.072731  0  3.950558  0
C  C86  1  0.09832311  0.53886928  0.22598798  1  0  -0.074532  0  3.775618  0  0  -0.084929  0  4.022699  0  0  -0.08775  0  4.044152  0  0  -0.089051  -0.083009  0  4.008054  0
C  C87  1  0.55950041  0.68704773  0.46105252  1  0  -0.075983  0  3.777425  0  0  -0.085927  0  4.024344  0  0  -0.088783  0  4.045798  0  0  -0.089776  -0.084016  0  4.009702  0
C  C88  1  0.87250454  0.77396846  0.31286072  1  0  -0.077036  0  3.778811  0  0  -0.087508  0  4.025863  0  0  -0.090363  0  4.047327  0  0  -0.08956  -0.085585  0  4.011183  0
C  C89  1  0.37250433  0.31286113  0.77396834  1  0  -0.077085  0  3.778883  0  0  -0.087561  0  4.025943  0  0  -0.090416  0  4.047407  0  0  -0.089596  -0.085638  0  4.011262  0
C  C90  1  0.59832587  0.22598862  0.53886730  1  0  -0.074414  0  3.775543  0  0  -0.084792  0  4.022602  0  0  -0.087612  0  4.044055  0  0  -0.088939  -0.082871  0  4.007954  0
C  C91  1  0.05950034  0.46105345  0.68704979  1  0  -0.075828  0  3.777364  0  0  -0.085754  0  4.024251  0  0  -0.088609  0  4.045706  0  0  -0.089712  -0.083842  0  4.009609  0
C  C92  1  0.19084541  0.62615510  0.20607786  1  0  -0.10871  0  3.717452  0  0  -0.126382  0  3.956446  0  0  -0.127759  0  3.977698  0  0  -0.085947  -0.125291  0  3.94202  0
C  C93  1  0.56478002  0.57989113  0.37380541  1  0  -0.109466  0  3.718779  0  0  -0.126915  0  3.957863  0  0  -0.128314  0  3.979115  0  0  -0.085957  -0.125767  0  3.943424  0
C  C94  1  0.98489113  0.79380659  0.42001675  1  0  -0.108453  0  3.719271  0  0  -0.125676  0  3.958347  0  0  -0.127087  0  3.979611  0  0  -0.086008  -0.124549  0  3.943892  0
C  C95  1  0.48489057  0.42001741  0.79380756  1  0  -0.108468  0  3.719254  0  0  -0.125703  0  3.958323  0  0  -0.127113  0  3.979584  0  0  -0.086019  -0.124575  0  3.943868  0
C  C96  1  0.69084513  0.20607884  0.62615444  1  0  -0.108861  0  3.717529  0  0  -0.12654  0  3.956555  0  0  -0.127918  0  3.977805  0  0  -0.086008  -0.12545  0  3.942129  0
C  C97  1  0.06478070  0.37380617  0.57989173  1  0  -0.109602  0  3.718954  0  0  -0.127052  0  3.958051  0  0  -0.128454  0  3.9793  0  0  -0.085988  -0.125903  0  3.94361  0
O  O98  1  0.42475488  0.96607279  0.10451094  1  0  -0.800952  0  2.047941  0  0  -0.75205  0  2.29781  0  0  -0.781022  0  2.286638  0  0  -0.425361  -0.730989  0  2.30493  0
O  O99  1  0.45879889  0.13845160  0.03399385  1  0  -0.800936  0  2.050636  0  0  -0.751981  0  2.300327  0  0  -0.781067  0  2.289357  0  0  -0.425529  -0.730847  0  2.307322  0
O  O100  1  0.32050483  0.89568158  0.86167641  1  0  -0.800681  0  2.049668  0  0  -0.752135  0  2.298729  0  0  -0.781316  0  2.287871  0  0  -0.424802  -0.730909  0  2.305613  0
O  O101  1  0.82050437  0.86167660  0.89568258  1  0  -0.800567  0  2.049673  0  0  -0.752052  0  2.298735  0  0  -0.781233  0  2.287874  0  0  -0.424748  -0.730827  0  2.305618  0
O  O102  1  0.92475820  0.10451122  0.96607307  1  0  -0.800996  0  2.047913  0  0  -0.752068  0  2.297799  0  0  -0.781041  0  2.286624  0  0  -0.425379  -0.731009  0  2.304917  0
O  O103  1  0.95879786  0.03399395  0.13845145  1  0  -0.800965  0  2.050637  0  0  -0.751994  0  2.300328  0  0  -0.781084  0  2.289353  0  0  -0.425542  -0.730863  0  2.307321  0
O  O104  1  0.58214809  0.83940390  0.03315872  1  0  -0.681384  0  1.998732  0  0  -0.63455  0  2.239081  0  0  -0.661658  0  2.231034  0  0  -0.379649  -0.615468  0  2.244279  0
O  O105  1  0.74306476  0.19389598  0.16057465  1  0  -0.680499  0  1.998481  0  0  -0.634097  0  2.238998  0  0  -0.66123  0  2.230979  0  0  -0.379354  -0.615003  0  2.244187  0
O  O106  1  0.54929020  0.96684853  0.80624646  1  0  -0.681565  0  1.999294  0  0  -0.635378  0  2.239124  0  0  -0.662506  0  2.231061  0  0  -0.37975  -0.616272  0  2.244317  0
O  O107  1  0.04929049  0.80624682  0.96684949  1  0  -0.681522  0  1.999324  0  0  -0.635366  0  2.239116  0  0  -0.662493  0  2.231054  0  0  -0.37976  -0.616253  0  2.244312  0
O  O108  1  0.08214923  0.03316003  0.83940473  1  0  -0.681316  0  1.998734  0  0  -0.634507  0  2.239141  0  0  -0.661615  0  2.231093  0  0  -0.379606  -0.615422  0  2.24434  0
O  O109  1  0.24306375  0.16057445  0.19389705  1  0  -0.680533  0  1.998426  0  0  -0.63413  0  2.238949  0  0  -0.661264  0  2.23093  0  0  -0.379378  -0.615032  0  2.244139  0
