# generated using pymatgen
data_LiSnH8C10(OF5)3
_symmetry_space_group_name_H-M   'P 1'
_cell_length_a   9.66680092
_cell_length_b   10.51001047
_cell_length_c   10.79521153
_cell_angle_alpha   115.10943465
_cell_angle_beta   95.74843684
_cell_angle_gamma   110.72307784
_symmetry_Int_Tables_number   1
_chemical_formula_structural   LiSnH8C10(OF5)3
_chemical_formula_sum   'Li2 Sn2 H16 C20 O6 F30'
_cell_volume   887.37445580
_cell_formula_units_Z   2
loop_
 _symmetry_equiv_pos_site_id
 _symmetry_equiv_pos_as_xyz
  1  'x, y, z'
loop_
 _atom_site_type_symbol
 _atom_site_label
 _atom_site_symmetry_multiplicity
 _atom_site_fract_x
 _atom_site_fract_y
 _atom_site_fract_z
 _atom_site_occupancy
 _atom_site_hle17_bader_spin_density
 _atom_site_hle17_ddec_charge
 _atom_site_hle17_ddec_spin_density
 _atom_site_hle17_ddec_sum_bond_order
 _atom_site_hle17_magmom
 _atom_site_hse06_10hf_bader_spin_density
 _atom_site_hse06_10hf_ddec_charge
 _atom_site_hse06_10hf_ddec_spin_density
 _atom_site_hse06_10hf_ddec_sum_bond_order
 _atom_site_hse06_10hf_magmom
 _atom_site_hse06_bader_spin_density
 _atom_site_hse06_ddec_charge
 _atom_site_hse06_ddec_spin_density
 _atom_site_hse06_ddec_sum_bond_order
 _atom_site_hse06_magmom
 _atom_site_pbe_bader_spin_density
 _atom_site_pbe_cm5_charge
 _atom_site_pbe_ddec_charge
 _atom_site_pbe_ddec_spin_density
 _atom_site_pbe_ddec_sum_bond_order
 _atom_site_pbe_magmom
Li  Li0  1  0.18540308  0.18848626  0.34075597  1  0  0.855989  0  0.395225  0  0  0.805266  0  0.511655  0  0  0.816786  0  0.492793  0  0  0.486754  0.797032  0  0.52511  0
Li  Li1  1  0.81459653  0.81151365  0.65924369  1  0  0.855982  0  0.395236  0  0  0.805257  0  0.511669  0  0  0.816777  0  0.492808  0  0  0.486754  0.797022  0  0.525125  0
Sn  Sn2  1  0.58177964  0.39716617  0.41687390  1  0  1.200583  0  2.992989  0  0  0.94393  0  3.523289  0  0  0.993878  0  3.491557  0  0  0.520039  0.90922  0  3.545298  0
Sn  Sn3  1  0.41822048  0.60283491  0.58312629  1  0  1.200619  0  2.992967  0  0  0.943961  0  3.523259  0  0  0.993906  0  3.491532  0  0  0.520059  0.909244  0  3.545275  0
H  H4  1  0.25704739  0.02808329  0.49227385  1  0  0.082712  0  0.917082  0  0  0.098004  0  0.976826  0  0  0.098607  0  0.97581  0  0  0.112195  0.097485  0  0.977651  0
H  H5  1  0.74295222  0.97191663  0.50772673  1  0  0.082718  0  0.917068  0  0  0.098005  0  0.976808  0  0  0.098609  0  0.975792  0  0  0.112198  0.097481  0  0.977648  0
H  H6  1  0.08002707  0.85184965  0.39236729  1  0  0.06596  0  0.930258  0  0  0.074828  0  1.002102  0  0  0.076081  0  1.000205  0  0  0.097905  0.073851  0  1.003557  0
H  H7  1  0.91997253  0.14815027  0.60763329  1  0  0.065959  0  0.930301  0  0  0.074821  0  1.002149  0  0  0.076075  0  1.00025  0  0  0.097912  0.073845  0  1.003602  0
H  H8  1  0.85115012  0.87548738  0.30803307  1  0  0.060015  0  0.930752  0  0  0.069865  0  1.002208  0  0  0.070607  0  1.00091  0  0  0.098299  0.06918  0  1.003454  0
H  H9  1  0.14884948  0.12451254  0.69196659  1  0  0.060041  0  0.930756  0  0  0.069901  0  1.002191  0  0  0.070643  0  1.000892  0  0  0.0983  0.069213  0  1.003441  0
H  H10  1  0.87445566  0.06724675  0.34970625  1  0  0.080548  0  0.940873  0  0  0.091354  0  1.006768  0  0  0.09257  0  1.005313  0  0  0.111341  0.090397  0  1.008151  0
H  H11  1  0.12554394  0.93275317  0.65029433  1  0  0.08056  0  0.940879  0  0  0.091362  0  1.006771  0  0  0.092579  0  1.005314  0  0  0.111335  0.090406  0  1.008156  0
H  H12  1  0.84723923  0.85049986  0.03829602  1  0  0.069606  0  0.906808  0  0  0.084671  0  0.966988  0  0  0.085451  0  0.966088  0  0  0.106084  0.083982  0  0.967903  0
H  H13  1  0.15276037  0.14950006  0.96170456  1  0  0.069625  0  0.906794  0  0  0.084693  0  0.966976  0  0  0.085473  0  0.966077  0  0  0.106086  0.084003  0  0.967892  0
H  H14  1  0.02353581  0.87096210  0.13399956  1  0  0.08051  0  0.917541  0  0  0.095588  0  0.975512  0  0  0.095948  0  0.975432  0  0  0.118714  0.095118  0  0.976085  0
H  H15  1  0.97646276  0.12903781  0.86600093  1  0  0.080492  0  0.917559  0  0  0.095571  0  0.975535  0  0  0.095932  0  0.975456  0  0  0.118704  0.095101  0  0.976108  0
H  H16  1  0.01835715  0.25891798  0.13473058  1  0  0.078243  0  0.945429  0  0  0.090366  0  1.009552  0  0  0.091097  0  1.008309  0  0  0.107224  0.08972  0  1.010563  0
H  H17  1  0.98164246  0.74108194  0.86526907  1  0  0.078274  0  0.945382  0  0  0.090386  0  1.009528  0  0  0.091117  0  1.008284  0  0  0.107227  0.089745  0  1.010544  0
H  H18  1  0.84540278  0.07957388  0.03817183  1  0  0.072759  0  0.936076  0  0  0.082787  0  1.003864  0  0  0.084227  0  1.002097  0  0  0.099066  0.081628  0  1.005244  0
H  H19  1  0.15459630  0.92042720  0.96182918  1  0  0.072743  0  0.936127  0  0  0.082801  0  1.003887  0  0  0.084242  0  1.002118  0  0  0.099082  0.081647  0  1.005273  0
C  C20  1  0.70960743  0.46778496  0.27270805  1  0  0.021068  0  3.560875  0  0  0.009493  0  3.899133  0  0  0.014661  0  3.893284  0  0  0.098806  0.005423  0  3.903799  0
C  C21  1  0.29039167  0.53221379  0.72729108  1  0  0.021071  0  3.560899  0  0  0.009505  0  3.899068  0  0  0.01468  0  3.893203  0  0  0.098813  0.005433  0  3.903735  0
C  C22  1  0.63374725  0.51026477  0.17314793  1  0  0.71788  0  3.72365  0  0  0.631581  0  4.084964  0  0  0.66139  0  4.060544  0  0  0.283055  0.610264  0  4.102856  0
C  C23  1  0.36625235  0.48973514  0.82685173  1  0  0.717646  0  3.72401  0  0  0.631461  0  4.085137  0  0  0.661267  0  4.060719  0  0  0.283025  0.610144  0  4.103027  0
C  C24  1  0.78180663  0.41480064  0.56495496  1  0  0.016749  0  3.561019  0  0  0.002796  0  3.900016  0  0  0.00834  0  3.893756  0  0  0.098897  -0.001405  0  3.904815  0
C  C25  1  0.21819298  0.58519928  0.43504469  1  0  0.016741  0  3.560985  0  0  0.002771  0  3.900019  0  0  0.008302  0  3.893781  0  0  0.098864  -0.001423  0  3.904806  0
C  C26  1  0.75242108  0.39424767  0.69438640  1  0  0.711813  0  3.735945  0  0  0.630783  0  4.087945  0  0  0.660672  0  4.063247  0  0  0.28556  0.609456  0  4.105927  0
C  C27  1  0.24757956  0.60575225  0.30561334  1  0  0.711823  0  3.735823  0  0  0.630777  0  4.087862  0  0  0.660671  0  4.06316  0  0  0.285563  0.609443  0  4.105845  0
C  C28  1  0.45720998  0.12897073  0.24828140  1  0  4.6e-05  0  3.473008  0  0  -0.018858  0  3.81729  0  0  -0.014264  0  3.810333  0  0  0.090358  -0.022284  0  3.822403  0
C  C29  1  0.54278963  0.87102919  0.75171918  1  0  8.3e-05  0  3.472998  0  0  -0.018812  0  3.81726  0  0  -0.014216  0  3.810302  0  0  0.090369  -0.022238  0  3.822371  0
C  C30  1  0.52926789  0.01530689  0.22904726  1  0  0.717281  0  3.729617  0  0  0.634734  0  4.084447  0  0  0.664495  0  4.059975  0  0  0.282644  0.613432  0  4.102231  0
C  C31  1  0.47073223  0.98469419  0.77095385  1  0  0.717207  0  3.729741  0  0  0.634674  0  4.084553  0  0  0.664425  0  4.060088  0  0  0.282647  0.613369  0  4.102337  0
C  C32  1  0.13126897  0.97719843  0.47243937  1  0  0.056162  0  3.621948  0  0  -0.006106  0  3.899096  0  0  0.000255  0  3.904386  0  0  -0.072166  -0.010452  0  3.89556  0
C  C33  1  0.86873114  0.02280266  0.52756082  1  0  0.056127  0  3.621966  0  0  -0.006112  0  3.899082  0  0  0.000247  0  3.904372  0  0  -0.072179  -0.01046  0  3.895543  0
C  C34  1  0.90907729  0.00028421  0.39022808  1  0  0.052194  0  3.630548  0  0  -0.00812  0  3.905783  0  0  -0.002003  0  3.911296  0  0  -0.0738  -0.012457  0  3.902464  0
C  C35  1  0.09092232  0.99971570  0.60977250  1  0  0.052109  0  3.630601  0  0  -0.008212  0  3.905865  0  0  -0.002096  0  3.911375  0  0  -0.07381  -0.012539  0  3.902516  0
C  C36  1  0.97466900  0.90775015  0.06650092  1  0  0.053586  0  3.626381  0  0  -0.007528  0  3.903777  0  0  -0.001441  0  3.909583  0  0  -0.067812  -0.011908  0  3.900497  0
C  C37  1  0.02532957  0.09224976  0.93349864  1  0  0.053573  0  3.626341  0  0  -0.007561  0  3.903752  0  0  -0.001477  0  3.909565  0  0  -0.067824  -0.011942  0  3.900454  0
C  C38  1  0.97254022  0.13226931  0.06678355  1  0  0.050173  0  3.618238  0  0  -0.006788  0  3.887308  0  0  -0.00087  0  3.892831  0  0  -0.072283  -0.0106  0  3.883494  0
C  C39  1  0.02745885  0.86773177  0.93321746  1  0  0.050179  0  3.618248  0  0  -0.006816  0  3.887343  0  0  -0.000894  0  3.892859  0  0  -0.072294  -0.010659  0  3.883575  0
O  O40  1  0.36821632  0.37108283  0.43640144  1  0  -0.971686  0  1.660695  0  0  -0.885446  0  1.947317  0  0  -0.913087  0  1.927635  0  0  -0.584746  -0.866131  0  1.960609  0
O  O41  1  0.63178484  0.62891825  0.56359883  1  0  -0.971695  0  1.660708  0  0  -0.885451  0  1.94733  0  0  -0.913091  0  1.927647  0  0  -0.584759  -0.866136  0  1.96062  0
O  O42  1  0.07417021  0.05648854  0.41479768  1  0  -0.397354  0  2.285813  0  0  -0.327877  0  2.543882  0  0  -0.343622  0  2.543196  0  0  -0.300908  -0.316574  0  2.544412  0
O  O43  1  0.92582939  0.94351138  0.58520198  1  0  -0.397315  0  2.285826  0  0  -0.327844  0  2.543881  0  0  -0.343589  0  2.543197  0  0  -0.300907  -0.31654  0  2.544413  0
O  O44  1  0.02923362  0.07522977  0.15136654  1  0  -0.39594  0  2.258712  0  0  -0.328243  0  2.517778  0  0  -0.343471  0  2.51628  0  0  -0.290881  -0.317429  0  2.518847  0
O  O45  1  0.97076495  0.92477014  0.84863302  1  0  -0.395959  0  2.258653  0  0  -0.328253  0  2.517729  0  0  -0.343482  0  2.516232  0  0  -0.290872  -0.317432  0  2.518809  0
F  F46  1  0.74797105  0.35121839  0.18801826  1  0  -0.181411  0  1.258663  0  0  -0.147944  0  1.42853  0  0  -0.156521  0  1.418061  0  0  -0.117655  -0.1417  0  1.435585  0
F  F47  1  0.25202805  0.64878036  0.81198086  1  0  -0.181386  0  1.25865  0  0  -0.147931  0  1.428511  0  0  -0.156511  0  1.418038  0  0  -0.117655  -0.141687  0  1.435565  0
F  F48  1  0.84808078  0.59910420  0.36194671  1  0  -0.191537  0  1.277175  0  0  -0.155515  0  1.454323  0  0  -0.163635  0  1.443241  0  0  -0.104487  -0.149695  0  1.461999  0
F  F49  1  0.15191728  0.40089455  0.63805233  1  0  -0.191554  0  1.277153  0  0  -0.155538  0  1.454289  0  0  -0.163659  0  1.443202  0  0  -0.104516  -0.149717  0  1.461965  0
F  F50  1  0.49687979  0.38892355  0.08047955  1  0  -0.236486  0  1.186316  0  0  -0.202965  0  1.357642  0  0  -0.212737  0  1.340547  0  0  -0.098305  -0.195947  0  1.369588  0
F  F51  1  0.50311982  0.61107636  0.91952010  1  0  -0.23642  0  1.186369  0  0  -0.202936  0  1.35766  0  0  -0.212708  0  1.340568  0  0  -0.0983  -0.195917  0  1.369606  0
F  F52  1  0.60678495  0.63515933  0.25207151  1  0  -0.245342  0  1.179458  0  0  -0.206874  0  1.349706  0  0  -0.216876  0  1.332902  0  0  -0.092557  -0.199645  0  1.36137  0
F  F53  1  0.39321415  0.36483942  0.74792761  1  0  -0.245275  0  1.179513  0  0  -0.206836  0  1.349719  0  0  -0.216837  0  1.332916  0  0  -0.092545  -0.199607  0  1.361381  0
F  F54  1  0.72582739  0.54968041  0.09522171  1  0  -0.23576  0  1.136983  0  0  -0.202058  0  1.298036  0  0  -0.21052  0  1.280563  0  0  -0.106672  -0.196112  0  1.310448  0
F  F55  1  0.27417170  0.45031834  0.90477742  1  0  -0.235681  0  1.137099  0  0  -0.202013  0  1.298116  0  0  -0.210473  0  1.280644  0  0  -0.106647  -0.196066  0  1.310527  0
F  F56  1  0.90417087  0.56204030  0.61913554  1  0  -0.184761  0  1.263739  0  0  -0.144065  0  1.431356  0  0  -0.152004  0  1.420168  0  0  -0.09448  -0.138366  0  1.43903  0
F  F57  1  0.09582925  0.43796078  0.38086464  1  0  -0.184755  0  1.263736  0  0  -0.144055  0  1.431361  0  0  -0.15199  0  1.420179  0  0  -0.094457  -0.138357  0  1.439033  0
F  F58  1  0.83394119  0.30715541  0.48803846  1  0  -0.186147  0  1.297288  0  0  -0.147466  0  1.473452  0  0  -0.157011  0  1.464133  0  0  -0.106652  -0.140602  0  1.479827  0
F  F59  1  0.16605842  0.69284451  0.51196119  1  0  -0.186152  0  1.297274  0  0  -0.14747  0  1.473447  0  0  -0.15701  0  1.464132  0  0  -0.106656  -0.140607  0  1.479819  0
F  F60  1  0.72021857  0.51013961  0.78437644  1  0  -0.237145  0  1.186084  0  0  -0.204726  0  1.362644  0  0  -0.215321  0  1.346222  0  0  -0.088882  -0.197172  0  1.374219  0
F  F61  1  0.27978103  0.48986031  0.21562321  1  0  -0.23709  0  1.186021  0  0  -0.204664  0  1.36259  0  0  -0.215259  0  1.346167  0  0  -0.088835  -0.197108  0  1.374163  0
F  F62  1  0.87559467  0.39806509  0.77152961  1  0  -0.225856  0  1.129109  0  0  -0.19661  0  1.290973  0  0  -0.204768  0  1.273601  0  0  -0.102446  -0.190709  0  1.303194  0
F  F63  1  0.12440648  0.60193599  0.22847066  1  0  -0.225901  0  1.129077  0  0  -0.19665  0  1.290951  0  0  -0.204806  0  1.273577  0  0  -0.102478  -0.190748  0  1.303173  0
F  F64  1  0.62913015  0.25491299  0.64894428  1  0  -0.234897  0  1.186698  0  0  -0.205811  0  1.364053  0  0  -0.21571  0  1.34698  0  0  -0.09762  -0.198648  0  1.375889  0
F  F65  1  0.37087050  0.74508693  0.35105639  1  0  -0.234902  0  1.186701  0  0  -0.205813  0  1.364063  0  0  -0.21571  0  1.346988  0  0  -0.097622  -0.198646  0  1.375898  0
F  F66  1  0.31659021  0.06103543  0.27487814  1  0  -0.232913  0  1.274426  0  0  -0.191414  0  1.460474  0  0  -0.200863  0  1.448579  0  0  -0.124558  -0.184712  0  1.468754  0
F  F67  1  0.68340886  0.93896565  0.72512195  1  0  -0.232908  0  1.274402  0  0  -0.191411  0  1.460447  0  0  -0.20086  0  1.448552  0  0  -0.124547  -0.184708  0  1.468726  0
F  F68  1  0.41408704  0.11549314  0.11534786  1  0  -0.185862  0  1.291655  0  0  -0.151711  0  1.4742  0  0  -0.160841  0  1.463128  0  0  -0.108125  -0.145121  0  1.481776  0
F  F69  1  0.58591257  0.88450677  0.88465272  1  0  -0.185877  0  1.291661  0  0  -0.151727  0  1.474204  0  0  -0.160856  0  1.463132  0  0  -0.108137  -0.145137  0  1.481779  0
F  F70  1  0.66246883  0.06042791  0.19393279  1  0  -0.226675  0  1.191145  0  0  -0.196233  0  1.370253  0  0  -0.206759  0  1.35465  0  0  -0.088701  -0.188668  0  1.381058  0
F  F71  1  0.33753182  0.93957201  0.80606788  1  0  -0.226647  0  1.191222  0  0  -0.196204  0  1.370332  0  0  -0.20673  0  1.35473  0  0  -0.088692  -0.188639  0  1.381137  0
F  F72  1  0.56333692  0.01365049  0.35366392  1  0  -0.248842  0  1.201094  0  0  -0.205689  0  1.370213  0  0  -0.216583  0  1.354608  0  0  -0.097142  -0.197781  0  1.381006  0
F  F73  1  0.43666268  0.98634942  0.64633573  1  0  -0.248851  0  1.201055  0  0  -0.205704  0  1.370172  0  0  -0.216595  0  1.354568  0  0  -0.097165  -0.197796  0  1.380964  0
F  F74  1  0.43305712  0.86629839  0.12525810  1  0  -0.225243  0  1.159544  0  0  -0.197975  0  1.328597  0  0  -0.206139  0  1.310328  0  0  -0.106054  -0.19204  0  1.341249  0
F  F75  1  0.56694300  0.13370270  0.87474115  1  0  -0.225222  0  1.159603  0  0  -0.197958  0  1.328652  0  0  -0.206119  0  1.310383  0  0  -0.106051  -0.192022  0  1.341303  0
