# generated using pymatgen
data_Cd2H5C7(N6O)2
_symmetry_space_group_name_H-M   'P 1'
_cell_length_a   9.64591604
_cell_length_b   13.93434693
_cell_length_c   13.93435308
_cell_angle_alpha   83.11722089
_cell_angle_beta   69.74886848
_cell_angle_gamma   69.74892823
_symmetry_Int_Tables_number   1
_chemical_formula_structural   Cd2H5C7(N6O)2
_chemical_formula_sum   'Cd8 H20 C28 N48 O8'
_cell_volume   1648.51757636
_cell_formula_units_Z   4
loop_
 _symmetry_equiv_pos_site_id
 _symmetry_equiv_pos_as_xyz
  1  'x, y, z'
loop_
 _atom_site_type_symbol
 _atom_site_label
 _atom_site_symmetry_multiplicity
 _atom_site_fract_x
 _atom_site_fract_y
 _atom_site_fract_z
 _atom_site_occupancy
 _atom_site_hle17_bader_spin_density
 _atom_site_hle17_ddec_charge
 _atom_site_hle17_ddec_spin_density
 _atom_site_hle17_ddec_sum_bond_order
 _atom_site_hle17_magmom
 _atom_site_hse06_10hf_bader_spin_density
 _atom_site_hse06_10hf_ddec_charge
 _atom_site_hse06_10hf_ddec_spin_density
 _atom_site_hse06_10hf_ddec_sum_bond_order
 _atom_site_hse06_10hf_magmom
 _atom_site_hse06_bader_spin_density
 _atom_site_hse06_ddec_charge
 _atom_site_hse06_ddec_spin_density
 _atom_site_hse06_ddec_sum_bond_order
 _atom_site_hse06_magmom
 _atom_site_pbe_bader_spin_density
 _atom_site_pbe_cm5_charge
 _atom_site_pbe_ddec_charge
 _atom_site_pbe_ddec_spin_density
 _atom_site_pbe_ddec_sum_bond_order
 _atom_site_pbe_magmom
Cd  Cd0  1  0.05063042  0.40927106  0.84525081  1  0  0.990054  0  1.877631  0  0  0.762164  0  2.361515  0  0  0.813819  0  2.316367  0  0  0.797031  0.725594  0  2.39232  0
Cd  Cd1  1  0.30527725  0.59065986  0.15471967  1  0  0.988883  0  1.879882  0  0  0.761109  0  2.363998  0  0  0.812691  0  2.318879  0  0  0.79698  0.724599  0  2.394785  0
Cd  Cd2  1  0.53995805  0.15475344  0.40935327  1  0  0.989789  0  1.878967  0  0  0.762023  0  2.363105  0  0  0.813617  0  2.317973  0  0  0.797502  0.725504  0  2.393897  0
Cd  Cd3  1  0.10394577  0.84525600  0.59068588  1  0  0.988995  0  1.879739  0  0  0.760974  0  2.364025  0  0  0.812604  0  2.318874  0  0  0.796719  0.724419  0  2.394836  0
Cd  Cd4  1  0.55063065  0.84525005  0.40927315  1  0  0.990106  0  1.877606  0  0  0.76222  0  2.361497  0  0  0.813873  0  2.316349  0  0  0.797072  0.725656  0  2.392305  0
Cd  Cd5  1  0.80527680  0.15472016  0.59066006  1  0  0.988848  0  1.879886  0  0  0.761065  0  2.364003  0  0  0.812646  0  2.318886  0  0  0.796976  0.724556  0  2.394791  0
Cd  Cd6  1  0.03995807  0.40935373  0.15475385  1  0  0.989779  0  1.87897  0  0  0.762008  0  2.36311  0  0  0.813599  0  2.317981  0  0  0.7975  0.725485  0  2.393903  0
Cd  Cd7  1  0.60394316  0.59068643  0.84525776  1  0  0.989048  0  1.879765  0  0  0.761031  0  2.364067  0  0  0.812659  0  2.318913  0  0  0.79674  0.724478  0  2.394879  0
H  H8  1  0.21225758  0.58916987  0.67945160  1  0  0.087979  0  0.953932  0  0  0.095433  0  1.022215  0  0  0.097595  0  1.019505  0  0  0.131519  0.093735  0  1.024304  0
H  H9  1  0.48104512  0.41072193  0.32044116  1  0  0.087467  0  0.955149  0  0  0.094758  0  1.023547  0  0  0.096899  0  1.020828  0  0  0.131631  0.093134  0  1.025565  0
H  H10  1  0.19879876  0.32050057  0.58908540  1  0  0.088518  0  0.955032  0  0  0.095528  0  1.023602  0  0  0.097778  0  1.020807  0  0  0.131821  0.093842  0  1.02568  0
H  H11  1  0.10798576  0.67961649  0.41074079  1  0  0.088674  0  0.9544  0  0  0.095803  0  1.022797  0  0  0.097971  0  1.020092  0  0  0.13214  0.094187  0  1.024793  0
H  H12  1  0.71225445  0.67945311  0.58917479  1  0  0.088025  0  0.953901  0  0  0.095456  0  1.022202  0  0  0.097632  0  1.019481  0  0  0.131555  0.093757  0  1.02429  0
H  H13  1  0.98104324  0.32044334  0.41072201  1  0  0.08747  0  0.955161  0  0  0.094763  0  1.023559  0  0  0.096905  0  1.02084  0  0  0.131629  0.093138  0  1.025573  0
H  H14  1  0.69879864  0.58908756  0.32049911  1  0  0.088457  0  0.955013  0  0  0.095468  0  1.023591  0  0  0.097719  0  1.020793  0  0  0.1318  0.093783  0  1.02567  0
H  H15  1  0.60798321  0.41074299  0.67961721  1  0  0.088676  0  0.954397  0  0  0.095805  0  1.022796  0  0  0.097974  0  1.020089  0  0  0.132127  0.094188  0  1.024794  0
H  H16  1  0.36482012  0.49993688  0.77022021  1  0  0.086528  0  0.951803  0  0  0.094651  0  1.020478  0  0  0.096704  0  1.017721  0  0  0.135732  0.093103  0  1.022555  0
H  H17  1  0.63502173  0.50011838  0.22978471  1  0  0.087139  0  0.951623  0  0  0.095271  0  1.020119  0  0  0.097295  0  1.017405  0  0  0.135871  0.093725  0  1.022192  0
H  H18  1  0.13502169  0.22978375  0.50011738  1  0  0.087181  0  0.951603  0  0  0.095258  0  1.020141  0  0  0.097301  0  1.017408  0  0  0.135868  0.093713  0  1.022212  0
H  H19  1  0.86481955  0.77021923  0.49994033  1  0  0.08649  0  0.951841  0  0  0.094647  0  1.020486  0  0  0.096716  0  1.017708  0  0  0.135742  0.093098  0  1.022563  0
H  H20  1  0.12609445  0.09622390  0.16427831  1  0  0.09734  0  0.939948  0  0  0.106417  0  0.99907  0  0  0.109798  0  0.997232  0  0  0.100457  0.104011  0  1.000438  0
H  H21  1  0.38665614  0.90372914  0.83582664  1  0  0.097437  0  0.939515  0  0  0.106724  0  0.998459  0  0  0.110103  0  0.996626  0  0  0.100601  0.104304  0  0.99982  0
H  H22  1  0.77815698  0.83575393  0.09613731  1  0  0.097474  0  0.939513  0  0  0.106617  0  0.998627  0  0  0.110006  0  0.996771  0  0  0.100493  0.104216  0  0.99999  0
H  H23  1  0.70969588  0.16436541  0.90382343  1  0  0.097415  0  0.940239  0  0  0.106868  0  0.998875  0  0  0.110231  0  0.99706  0  0  0.100695  0.104466  0  1.00023  0
H  H24  1  0.62608971  0.16427690  0.09622631  1  0  0.097415  0  0.939892  0  0  0.106449  0  0.999047  0  0  0.109828  0  0.997209  0  0  0.100462  0.104044  0  1.000411  0
H  H25  1  0.88665795  0.83582592  0.90372739  1  0  0.097436  0  0.939485  0  0  0.106737  0  0.998419  0  0  0.110117  0  0.996583  0  0  0.100607  0.104316  0  0.999779  0
H  H26  1  0.27815423  0.09613790  0.83575818  1  0  0.097446  0  0.939613  0  0  0.106619  0  0.998687  0  0  0.110006  0  0.996833  0  0  0.100512  0.104218  0  1.000049  0
H  H27  1  0.20970142  0.90382127  0.16436604  1  0  0.097419  0  0.940181  0  0  0.106853  0  0.998835  0  0  0.110217  0  0.997021  0  0  0.100702  0.104453  0  1.000191  0
C  C28  1  0.08660566  0.61656228  0.69714395  1  0  0.175753  0  3.757826  0  0  0.118301  0  4.032337  0  0  0.12903  0  4.047825  0  0  0.139129  0.111332  0  4.02173  0
C  C29  1  0.40041505  0.38337315  0.30278139  1  0  0.176724  0  3.752655  0  0  0.119415  0  4.027256  0  0  0.130155  0  4.0427  0  0  0.139381  0.112395  0  4.016648  0
C  C30  1  0.29703118  0.30278644  0.61651185  1  0  0.174291  0  3.758743  0  0  0.117125  0  4.033419  0  0  0.127754  0  4.048891  0  0  0.138951  0.110151  0  4.022818  0
C  C31  1  0.21597055  0.69725646  0.38339726  1  0  0.175122  0  3.752842  0  0  0.118048  0  4.027592  0  0  0.128751  0  4.043071  0  0  0.138936  0.111023  0  4.016989  0
C  C32  1  0.58660161  0.69714575  0.61656592  1  0  0.175747  0  3.757918  0  0  0.118312  0  4.032426  0  0  0.129029  0  4.047909  0  0  0.13913  0.111344  0  4.021822  0
C  C33  1  0.90041258  0.30278313  0.38337341  1  0  0.176704  0  3.752697  0  0  0.119386  0  4.027304  0  0  0.130128  0  4.042749  0  0  0.139387  0.11237  0  4.016692  0
C  C34  1  0.79703156  0.61651327  0.30278520  1  0  0.174427  0  3.758668  0  0  0.117256  0  4.03335  0  0  0.127886  0  4.048819  0  0  0.139016  0.11028  0  4.022752  0
C  C35  1  0.71596891  0.38339925  0.69725800  1  0  0.175051  0  3.752949  0  0  0.117974  0  4.027703  0  0  0.128675  0  4.043185  0  0  0.138983  0.110946  0  4.017103  0
C  C36  1  0.32356160  0.49994461  0.85275830  1  0  0.187825  0  3.730376  0  0  0.126685  0  4.015714  0  0  0.136661  0  4.030071  0  0  0.155022  0.120049  0  4.006123  0
C  C37  1  0.67631410  0.50009042  0.14724815  1  0  0.185052  0  3.735788  0  0  0.124167  0  4.020996  0  0  0.134167  0  4.035393  0  0  0.154005  0.117524  0  4.011392  0
C  C38  1  0.17631406  0.14724714  0.50008968  1  0  0.185031  0  3.735792  0  0  0.124202  0  4.021005  0  0  0.134187  0  4.035395  0  0  0.153978  0.117559  0  4.011401  0
C  C39  1  0.82356171  0.85275637  0.49994431  1  0  0.187856  0  3.730435  0  0  0.126685  0  4.015769  0  0  0.136649  0  4.030122  0  0  0.15501  0.120048  0  4.006177  0
C  C40  1  0.13999900  0.22013326  0.00004076  1  0  0.691831  0  3.885264  0  0  0.6367  0  4.181709  0  0  0.673769  0  4.170803  0  0  0.216828  0.611383  0  4.188326  0
C  C41  1  0.35995857  0.77982552  0.00006599  1  0  0.690309  0  3.886781  0  0  0.636691  0  4.180674  0  0  0.673758  0  4.169766  0  0  0.217082  0.611384  0  4.187318  0
C  C42  1  0.64000108  0.00003674  0.22013412  1  0  0.691817  0  3.885149  0  0  0.636675  0  4.18161  0  0  0.673741  0  4.170703  0  0  0.216893  0.611361  0  4.18823  0
C  C43  1  0.85995239  0.00007051  0.77982622  1  0  0.690132  0  3.887066  0  0  0.636597  0  4.180858  0  0  0.673664  0  4.169961  0  0  0.217073  0.611288  0  4.187499  0
C  C44  1  0.19710016  0.10614762  0.00002047  1  0  -0.051352  0  3.756799  0  0  -0.028661  0  3.988121  0  0  -0.036169  0  4.011345  0  0  -0.013379  -0.023681  0  3.972476  0
C  C45  1  0.30312379  0.89383805  0.00008322  1  0  -0.050204  0  3.758263  0  0  -0.02814  0  3.989504  0  0  -0.035558  0  4.012622  0  0  -0.013114  -0.023204  0  3.973891  0
C  C46  1  0.69710415  0.00002111  0.10614723  1  0  -0.051323  0  3.756795  0  0  -0.028631  0  3.988093  0  0  -0.036138  0  4.011314  0  0  -0.013342  -0.023655  0  3.972451  0
C  C47  1  0.80311673  0.00008571  0.89383835  1  0  -0.050136  0  3.758163  0  0  -0.028127  0  3.989444  0  0  -0.035548  0  4.012567  0  0  -0.013124  -0.023191  0  3.97383  0
C  C48  1  0.17955160  0.05307122  0.09303982  1  0  -0.0676  0  3.745753  0  0  -0.090052  0  3.99283  0  0  -0.091258  0  4.013885  0  0  -0.082419  -0.08916  0  3.978496  0
C  C49  1  0.32572561  0.94691306  0.90706364  1  0  -0.06807  0  3.745615  0  0  -0.0907  0  3.992844  0  0  -0.09193  0  4.013868  0  0  -0.082787  -0.089775  0  3.978539  0
C  C50  1  0.76778988  0.90702602  0.05303656  1  0  -0.068119  0  3.745081  0  0  -0.090674  0  3.992301  0  0  -0.091873  0  4.013332  0  0  -0.08274  -0.089794  0  3.977997  0
C  C51  1  0.72757723  0.09309120  0.94694478  1  0  -0.069022  0  3.746971  0  0  -0.091791  0  3.994268  0  0  -0.093023  0  4.015301  0  0  -0.083275  -0.090884  0  3.979961  0
C  C52  1  0.67955562  0.09303957  0.05307213  1  0  -0.067672  0  3.745805  0  0  -0.090076  0  3.992871  0  0  -0.091281  0  4.013925  0  0  -0.082435  -0.089183  0  3.978538  0
C  C53  1  0.82572425  0.90706439  0.94691144  1  0  -0.068065  0  3.745534  0  0  -0.090699  0  3.992761  0  0  -0.09193  0  4.013786  0  0  -0.082787  -0.089774  0  3.978454  0
C  C54  1  0.26778696  0.05303681  0.90702716  1  0  -0.068032  0  3.745117  0  0  -0.090618  0  3.992353  0  0  -0.091817  0  4.013385  0  0  -0.082716  -0.089738  0  3.978048  0
C  C55  1  0.22758367  0.94694173  0.09309089  1  0  -0.068998  0  3.746884  0  0  -0.091759  0  3.994187  0  0  -0.092991  0  4.015217  0  0  -0.083264  -0.090851  0  3.979881  0
N  N56  1  0.98937153  0.56824846  0.75652135  1  0  -0.299525  0  3.167954  0  0  -0.241553  0  3.456184  0  0  -0.258555  0  3.473956  0  0  -0.24093  -0.229943  0  3.443793  0
N  N57  1  0.31424097  0.43167792  0.24340529  1  0  -0.298145  0  3.162119  0  0  -0.240072  0  3.450251  0  0  -0.257039  0  3.467991  0  0  -0.240493  -0.228491  0  3.4379  0
N  N58  1  0.44256488  0.24341084  0.56825863  1  0  -0.296831  0  3.167943  0  0  -0.238523  0  3.455674  0  0  -0.255497  0  3.473485  0  0  -0.239996  -0.226934  0  3.443284  0
N  N59  1  0.25385792  0.75661724  0.43171214  1  0  -0.296966  0  3.165467  0  0  -0.238823  0  3.453568  0  0  -0.255802  0  3.471358  0  0  -0.239779  -0.22723  0  3.441193  0
N  N60  1  0.48937145  0.75652240  0.56825137  1  0  -0.299498  0  3.168016  0  0  -0.24152  0  3.456222  0  0  -0.258524  0  3.473998  0  0  -0.240917  -0.229912  0  3.443834  0
N  N61  1  0.81424015  0.24340594  0.43167756  1  0  -0.298162  0  3.162101  0  0  -0.240086  0  3.450237  0  0  -0.257053  0  3.467977  0  0  -0.240516  -0.228504  0  3.437886  0
N  N62  1  0.94256547  0.56826000  0.24340962  1  0  -0.296804  0  3.167907  0  0  -0.238492  0  3.455635  0  0  -0.255466  0  3.473446  0  0  -0.23997  -0.226903  0  3.443244  0
N  N63  1  0.75385476  0.43171220  0.75661950  1  0  -0.296902  0  3.165482  0  0  -0.238764  0  3.453589  0  0  -0.255742  0  3.47138  0  0  -0.239765  -0.227173  0  3.441213  0
N  N64  1  0.84509843  0.63075955  0.75895652  1  0  -0.102202  0  3.114644  0  0  -0.054729  0  3.407487  0  0  -0.061895  0  3.422174  0  0  -0.101284  -0.049616  0  3.39733  0
N  N65  1  0.23484961  0.36918544  0.24103569  1  0  -0.103728  0  3.112794  0  0  -0.056574  0  3.406015  0  0  -0.063748  0  3.420686  0  0  -0.102145  -0.051454  0  3.395858  0
N  N66  1  0.52423815  0.24100564  0.63081521  1  0  -0.103989  0  3.11818  0  0  -0.056909  0  3.411421  0  0  -0.064082  0  3.426093  0  0  -0.102502  -0.051789  0  3.401267  0
N  N67  1  0.39577752  0.75895384  0.36925138  1  0  -0.104612  0  3.119152  0  0  -0.057561  0  3.41245  0  0  -0.064746  0  3.427144  0  0  -0.102767  -0.052428  0  3.402271  0
N  N68  1  0.34509703  0.75895630  0.63076177  1  0  -0.102224  0  3.114719  0  0  -0.054739  0  3.407552  0  0  -0.061906  0  3.422239  0  0  -0.101283  -0.049626  0  3.397394  0
N  N69  1  0.73485080  0.24103615  0.36918455  1  0  -0.103731  0  3.112817  0  0  -0.056581  0  3.406048  0  0  -0.063753  0  3.420719  0  0  -0.102144  -0.051461  0  3.395892  0
N  N70  1  0.02423805  0.63081660  0.24100580  1  0  -0.104009  0  3.118174  0  0  -0.056933  0  3.411416  0  0  -0.064106  0  3.426087  0  0  -0.102527  -0.051813  0  3.40126  0
N  N71  1  0.89577567  0.36925175  0.75895293  1  0  -0.104643  0  3.119076  0  0  -0.057573  0  3.412361  0  0  -0.064759  0  3.427058  0  0  -0.102795  -0.052439  0  3.402181  0
N  N72  1  0.85502073  0.71281497  0.70343905  1  0  -0.059987  0  2.910343  0  0  -0.063018  0  3.191922  0  0  -0.059877  0  3.204521  0  0  -0.090714  -0.064885  0  3.183314  0
N  N73  1  0.27127614  0.28715193  0.29658502  1  0  -0.059897  0  2.911462  0  0  -0.062774  0  3.193154  0  0  -0.059627  0  3.205762  0  0  -0.090354  -0.064642  0  3.184528  0
N  N74  1  0.43219214  0.29652779  0.71284919  1  0  -0.060049  0  2.909348  0  0  -0.062871  0  3.19087  0  0  -0.059723  0  3.203453  0  0  -0.089779  -0.064741  0  3.182266  0
N  N75  1  0.44140254  0.70339460  0.28722762  1  0  -0.059719  0  2.908599  0  0  -0.062345  0  3.190018  0  0  -0.059215  0  3.202619  0  0  -0.08953  -0.0642  0  3.181399  0
N  N76  1  0.35501958  0.70343891  0.71281721  1  0  -0.059941  0  2.910399  0  0  -0.062976  0  3.191979  0  0  -0.059833  0  3.204575  0  0  -0.090697  -0.064843  0  3.183369  0
N  N77  1  0.77127643  0.29658511  0.28715178  1  0  -0.05993  0  2.91146  0  0  -0.062813  0  3.193159  0  0  -0.059666  0  3.205767  0  0  -0.090378  -0.06468  0  3.184532  0
N  N78  1  0.93219277  0.71285056  0.29652842  1  0  -0.060034  0  2.909371  0  0  -0.06285  0  3.190886  0  0  -0.059702  0  3.203468  0  0  -0.089755  -0.064721  0  3.182283  0
N  N79  1  0.94139862  0.28722940  0.70339332  1  0  -0.059845  0  2.908642  0  0  -0.062492  0  3.190079  0  0  -0.059363  0  3.202682  0  0  -0.08958  -0.06435  0  3.18146  0
N  N80  1  0.00733598  0.70549508  0.66331349  1  0  -0.29758  0  3.143412  0  0  -0.230901  0  3.437007  0  0  -0.248704  0  3.452118  0  0  -0.234389  -0.218771  0  3.426457  0
N  N81  1  0.37617258  0.29447244  0.33668130  1  0  -0.298295  0  3.142689  0  0  -0.231709  0  3.436348  0  0  -0.249486  0  3.451443  0  0  -0.235077  -0.219601  0  3.425832  0
N  N82  1  0.28723565  0.33664030  0.70546766  1  0  -0.297169  0  3.140861  0  0  -0.230506  0  3.434106  0  0  -0.248299  0  3.449259  0  0  -0.235271  -0.218381  0  3.423551  0
N  N83  1  0.32916211  0.66333296  0.29451582  1  0  -0.298389  0  3.139833  0  0  -0.231989  0  3.433589  0  0  -0.249749  0  3.448642  0  0  -0.235922  -0.219891  0  3.423117  0
N  N84  1  0.50733418  0.66331482  0.70549745  1  0  -0.297647  0  3.14353  0  0  -0.230971  0  3.437131  0  0  -0.248775  0  3.452243  0  0  -0.234433  -0.218842  0  3.426582  0
N  N85  1  0.87617174  0.33668276  0.29447232  1  0  -0.298236  0  3.142694  0  0  -0.231639  0  3.436335  0  0  -0.249417  0  3.451431  0  0  -0.235043  -0.219531  0  3.425814  0
N  N86  1  0.78723577  0.70546881  0.33663947  1  0  -0.297272  0  3.140896  0  0  -0.230615  0  3.434146  0  0  -0.248408  0  3.4493  0  0  -0.235335  -0.21849  0  3.423592  0
N  N87  1  0.82915681  0.29451725  0.66333428  1  0  -0.298219  0  3.139756  0  0  -0.231794  0  3.43346  0  0  -0.249556  0  3.448518  0  0  -0.235899  -0.219697  0  3.422987  0
N  N88  1  0.20225542  0.47087112  0.91054266  1  0  -0.255463  0  3.13315  0  0  -0.197766  0  3.420118  0  0  -0.212612  0  3.434704  0  0  -0.224217  -0.187746  0  3.410181  0
N  N89  1  0.58371532  0.52915870  0.08946582  1  0  -0.252731  0  3.135666  0  0  -0.195171  0  3.422493  0  0  -0.210032  0  3.437118  0  0  -0.222989  -0.185143  0  3.412524  0
N  N90  1  0.32670284  0.08947238  0.47093525  1  0  -0.254373  0  3.134534  0  0  -0.197058  0  3.421684  0  0  -0.211892  0  3.436252  0  0  -0.224017  -0.187046  0  3.411753  0
N  N91  1  0.88705619  0.91051939  0.52907453  1  0  -0.255154  0  3.132246  0  0  -0.197542  0  3.419337  0  0  -0.212382  0  3.433911  0  0  -0.223971  -0.187528  0  3.409413  0
N  N92  1  0.70225327  0.91054329  0.47087183  1  0  -0.255494  0  3.133103  0  0  -0.197795  0  3.420081  0  0  -0.212643  0  3.434672  0  0  -0.224238  -0.187775  0  3.410144  0
N  N93  1  0.08371572  0.08946470  0.52915730  1  0  -0.252712  0  3.135662  0  0  -0.195144  0  3.422462  0  0  -0.210006  0  3.437095  0  0  -0.222968  -0.185116  0  3.412492  0
N  N94  1  0.82670290  0.47093684  0.08947317  1  0  -0.254339  0  3.134587  0  0  -0.197007  0  3.421736  0  0  -0.211839  0  3.436299  0  0  -0.224037  -0.186995  0  3.411803  0
N  N95  1  0.38705735  0.52907462  0.91052131  1  0  -0.255213  0  3.132219  0  0  -0.197607  0  3.419321  0  0  -0.212445  0  3.433885  0  0  -0.224007  -0.187595  0  3.4094  0
N  N96  1  0.19094859  0.48274189  0.00724941  1  0  -0.076438  0  3.104927  0  0  -0.038522  0  3.392009  0  0  -0.043104  0  3.406009  0  0  -0.094604  -0.035154  0  3.382397  0
N  N97  1  0.68096866  0.51725647  0.99275474  1  0  -0.076893  0  3.108272  0  0  -0.039055  0  3.395292  0  0  -0.04364  0  3.409329  0  0  -0.094809  -0.035685  0  3.385651  0
N  N98  1  0.32616652  0.99275698  0.48274039  1  0  -0.076696  0  3.107601  0  0  -0.038402  0  3.394189  0  0  -0.043007  0  3.408237  0  0  -0.094284  -0.035014  0  3.384541  0
N  N99  1  0.80164752  0.00723538  0.51724848  1  0  -0.076047  0  3.104717  0  0  -0.038087  0  3.391606  0  0  -0.04265  0  3.405618  0  0  -0.094416  -0.034736  0  3.381991  0
N  N100  1  0.69094909  0.00724991  0.48274222  1  0  -0.076347  0  3.10493  0  0  -0.038427  0  3.391998  0  0  -0.043009  0  3.405997  0  0  -0.094539  -0.035061  0  3.382387  0
N  N101  1  0.18096943  0.99275355  0.51725581  1  0  -0.07688  0  3.108303  0  0  -0.039046  0  3.395316  0  0  -0.043631  0  3.409354  0  0  -0.094801  -0.035676  0  3.385677  0
N  N102  1  0.82616612  0.48274091  0.99275762  1  0  -0.076691  0  3.107625  0  0  -0.038413  0  3.394222  0  0  -0.043019  0  3.408272  0  0  -0.094267  -0.035023  0  3.38457  0
N  N103  1  0.30164728  0.51724831  0.00723661  1  0  -0.075935  0  3.104658  0  0  -0.03797  0  3.391544  0  0  -0.042531  0  3.405554  0  0  -0.094344  -0.034619  0  3.381929  0
O  O104  1  0.08595854  0.26311733  0.92858913  1  0  -0.64939  0  2.061802  0  0  -0.580074  0  2.325932  0  0  -0.609337  0  2.31185  0  0  -0.347072  -0.559459  0  2.334788  0
O  O105  1  0.27742273  0.73685739  0.07153505  1  0  -0.648545  0  2.062559  0  0  -0.57977  0  2.325911  0  0  -0.609002  0  2.311804  0  0  -0.34668  -0.559168  0  2.334757  0
O  O106  1  0.65094231  0.07149312  0.26316476  1  0  -0.649068  0  2.062759  0  0  -0.57968  0  2.326726  0  0  -0.608912  0  2.312644  0  0  -0.346338  -0.559084  0  2.33558  0
O  O107  1  0.98537877  0.92858607  0.73680351  1  0  -0.648551  0  2.063055  0  0  -0.579692  0  2.326435  0  0  -0.608949  0  2.312336  0  0  -0.34664  -0.559042  0  2.335201  0
O  O108  1  0.58595845  0.92858778  0.26312083  1  0  -0.649382  0  2.061782  0  0  -0.580055  0  2.325908  0  0  -0.609324  0  2.31184  0  0  -0.347122  -0.55944  0  2.334767  0
O  O109  1  0.77741647  0.07154039  0.73685823  1  0  -0.648388  0  2.062683  0  0  -0.579654  0  2.32603  0  0  -0.608875  0  2.311898  0  0  -0.346619  -0.559045  0  2.334858  0
O  O110  1  0.15094188  0.26316525  0.07149382  1  0  -0.64907  0  2.062831  0  0  -0.579683  0  2.326791  0  0  -0.608917  0  2.31271  0  0  -0.34631  -0.559088  0  2.335646  0
O  O111  1  0.48538252  0.73680330  0.92857980  1  0  -0.64859  0  2.063103  0  0  -0.5797  0  2.326525  0  0  -0.608956  0  2.31242  0  0  -0.346642  -0.559045  0  2.335289  0
