# generated using pymatgen
data_NaH11C10S(N2O3)2
_symmetry_space_group_name_H-M   'P 1'
_cell_length_a   7.40942326
_cell_length_b   9.62996578
_cell_length_c   10.22733487
_cell_angle_alpha   102.15787478
_cell_angle_beta   102.24908468
_cell_angle_gamma   92.39872879
_symmetry_Int_Tables_number   1
_chemical_formula_structural   NaH11C10S(N2O3)2
_chemical_formula_sum   'Na2 H22 C20 S2 N8 O12'
_cell_volume   694.27190339
_cell_formula_units_Z   2
loop_
 _symmetry_equiv_pos_site_id
 _symmetry_equiv_pos_as_xyz
  1  'x, y, z'
loop_
 _atom_site_type_symbol
 _atom_site_label
 _atom_site_symmetry_multiplicity
 _atom_site_fract_x
 _atom_site_fract_y
 _atom_site_fract_z
 _atom_site_occupancy
 _atom_site_hle17_bader_spin_density
 _atom_site_hle17_ddec_charge
 _atom_site_hle17_ddec_spin_density
 _atom_site_hle17_ddec_sum_bond_order
 _atom_site_hle17_magmom
 _atom_site_hse06_10hf_bader_spin_density
 _atom_site_hse06_10hf_ddec_charge
 _atom_site_hse06_10hf_ddec_spin_density
 _atom_site_hse06_10hf_ddec_sum_bond_order
 _atom_site_hse06_10hf_magmom
 _atom_site_hse06_bader_spin_density
 _atom_site_hse06_ddec_charge
 _atom_site_hse06_ddec_spin_density
 _atom_site_hse06_ddec_sum_bond_order
 _atom_site_hse06_magmom
 _atom_site_pbe_bader_spin_density
 _atom_site_pbe_cm5_charge
 _atom_site_pbe_ddec_charge
 _atom_site_pbe_ddec_spin_density
 _atom_site_pbe_ddec_sum_bond_order
 _atom_site_pbe_magmom
Na  Na0  1  0.42662410  0.15272855  0.09941359  1  0  0.902751  0  0.382556  0  0  0.866781  0  0.527368  0  0  0.876191  0  0.505417  0  0  0.672481  0.859813  0  0.543323  0
Na  Na1  1  0.57337569  0.84730731  0.90058628  1  0  0.902704  0  0.382611  0  0  0.866766  0  0.52738  0  0  0.876176  0  0.505416  0  0  0.672439  0.859803  0  0.543327  0
H  H2  1  0.63890567  0.94221144  0.48630878  1  0  0.129582  0  0.960012  0  0  0.15107  0  1.017621  0  0  0.152809  0  1.017351  0  0  0.103543  0.149672  0  1.018031  0
H  H3  1  0.36105745  0.05779476  0.51366839  1  0  0.129698  0  0.9596  0  0  0.151097  0  1.017363  0  0  0.152844  0  1.017097  0  0  0.103558  0.1497  0  1.017765  0
H  H4  1  0.45603052  0.89587938  0.33540126  1  0  0.133592  0  0.946949  0  0  0.149434  0  1.012109  0  0  0.151547  0  1.011249  0  0  0.099851  0.147709  0  1.012962  0
H  H5  1  0.54397893  0.10408922  0.66457696  1  0  0.133547  0  0.947067  0  0  0.149471  0  1.012138  0  0  0.151582  0  1.01128  0  0  0.099881  0.147747  0  1.012991  0
H  H6  1  0.68927859  0.91161027  0.31990717  1  0  0.142078  0  0.940888  0  0  0.158781  0  1.002349  0  0  0.161483  0  1.000844  0  0  0.105148  0.156677  0  1.003572  0
H  H7  1  0.31074452  0.08838168  0.68009459  1  0  0.141967  0  0.941101  0  0  0.15876  0  1.00247  0  0  0.161453  0  1.000974  0  0  0.105143  0.156662  0  1.003691  0
H  H8  1  0.74638578  0.25414554  0.40616415  1  0  0.125952  0  0.965548  0  0  0.138597  0  1.01658  0  0  0.142977  0  1.013775  0  0  0.11493  0.135307  0  1.019054  0
H  H9  1  0.25363928  0.74584000  0.59383664  1  0  0.125965  0  0.965505  0  0  0.138587  0  1.016574  0  0  0.142969  0  1.013767  0  0  0.114921  0.135291  0  1.019055  0
H  H10  1  0.90149509  0.12355120  0.57683170  1  0  0.102996  0  0.950738  0  0  0.114908  0  1.007606  0  0  0.117787  0  1.005981  0  0  0.107606  0.112675  0  1.009133  0
H  H11  1  0.09850210  0.87647065  0.42320601  1  0  0.102887  0  0.950471  0  0  0.114896  0  1.007256  0  0  0.117778  0  1.005626  0  0  0.107604  0.112659  0  1.008785  0
H  H12  1  0.03433306  0.51874710  0.88329847  1  0  0.110031  0  0.964438  0  0  0.113769  0  1.037199  0  0  0.116512  0  1.035185  0  0  0.106506  0.111929  0  1.038404  0
H  H13  1  0.96564144  0.48127499  0.11669841  1  0  0.109962  0  0.964602  0  0  0.113801  0  1.037203  0  0  0.116545  0  1.035187  0  0  0.106508  0.111969  0  1.038398  0
H  H14  1  0.88186577  0.64806087  0.71547891  1  0  0.115578  0  0.960938  0  0  0.125438  0  1.021945  0  0  0.129735  0  1.018577  0  0  0.114673  0.122101  0  1.025053  0
H  H15  1  0.11812881  0.35192922  0.28448356  1  0  0.115476  0  0.960998  0  0  0.125407  0  1.021966  0  0  0.129702  0  1.018607  0  0  0.114717  0.122107  0  1.025038  0
H  H16  1  0.20698302  0.96464929  0.88081344  1  0  0.420895  0  0.882674  0  0  0.392115  0  0.942604  0  0  0.402139  0  0.927684  0  0  0.291341  0.384799  0  0.953574  0
H  H17  1  0.79303727  0.03535439  0.11919803  1  0  0.420919  0  0.882664  0  0  0.39216  0  0.942553  0  0  0.402182  0  0.927639  0  0  0.291391  0.384847  0  0.953518  0
H  H18  1  0.21271546  0.86681592  0.98434172  1  0  0.43885  0  0.856886  0  0  0.41208  0  0.913215  0  0  0.421719  0  0.898988  0  0  0.294143  0.405254  0  0.923255  0
H  H19  1  0.78726917  0.13316663  0.01565184  1  0  0.438784  0  0.856998  0  0  0.412025  0  0.913313  0  0  0.421666  0  0.899085  0  0  0.294143  0.405208  0  0.923344  0
H  H20  1  0.27426975  0.18408991  0.34372058  1  0  0.389244  0  0.929323  0  0  0.35458  0  1.002201  0  0  0.364427  0  0.987863  0  0  0.279475  0.347687  0  1.012268  0
H  H21  1  0.72574063  0.81590960  0.65627473  1  0  0.389228  0  0.92935  0  0  0.354581  0  1.002198  0  0  0.364429  0  0.98786  0  0  0.279467  0.347689  0  1.012261  0
H  H22  1  0.15858381  0.04777181  0.24270748  1  0  0.420396  0  0.882386  0  0  0.390448  0  0.944387  0  0  0.400232  0  0.929858  0  0  0.284552  0.38352  0  0.954696  0
H  H23  1  0.84141420  0.95223091  0.75730307  1  0  0.420363  0  0.882454  0  0  0.390441  0  0.94443  0  0  0.40023  0  0.929895  0  0  0.284564  0.383509  0  0.954744  0
C  C24  1  0.60445056  0.47564171  0.32029760  1  0  0.460887  0  3.884641  0  0  0.409803  0  4.189031  0  0  0.438145  0  4.192783  0  0  0.238863  0.390747  0  4.185802  0
C  C25  1  0.39555449  0.52434822  0.67969394  1  0  0.460719  0  3.885117  0  0  0.409707  0  4.189419  0  0  0.438048  0  4.193179  0  0  0.238601  0.390651  0  4.186189  0
C  C26  1  0.54423724  0.60314625  0.27379912  1  0  -0.143599  0  3.808647  0  0  -0.161395  0  4.088817  0  0  -0.176151  0  4.110369  0  0  0.094974  -0.15169  0  4.074718  0
C  C27  1  0.45581367  0.39687658  0.72619283  1  0  -0.143583  0  3.80837  0  0  -0.161615  0  4.088873  0  0  -0.176367  0  4.110426  0  0  0.094832  -0.151913  0  4.074784  0
C  C28  1  0.61597888  0.72490356  0.38354423  1  0  0.265174  0  3.785633  0  0  0.254769  0  4.069647  0  0  0.267319  0  4.085813  0  0  0.133865  0.24644  0  4.058309  0
C  C29  1  0.38404740  0.27510539  0.61647905  1  0  0.265521  0  3.785421  0  0  0.255142  0  4.069537  0  0  0.267671  0  4.08573  0  0  0.134105  0.246816  0  4.058195  0
C  C30  1  0.59822821  0.87709833  0.38146337  1  0  -0.368352  0  3.688836  0  0  -0.444161  0  3.921951  0  0  -0.448657  0  3.928117  0  0  -0.230839  -0.440463  0  3.917559  0
C  C31  1  0.40178360  0.12290223  0.61853630  1  0  -0.368378  0  3.688813  0  0  -0.44425  0  3.921914  0  0  -0.448742  0  3.928113  0  0  -0.230902  -0.44056  0  3.917509  0
C  C32  1  0.79939976  0.45932203  0.54952617  1  0  0.201084  0  3.754788  0  0  0.185244  0  4.016374  0  0  0.195719  0  4.034845  0  0  0.103456  0.178256  0  4.003656  0
C  C33  1  0.20058242  0.54067230  0.45045957  1  0  0.201294  0  3.754658  0  0  0.185507  0  4.016147  0  0  0.195983  0  4.034616  0  0  0.103544  0.178513  0  4.003435  0
C  C34  1  0.80806017  0.31121041  0.51062591  1  0  -0.152681  0  3.700227  0  0  -0.173673  0  3.956712  0  0  -0.179089  0  3.974616  0  0  -0.094381  -0.170034  0  3.944539  0
C  C35  1  0.19193453  0.68879560  0.48936422  1  0  -0.152663  0  3.700219  0  0  -0.173656  0  3.956671  0  0  -0.179074  0  3.974582  0  0  -0.094376  -0.170016  0  3.944492  0
C  C36  1  0.89499981  0.23823624  0.60680453  1  0  -0.051331  0  3.778577  0  0  -0.076616  0  4.034628  0  0  -0.074681  0  4.055364  0  0  -0.086864  -0.077504  0  4.02038  0
C  C37  1  0.10499778  0.76176327  0.39320628  1  0  -0.051116  0  3.778601  0  0  -0.076474  0  4.034646  0  0  -0.074541  0  4.055391  0  0  -0.086801  -0.07736  0  4.020387  0
C  C38  1  0.97433395  0.31098765  0.74143354  1  0  -0.150854  0  3.770953  0  0  -0.130547  0  4.030929  0  0  -0.140469  0  4.056318  0  0  -0.034011  -0.124149  0  4.013907  0
C  C39  1  0.02565661  0.68901084  0.25857592  1  0  -0.150984  0  3.770938  0  0  -0.130639  0  4.030935  0  0  -0.140568  0  4.056338  0  0  -0.034136  -0.12424  0  4.013903  0
C  C40  1  0.97123841  0.45925231  0.77940220  1  0  -0.050491  0  3.748944  0  0  -0.078665  0  4.010033  0  0  -0.077346  0  4.031577  0  0  -0.08602  -0.079095  0  3.995148  0
C  C41  1  0.02875416  0.54074836  0.22059043  1  0  -0.050377  0  3.748741  0  0  -0.078622  0  4.009863  0  0  -0.077297  0  4.031402  0  0  -0.086001  -0.079066  0  3.994983  0
C  C42  1  0.88445072  0.53321348  0.68420665  1  0  -0.145678  0  3.696209  0  0  -0.16921  0  3.957472  0  0  -0.17417  0  3.97549  0  0  -0.091678  -0.166133  0  3.945676  0
C  C43  1  0.11555148  0.46677646  0.31578834  1  0  -0.145601  0  3.696026  0  0  -0.169269  0  3.957411  0  0  -0.17423  0  3.975424  0  0  -0.091734  -0.166225  0  3.945607  0
S  S44  1  0.06513819  0.21397317  0.86683183  1  0  1.310409  0  5.648777  0  0  1.212333  0  6.171872  0  0  1.260888  0  6.147768  0  0  0.513548  1.178855  0  6.186979  0
S  S45  1  0.93483963  0.78603287  0.13317118  1  0  1.310176  0  5.649483  0  0  1.212016  0  6.172623  0  0  1.260582  0  6.148522  0  0  0.513564  1.178541  0  6.187723  0
N  N46  1  0.70638103  0.53393662  0.45458182  1  0  -0.101682  0  3.460578  0  0  -0.02424  0  3.690691  0  0  -0.042552  0  3.71419  0  0  -0.135613  -0.011651  0  3.67425  0
N  N47  1  0.29359206  0.46605240  0.54540821  1  0  -0.102074  0  3.46095  0  0  -0.024544  0  3.69093  0  0  -0.042864  0  3.714437  0  0  -0.135499  -0.011948  0  3.67448  0
N  N48  1  0.70949404  0.68185889  0.48983779  1  0  -0.27988  0  2.930899  0  0  -0.264192  0  3.196621  0  0  -0.275487  0  3.212254  0  0  -0.209053  -0.256206  0  3.185781  0
N  N49  1  0.29047909  0.31812572  0.51018950  1  0  -0.279991  0  2.931125  0  0  -0.264357  0  3.196884  0  0  -0.275645  0  3.212533  0  0  -0.209283  -0.25637  0  3.186042  0
N  N50  1  0.44192542  0.59960604  0.15213426  1  0  0.269143  0  3.736685  0  0  0.304991  0  4.016989  0  0  0.312745  0  4.033129  0  0  0.059501  0.298944  0  4.00729  0
N  N51  1  0.55818869  0.40042396  0.84786167  1  0  0.269177  0  3.735705  0  0  0.305092  0  4.01606  0  0  0.312863  0  4.032187  0  0  0.059639  0.299042  0  4.006366  0
N  N52  1  0.35254461  0.58993637  0.04492800  1  0  -0.007984  0  2.384798  0  0  -0.005369  0  2.602888  0  0  0.004431  0  2.608342  0  0  0.039326  -0.012992  0  2.600412  0
N  N53  1  0.64742845  0.41004928  0.95510927  1  0  -0.007914  0  2.384614  0  0  -0.005212  0  2.60259  0  0  0.004562  0  2.60807  0  0  0.039414  -0.012819  0  2.600091  0
O  O54  1  0.57471949  0.34859471  0.26033537  1  0  -0.562992  0  2.010126  0  0  -0.533542  0  2.251715  0  0  -0.555936  0  2.245146  0  0  -0.352493  -0.517459  0  2.256284  0
O  O55  1  0.42531045  0.65138652  0.73967025  1  0  -0.56291  0  2.009968  0  0  -0.533505  0  2.251591  0  0  -0.5559  0  2.245023  0  0  -0.352387  -0.517425  0  2.25616  0
O  O56  1  0.94681134  0.23660444  0.96656167  1  0  -0.674461  0  1.990532  0  0  -0.620716  0  2.233856  0  0  -0.64372  0  2.219506  0  0  -0.328227  -0.604041  0  2.243009  0
O  O57  1  0.05315900  0.76338564  0.03343399  1  0  -0.674463  0  1.990666  0  0  -0.620629  0  2.233948  0  0  -0.643638  0  2.219601  0  0  -0.328257  -0.603951  0  2.243095  0
O  O58  1  0.05004794  0.06309179  0.78934882  1  0  -0.700067  0  2.001185  0  0  -0.627466  0  2.223425  0  0  -0.649428  0  2.207375  0  0  -0.330465  -0.61188  0  2.234587  0
O  O59  1  0.94991883  0.93690362  0.21065221  1  0  -0.699957  0  2.001551  0  0  -0.627336  0  2.223802  0  0  -0.649309  0  2.207765  0  0  -0.330435  -0.611755  0  2.234961  0
O  O60  1  0.25905715  0.26892432  0.92916617  1  0  -0.7287  0  1.962498  0  0  -0.692664  0  2.227017  0  0  -0.714581  0  2.213988  0  0  -0.395767  -0.676723  0  2.23522  0
O  O61  1  0.74093112  0.73107530  0.07082652  1  0  -0.728626  0  1.962819  0  0  -0.692623  0  2.227425  0  0  -0.714534  0  2.214385  0  0  -0.395779  -0.676685  0  2.235624  0
O  O62  1  0.29459374  0.92606926  0.94861377  1  0  -0.93053  0  1.723621  0  0  -0.886476  0  1.881772  0  0  -0.902365  0  1.849513  0  0  -0.707275  -0.875335  0  1.904816  0
O  O63  1  0.70540888  0.07392701  0.05140114  1  0  -0.930502  0  1.72375  0  0  -0.88647  0  1.881877  0  0  -0.902357  0  1.849618  0  0  -0.707355  -0.875337  0  1.904892  0
O  O64  1  0.27750020  0.10708145  0.26369507  1  0  -0.889306  0  1.772937  0  0  -0.84621  0  1.939146  0  0  -0.862164  0  1.908007  0  0  -0.675077  -0.835036  0  1.961374  0
O  O65  1  0.72248308  0.89293105  0.73628568  1  0  -0.889302  0  1.772963  0  0  -0.84625  0  1.939119  0  0  -0.86221  0  1.90797  0  0  -0.675111  -0.83508  0  1.961353  0
