# generated using pymatgen
data_CoH8C6(N4O3)2
_symmetry_space_group_name_H-M   'P 1'
_cell_length_a   6.61812251
_cell_length_b   6.66841837
_cell_length_c   8.55368072
_cell_angle_alpha   107.71295185
_cell_angle_beta   97.46586819
_cell_angle_gamma   106.20597618
_symmetry_Int_Tables_number   1
_chemical_formula_structural   CoH8C6(N4O3)2
_chemical_formula_sum   'Co1 H8 C6 N8 O6'
_cell_volume   335.65002571
_cell_formula_units_Z   1
loop_
 _symmetry_equiv_pos_site_id
 _symmetry_equiv_pos_as_xyz
  1  'x, y, z'
loop_
 _atom_site_type_symbol
 _atom_site_label
 _atom_site_symmetry_multiplicity
 _atom_site_fract_x
 _atom_site_fract_y
 _atom_site_fract_z
 _atom_site_occupancy
 _atom_site_pbe_cm5_charge
 _atom_site_pbe_ddec_charge
 _atom_site_pbe_ddec_spin_density
 _atom_site_pbe_ddec_sum_bond_order
 _atom_site_pbe_magmom
Co  Co0  1  0.49998269  0.49997102  0.50002317  1  0.762656  0.781099  -1.038  3.119449  -0.956
H  H1  1  0.74586440  0.97171215  0.72254221  1  0.129603  0.106835  0.000307  1.02321  0.0
H  H2  1  0.25413864  0.02824170  0.27747405  1  0.129647  0.106998  0.000308  1.023128  0.0
H  H3  1  0.25965617  0.65714062  0.27866496  1  0.137701  0.123268  0.000247  0.970657  0.0
H  H4  1  0.74035934  0.34281824  0.72135560  1  0.137769  0.123321  0.000246  0.970562  0.0
H  H5  1  0.09824645  0.43211525  0.55194579  1  0.315616  0.395841  -0.000182  0.894759  0.0
H  H6  1  0.90144968  0.56832152  0.44779074  1  0.315704  0.395646  -0.000175  0.894852  0.0
H  H7  1  0.03321320  0.24529003  0.37193308  1  0.289536  0.370982  -0.000936  0.978105  -0.002
H  H8  1  0.96686895  0.75470912  0.62804514  1  0.289592  0.371045  -0.000931  0.978028  -0.002
C  C9  1  0.63641872  0.98261453  0.62177873  1  0.063198  0.05249  0.007169  3.869335  0.004
C  C10  1  0.36358422  0.01735270  0.37824208  1  0.063368  0.052427  0.007173  3.869124  0.004
C  C11  1  0.36724590  0.81027670  0.37761642  1  0.066409  0.060902  0.00699  3.863181  0.004
C  C12  1  0.63276286  0.18969054  0.62240121  1  0.066677  0.061016  0.006991  3.86279  0.004
C  C13  1  0.42816444  0.31929943  0.12100298  1  0.315002  0.437326  0.010569  4.21583  0.007
C  C14  1  0.57184324  0.68065273  0.87902130  1  0.314865  0.43726  0.010589  4.214955  0.007
N  N15  1  0.50352103  0.79132037  0.49940833  1  -0.309507  -0.138225  0.017968  3.611122  0.014
N  N16  1  0.49648719  0.20864683  0.50062214  1  -0.309711  -0.138117  0.017967  3.610681  0.014
N  N17  1  0.48346616  0.39778291  0.26907637  1  -0.387994  -0.484302  -0.000395  3.42971  -0.003
N  N18  1  0.51657574  0.60217755  0.73096595  1  -0.387977  -0.484169  -0.0004  3.430154  -0.003
N  N19  1  0.23530739  0.04825124  0.87771458  1  0.126588  0.628718  0.004675  4.337929  0.004
N  N20  1  0.76471918  0.95174771  0.12232964  1  0.126712  0.629073  0.004687  4.335966  0.004
N  N21  1  0.37357083  0.25947973  0.95725164  1  -0.217138  -0.365479  6.3e-05  3.20347  -0.002
N  N22  1  0.62641354  0.74043718  0.04280693  1  -0.217154  -0.365928  6e-05  3.201224  -0.002
O  O23  1  0.14140860  0.39579829  0.44474864  1  -0.564958  -0.762807  -0.031796  2.182368  -0.053
O  O24  1  0.85872151  0.60418260  0.55517724  1  -0.564617  -0.762157  -0.031779  2.182427  -0.053
O  O25  1  0.18410854  0.91260900  0.95165308  1  -0.17316  -0.403307  0.002838  1.909549  0.002
O  O26  1  0.81586408  0.08737336  0.04834649  1  -0.173192  -0.403364  0.002843  1.909249  0.002
O  O27  1  0.16128359  0.99823116  0.72112394  1  -0.172605  -0.4132  0.00145  1.995977  0.001
O  O28  1  0.83875927  0.00173930  0.27893035  1  -0.172628  -0.413192  0.001451  1.995393  0.0
