# generated using pymatgen
data_CuH22C12N6(ClO4)2
_symmetry_space_group_name_H-M   'P 1'
_cell_length_a   7.58007320
_cell_length_b   8.15305262
_cell_length_c   9.24167486
_cell_angle_alpha   64.64667631
_cell_angle_beta   74.72490403
_cell_angle_gamma   67.02194837
_symmetry_Int_Tables_number   1
_chemical_formula_structural   CuH22C12N6(ClO4)2
_chemical_formula_sum   'Cu1 H22 C12 N6 Cl2 O8'
_cell_volume   471.98614264
_cell_formula_units_Z   1
loop_
 _symmetry_equiv_pos_site_id
 _symmetry_equiv_pos_as_xyz
  1  'x, y, z'
loop_
 _atom_site_type_symbol
 _atom_site_label
 _atom_site_symmetry_multiplicity
 _atom_site_fract_x
 _atom_site_fract_y
 _atom_site_fract_z
 _atom_site_occupancy
 _atom_site_hle17_ddec_charge
 _atom_site_hle17_ddec_spin_density
 _atom_site_hle17_ddec_sum_bond_order
 _atom_site_hle17_magmom
 _atom_site_hse06_10hf_ddec_charge
 _atom_site_hse06_10hf_ddec_spin_density
 _atom_site_hse06_10hf_ddec_sum_bond_order
 _atom_site_hse06_10hf_magmom
 _atom_site_hse06_ddec_charge
 _atom_site_hse06_ddec_spin_density
 _atom_site_hse06_ddec_sum_bond_order
 _atom_site_hse06_magmom
 _atom_site_pbe_cm5_charge
 _atom_site_pbe_ddec_charge
 _atom_site_pbe_ddec_spin_density
 _atom_site_pbe_ddec_sum_bond_order
 _atom_site_pbe_magmom
Cu  Cu0  1  0.50000018  0.50000167  0.99999867  1  0.774474  0.657448  1.818344  0.486  0.739116  0.743236  2.19565  0.588  0.812401  0.801462  2.146909  0.661  0.751165  0.69573  0.705848  2.229358  0.545
H  H1  1  0.38341467  0.94782719  0.94795677  1  0.061283  -3.1e-05  0.928842  0.0  0.076402  -1.2e-05  0.992248  0.0  0.075942  -4.6e-05  0.993382  0.0  0.103979  0.076652  1.4e-05  0.991323  0.0
H  H2  1  0.61658087  0.05217124  0.05204545  1  0.061227  -3.8e-05  0.928839  0.0  0.076368  -1.2e-05  0.992216  0.0  0.075907  -4.5e-05  0.993348  0.0  0.103935  0.076615  1.4e-05  0.991292  0.0
H  H3  1  0.16496390  0.89562321  0.01219774  1  0.062474  0.000259  0.941666  0.001  0.081835  0.000181  1.001544  0.001  0.080847  8.1e-05  1.00336  0.0  0.106315  0.082416  0.000266  1.000318  0.001
H  H4  1  0.83503512  0.10436811  0.98780200  1  0.062461  0.000254  0.941687  0.001  0.0818  0.000182  1.001602  0.001  0.080796  8.2e-05  1.003438  0.0  0.106319  0.082377  0.000266  1.000376  0.001
H  H5  1  0.07543017  0.09886270  0.72211249  1  0.099463  -0.000357  0.934193  0.0  0.117419  2.8e-05  0.992621  0.0  0.118335  2.1e-05  0.992866  0.0  0.101046  0.116705  5.1e-05  0.992549  0.0
H  H6  1  0.92457176  0.90113710  0.27788455  1  0.099494  -0.000364  0.934205  0.0  0.117424  2.8e-05  0.99267  0.0  0.118336  2.1e-05  0.992914  0.0  0.101039  0.116706  5.1e-05  0.992595  0.0
H  H7  1  0.07312927  0.22158182  0.83998105  1  0.086536  0.001156  0.948875  0.001  0.101991  0.000917  1.013878  0.001  0.101903  0.000662  1.01481  0.001  0.097506  0.10193  0.001161  1.013325  0.001
H  H8  1  0.92686665  0.77841524  0.16001835  1  0.086556  0.001155  0.948875  0.001  0.102014  0.000917  1.013875  0.001  0.101921  0.000662  1.01481  0.001  0.097518  0.101951  0.001161  1.013322  0.001
H  H9  1  0.40492864  0.12397215  0.58444902  1  0.083384  0.000411  0.934101  0.0  0.100593  0.000424  0.994721  0.0  0.101593  0.000302  0.993625  0.0  0.110353  0.099968  0.000521  0.995279  0.0
H  H10  1  0.59507644  0.87601752  0.41555756  1  0.083414  0.000413  0.934182  0.0  0.10061  0.000424  0.99476  0.0  0.101605  0.000302  0.993665  0.0  0.110389  0.099984  0.000521  0.995324  0.0
H  H11  1  0.21875418  0.34565677  0.55543332  1  0.078008  -1e-05  0.9382  0.0  0.090178  -5e-05  1.008957  0.0  0.090175  -7.4e-05  1.00933  0.0  0.106109  0.090045  -1.1e-05  1.008834  0.0
H  H12  1  0.78125370  0.65434147  0.44456404  1  0.078042  -8e-06  0.93833  0.0  0.090229  -5.1e-05  1.009014  0.0  0.090226  -7.4e-05  1.009387  0.0  0.106126  0.090098  -1.1e-05  1.008885  0.0
H  H13  1  0.68177141  0.23729003  0.54233646  1  0.130308  0.0005  0.948024  0.001  0.139654  0.000395  1.006977  0.001  0.142794  0.000293  1.004533  0.001  0.124205  0.137054  0.000619  1.009256  0.001
H  H14  1  0.31822433  0.76272557  0.45765393  1  0.130357  0.0005  0.948072  0.001  0.139728  0.000395  1.006978  0.001  0.14287  0.000294  1.004531  0.001  0.124236  0.137121  0.000619  1.009285  0.001
H  H15  1  0.78355317  0.40040703  0.70421216  1  0.109384  0.000189  0.971383  0.0  0.116762  0.000367  1.035812  0.001  0.118822  0.000261  1.034807  0.001  0.117005  0.115209  0.000477  1.036642  0.001
H  H16  1  0.21643933  0.59960577  0.29578108  1  0.109422  0.000193  0.97147  0.0  0.116848  0.000367  1.035812  0.001  0.118909  0.000261  1.034809  0.001  0.117032  0.11529  0.000477  1.036653  0.001
H  H17  1  0.22336636  0.36570004  0.89663148  1  0.105909  9.2e-05  0.966134  0.0  0.107802  0.000159  1.041565  0.0  0.110257  0.000106  1.038038  0.0  0.131057  0.105953  0.000213  1.043954  0.0
H  H18  1  0.77664007  0.63428530  0.10337857  1  0.105901  0.0001  0.966154  0.0  0.107759  0.000159  1.041639  0.0  0.110224  0.000106  1.038098  0.0  0.131029  0.105911  0.000213  1.044021  0.0
H  H19  1  0.46106797  0.79744768  0.75649079  1  0.29307  -0.00205  0.923495  -0.002  0.283235  -0.000421  0.983943  -0.001  0.289188  -0.000779  0.980989  -0.001  0.288754  0.27907  -0.000101  0.986159  0.0
H  H20  1  0.53893228  0.20256212  0.24350183  1  0.29298  -0.002052  0.923532  -0.002  0.283162  -0.000421  0.98396  -0.001  0.289113  -0.000779  0.981004  -0.001  0.288743  0.279001  -0.000101  0.986167  0.0
H  H21  1  0.24921659  0.75573012  0.81161811  1  0.300265  -0.001886  0.905806  -0.002  0.291239  -0.000288  0.963907  0.0  0.297149  -0.000593  0.961128  -0.001  0.292503  0.287046  3.9e-05  0.966178  0.0
H  H22  1  0.75078986  0.24426820  0.18837629  1  0.300231  -0.00189  0.905956  -0.002  0.291194  -0.000288  0.964067  0.0  0.297103  -0.000593  0.961289  -0.001  0.292482  0.286999  3.9e-05  0.966334  0.0
C  C23  1  0.26905161  0.93354315  0.90648871  1  0.089478  -0.000945  3.624013  -0.002  0.035453  0.001339  3.894978  0.0  0.041749  0.000307  3.908667  -0.001  -0.077837  0.031637  0.002126  3.885394  0.001
C  C24  1  0.73094483  0.06645673  0.09351060  1  0.089578  -0.000914  3.6239  -0.002  0.035553  0.001337  3.894876  0.0  0.041851  0.000307  3.908572  -0.001  -0.077832  0.031725  0.002126  3.885314  0.001
C  C25  1  0.16887472  0.12246812  0.77928949  1  -0.176091  0.007598  3.665112  0.008  -0.217686  0.004819  3.924676  0.005  -0.220147  0.003476  3.938005  0.004  -0.166787  -0.215794  0.005858  3.915482  0.006
C  C26  1  0.83112129  0.87752885  0.22071532  1  -0.176186  0.00761  3.665188  0.008  -0.21782  0.00482  3.924743  0.005  -0.220272  0.003477  3.938064  0.004  -0.166818  -0.215919  0.005859  3.915533  0.006
C  C27  1  0.30341120  0.21916390  0.64596496  1  0.008749  0.000702  3.624437  0.001  -0.058738  0.00074  3.887631  0.001  -0.05402  0.000546  3.899022  0.001  -0.057792  -0.061898  0.001037  3.879879  0.001
C  C28  1  0.69659121  0.78083009  0.35404061  1  0.008608  0.00069  3.624927  0.001  -0.058768  0.00074  3.887886  0.001  -0.054046  0.000547  3.899267  0.001  -0.057814  -0.06193  0.001037  3.880123  0.001
C  C29  1  0.60241640  0.28978906  0.63792899  1  -0.037408  0.004075  3.653726  0.004  -0.083715  0.002309  3.918125  0.003  -0.080971  0.001993  3.93544  0.002  0.004606  -0.085301  0.002464  3.906574  0.003
C  C30  1  0.39758205  0.71021785  0.36207052  1  -0.03744  0.004087  3.653701  0.004  -0.083765  0.002307  3.918089  0.003  -0.081022  0.001991  3.935403  0.002  0.004627  -0.08536  0.002464  3.906543  0.003
C  C31  1  0.65201768  0.36982241  0.71869288  1  -0.014743  -0.001319  3.734681  0.0  -0.046175  0.000213  4.010183  0.001  -0.043731  -0.000784  4.030458  0.0  -0.008077  -0.047732  0.000904  3.996644  0.001
C  C32  1  0.34797658  0.63018465  0.28130318  1  -0.014838  -0.001349  3.734829  0.0  -0.046296  0.000215  4.0103  0.001  -0.04386  -0.000781  4.030586  0.0  -0.008147  -0.047855  0.000904  3.99677  0.001
C  C33  1  0.36158640  0.35361597  0.82283233  1  0.152639  -0.009285  3.629743  -0.005  0.094286  -0.002863  3.901164  -0.001  0.109636  -0.004333  3.913482  -0.002  0.135826  0.084471  -0.001813  3.892711  0.0
C  C34  1  0.63841870  0.64637368  0.17717533  1  0.152802  -0.009336  3.629747  -0.005  0.09446  -0.002861  3.901164  -0.001  0.109808  -0.004332  3.913473  -0.002  0.135921  0.084649  -0.001814  3.892691  0.0
N  N35  1  0.35476487  0.77137253  0.85040280  1  -0.588945  0.102659  3.127212  0.131  -0.574152  0.070111  3.405639  0.093  -0.605383  0.056553  3.410571  0.081  -0.636423  -0.554713  0.078188  3.403385  0.099
N  N36  1  0.64523892  0.22863009  0.14959169  1  -0.58878  0.102669  3.127292  0.131  -0.573985  0.070115  3.405749  0.093  -0.605207  0.056556  3.410679  0.081  -0.636345  -0.554549  0.078194  3.403487  0.099
N  N37  1  0.41954864  0.28017468  0.70503227  1  -0.058649  0.000855  3.564335  0.002  0.03836  0.000888  3.779035  0.002  0.023618  0.000469  3.805465  0.001  -0.241543  0.047931  0.001232  3.761116  0.002
N  N38  1  0.58045248  0.71982358  0.29497309  1  -0.058588  0.000873  3.564373  0.002  0.038356  0.000889  3.779079  0.002  0.023615  0.000468  3.805509  0.001  -0.241573  0.047923  0.001232  3.761155  0.002
N  N39  1  0.50069174  0.40826788  0.83402367  1  -0.360652  0.070855  3.372576  0.093  -0.310447  0.051325  3.683272  0.07  -0.339241  0.043242  3.703857  0.063  -0.388385  -0.292565  0.05567  3.670371  0.072
N  N40  1  0.49930976  0.59172901  0.16597887  1  -0.360782  0.070859  3.372708  0.093  -0.310554  0.051321  3.683394  0.07  -0.339351  0.043239  3.703982  0.063  -0.388429  -0.292677  0.05567  3.670487  0.072
Cl  Cl41  1  0.88497479  0.72754287  0.73516015  1  1.383859  -0.000157  6.207447  0.0  1.321687  -0.000241  6.774824  0.0  1.37336  -0.000192  6.751759  0.0  0.728152  1.286279  -0.000207  6.789312  0.0
Cl  Cl42  1  0.11502443  0.27245694  0.26483965  1  1.383898  -0.000166  6.207645  0.0  1.321745  -0.000238  6.774992  0.0  1.373418  -0.000192  6.751923  0.0  0.728169  1.286336  -0.000207  6.789482  0.0
O  O43  1  0.84540088  0.55362350  0.85806516  1  -0.567834  -0.001539  1.864447  0.0  -0.545827  -0.001606  2.132381  0.0  -0.562108  -0.001798  2.115765  0.0  -0.317576  -0.534906  -0.001403  2.143553  0.0
O  O44  1  0.15460664  0.44637177  0.14194096  1  -0.567831  -0.001523  1.864494  0.0  -0.545853  -0.001611  2.132469  0.0  -0.562132  -0.001792  2.115852  0.0  -0.317581  -0.53493  -0.001403  2.143644  0.0
O  O45  1  0.70700598  0.86336875  0.66453211  1  -0.557519  -0.000254  1.879478  0.0  -0.525891  -0.000105  2.126015  0.0  -0.541249  -0.000157  2.113067  0.0  -0.313632  -0.515109  -4.9e-05  2.1342  0.0
O  O46  1  0.29299088  0.13662972  0.33546656  1  -0.557533  -0.000255  1.879435  0.0  -0.525918  -0.000104  2.125975  0.0  -0.541272  -0.000161  2.113028  0.0  -0.313629  -0.515135  -4.9e-05  2.134167  0.0
O  O47  1  0.03151149  0.67778599  0.60943795  1  -0.532812  -0.000192  1.850592  0.0  -0.501672  -0.000215  2.089822  0.0  -0.517306  -0.000205  2.077902  0.0  -0.30612  -0.490688  -0.000182  2.097428  0.0
O  O48  1  0.96849549  0.32221081  0.39056231  1  -0.532826  -0.00021  1.85065  0.0  -0.501721  -0.000209  2.089925  0.0  -0.517355  -0.00021  2.078001  0.0  -0.306169  -0.490739  -0.000182  2.09753  0.0
O  O49  1  0.95179135  0.81418486  0.81096702  1  -0.537405  -3.7e-05  1.848023  0.0  -0.502147  -3.2e-05  2.083867  0.0  -0.517403  -8.3e-05  2.071524  0.0  -0.308829  -0.491498  -2e-06  2.091661  0.0
O  O50  1  0.04820436  0.18582644  0.18902715  1  -0.537391  -3.6e-05  1.848141  0.0  -0.502136  -3.7e-05  2.083991  0.0  -0.517393  -8.1e-05  2.07165  0.0  -0.308805  -0.491484  -3e-06  2.091781  0.0
