# generated using pymatgen
data_AlH6C21(NO2)9
_symmetry_space_group_name_H-M   'P 1'
_cell_length_a   4.20486440
_cell_length_b   27.98679881
_cell_length_c   27.98595780
_cell_angle_alpha   120.00048743
_cell_angle_beta   89.99924569
_cell_angle_gamma   90.00120808
_symmetry_Int_Tables_number   1
_chemical_formula_structural   AlH6C21(NO2)9
_chemical_formula_sum   'Al2 H12 C42 N18 O36'
_cell_volume   2852.16005912
_cell_formula_units_Z   2
loop_
 _symmetry_equiv_pos_site_id
 _symmetry_equiv_pos_as_xyz
  1  'x, y, z'
loop_
 _atom_site_type_symbol
 _atom_site_label
 _atom_site_symmetry_multiplicity
 _atom_site_fract_x
 _atom_site_fract_y
 _atom_site_fract_z
 _atom_site_occupancy
 _atom_site_pbe_bader_charge
 _atom_site_pbe_bader_spin_density
 _atom_site_pbe_cm5_charge
 _atom_site_pbe_ddec_charge
 _atom_site_pbe_ddec_spin_density
 _atom_site_pbe_ddec_sum_bond_order
 _atom_site_pbe_magmom
Al  Al0  1  0.06844802  0.49999878  0.50000373  1  2.521116  0  0.464102  1.662838  0  2.491402  0
Al  Al1  1  0.07686913  0.16665892  0.83332504  1  2.518468  0  0.448585  1.648561  0  2.506943  0
H  H2  1  0.81763539  0.19216156  0.70338848  1  0.110229  0  0.126488  0.142037  0  0.947422  0
H  H3  1  0.78247732  0.24579300  0.65369441  1  0.12828  0  0.121874  0.128572  0  0.98186  0
H  H4  1  0.52673884  0.29043025  0.53971713  1  0.127377  0  0.131467  0.15041  0  0.966454  0
H  H5  1  0.54617428  0.43704816  0.70061297  1  0.133084  0  0.133247  0.155738  0  0.973783  0
H  H6  1  0.81766088  0.01122556  0.80784171  1  0.130899  0  0.126447  0.141982  0  0.947388  0
H  H7  1  0.78246942  0.90790545  0.75421387  1  0.128462  0  0.121841  0.128619  0  0.981788  0
H  H8  1  0.52664701  0.74928200  0.70957004  1  0.125647  0  0.131404  0.150231  0  0.966629  0
H  H9  1  0.54622469  0.76355445  0.56295100  1  0.138644  0  0.133192  0.155653  0  0.973671  0
H  H10  1  0.81768481  0.29660436  0.98876577  1  0.11954  0  0.1265  0.141966  0  0.947561  0
H  H11  1  0.78246402  0.34630795  0.09209115  1  0.115048  0  0.121875  0.128598  0  0.981851  0
H  H12  1  0.52672787  0.46028652  0.25072038  1  0.127842  0  0.131447  0.150353  0  0.966588  0
H  H13  1  0.54617562  0.29939474  0.23643793  1  0.195964  0  0.133215  0.155744  0  0.973606  0
C  C14  1  0.56082823  0.45388941  0.41603188  1  1.6717  0  0.287214  0.686899  0  4.054313  0
C  C15  1  0.56082543  0.46213762  0.54611351  1  1.669261  0  0.287207  0.686913  0  4.053967  0
C  C16  1  0.56081057  0.58396888  0.53785872  1  1.668959  0  0.28706  0.686781  0  4.054308  0
C  C17  1  0.57386280  0.21753500  0.80115916  1  1.676368  0  0.281675  0.674003  0  4.095439  0
C  C18  1  0.57386374  0.08361853  0.78246016  1  1.646739  0  0.28164  0.673935  0  4.09533  0
C  C19  1  0.57386829  0.19883286  0.91637156  1  1.682721  0  0.281546  0.673919  0  4.095473  0
C  C20  1  0.56322403  0.25315786  0.77490477  1  0.015933  0  0.013253  -0.043021  0  3.909781  0
C  C21  1  0.69840165  0.23211161  0.72229172  1  -0.015172  0  -0.068126  -0.077202  0  3.922456  0
C  C22  1  0.67770035  0.26143681  0.69447123  1  0.053024  0  -0.061104  -0.106651  0  3.915425  0
C  C23  1  0.52658743  0.31315072  0.71917908  1  0.369291  0  0.100925  0.121582  0  4.038328  0
C  C24  1  0.39746472  0.33474304  0.77230230  1  0.316271  0  0.102654  -0.011253  0  3.871386  0
C  C25  1  0.40991125  0.30435972  0.79940217  1  0.245459  0  0.089143  0.004537  0  3.913189  0
C  C26  1  0.53497415  0.33514729  0.56565943  1  0.128993  0  -0.061008  -0.179856  0  3.917824  0
C  C27  1  0.54597250  0.35959933  0.62295877  1  0.325166  0  0.093712  0.188619  0  4.049372  0
C  C28  1  0.54049811  0.41725794  0.65576908  1  0.030111  0  -0.059924  -0.174996  0  3.885737  0
C  C29  1  0.52355679  0.44899056  0.63058296  1  0.194549  0  0.093104  0.079447  0  3.890754  0
C  C30  1  0.53246649  0.42633686  0.57266868  1  0.172759  0  0.023357  -0.087579  0  3.804302  0
C  C31  1  0.53168612  0.36826438  0.54161724  1  0.130823  0  0.089631  0.070029  0  3.894528  0
C  C32  1  0.56322567  0.02174313  0.74684533  1  0.080788  0  0.013134  -0.042925  0  3.90969  0
C  C33  1  0.69838389  0.99017826  0.76789342  1  0.023561  0  -0.06806  -0.077228  0  3.922381  0
C  C34  1  0.67766707  0.93303232  0.73856818  1  -0.06135  0  -0.061059  -0.106761  0  3.915308  0
C  C35  1  0.52656389  0.90601906  0.68685164  1  0.42025  0  0.100985  0.121899  0  4.038126  0
C  C36  1  0.39741902  0.93754843  0.66526042  1  0.303106  0  0.102619  -0.011462  0  3.871219  0
C  C37  1  0.40991439  0.99503485  0.69564160  1  0.224772  0  0.089219  0.004549  0  3.913021  0
C  C38  1  0.53490953  0.73050852  0.66485497  1  0.051171  0  -0.060834  -0.179417  0  3.917528  0
C  C39  1  0.54597630  0.76335284  0.64040095  1  0.360384  0  0.093689  0.188435  0  4.049356  0
C  C40  1  0.54052865  0.73850421  0.58274212  1  0.049537  0  -0.059914  -0.174793  0  3.885391  0
C  C41  1  0.52356950  0.68158358  0.55100613  1  0.236372  0  0.093139  0.079489  0  3.890564  0
C  C42  1  0.53245811  0.64632452  0.57366215  1  0.106264  0  0.023295  -0.087843  0  3.804331  0
C  C43  1  0.53161794  0.67334910  0.63173767  1  0.186951  0  0.089591  0.070143  0  3.894316  0
C  C44  1  0.56321307  0.22509746  0.97825083  1  0.028228  0  0.013208  -0.042948  0  3.909709  0
C  C45  1  0.69840782  0.27770789  0.00981475  1  -0.055834  0  -0.068155  -0.077225  0  3.922737  0
C  C46  1  0.67766936  0.30553157  0.06696104  1  0.0291  0  -0.061083  -0.106754  0  3.915483  0
C  C47  1  0.52649390  0.28083388  0.09397553  1  0.474015  0  0.10097  0.12191  0  4.03814  0
C  C48  1  0.39731498  0.22771736  0.06244359  1  0.192281  0  0.102507  -0.011426  0  3.871178  0
C  C49  1  0.40985348  0.20060531  0.00495725  1  0.326505  0  0.089283  0.00452  0  3.912919  0
C  C50  1  0.53497994  0.43434489  0.26949340  1  -0.047426  0  -0.060873  -0.179566  0  3.917747  0
C  C51  1  0.54598367  0.37704706  0.23664531  1  0.339791  0  0.09371  0.188537  0  4.049095  0
C  C52  1  0.54048188  0.34423833  0.26149469  1  0.070783  0  -0.05996  -0.175061  0  3.885452  0
C  C53  1  0.52354598  0.36942083  0.31841510  1  0.161112  0  0.093138  0.079627  0  3.890557  0
C  C54  1  0.53246197  0.42733383  0.35367602  1  0.0928  0  0.023204  -0.087659  0  3.80449  0
C  C55  1  0.53167579  0.45838178  0.32665117  1  0.238031  0  0.089512  0.069741  0  3.894546  0
N  N56  1  0.51179848  0.34754336  0.69596235  1  -0.449301  0  -0.130698  -0.08224  0  3.288486  0
N  N57  1  0.55354119  0.32324886  0.64437360  1  -0.444362  0  -0.135944  -0.123626  0  3.221278  0
N  N58  1  0.51175947  0.84841052  0.65245756  1  -0.459162  0  -0.130651  -0.082423  0  3.288125  0
N  N59  1  0.55355093  0.82111809  0.67675439  1  -0.460301  0  -0.135951  -0.123562  0  3.220685  0
N  N60  1  0.51167918  0.30405044  0.15158419  1  -0.462349  0  -0.13074  -0.082521  0  3.288163  0
N  N61  1  0.55357118  0.35563322  0.17887753  1  -0.432612  0  -0.135931  -0.123506  0  3.220625  0
N  N62  1  0.25484707  0.32533533  0.85350587  1  0.405575  0  0.063794  0.519222  0  4.206767  0
N  N63  1  0.26957042  0.39172843  0.79926231  1  0.436721  0  0.062993  0.512469  0  4.268695  0
N  N64  1  0.51093683  0.33658236  0.48020166  1  0.37503  0  0.066399  0.511995  0  4.193547  0
N  N65  1  0.48177433  0.50908736  0.66998105  1  0.436115  0  0.06133  0.503817  0  4.212124  0
N  N66  1  0.25486740  0.02815698  0.67466055  1  0.400452  0  0.063791  0.51934  0  4.206991  0
N  N67  1  0.26950330  0.90752016  0.60827476  1  0.457782  0  0.063171  0.513008  0  4.26817  0
N  N68  1  0.51078381  0.64361689  0.66341623  1  0.380571  0  0.06581  0.511059  0  4.194843  0
N  N69  1  0.48178339  0.66088385  0.49090758  1  0.431805  0  0.061123  0.503573  0  4.212894  0
N  N70  1  0.25483641  0.14649925  0.97183457  1  0.406796  0  0.063897  0.519537  0  4.206888  0
N  N71  1  0.26935995  0.20076382  0.09247307  1  0.440128  0  0.063012  0.512554  0  4.268078  0
N  N72  1  0.51090760  0.51979680  0.35638661  1  0.430534  0  0.066431  0.512195  0  4.193383  0
N  N73  1  0.48174309  0.33002379  0.33911538  1  0.422919  0  0.061247  0.503599  0  4.212821  0
O  O74  1  0.81650322  0.56388598  0.54393651  1  -1.227997  0  -0.216861  -0.581102  0  2.422783  0
O  O75  1  0.81652351  0.48004784  0.43611284  1  -1.229952  0  -0.216908  -0.581088  0  2.422811  0
O  O76  1  0.81651098  0.45606278  0.51995785  1  -1.229789  0  -0.216936  -0.581133  0  2.422756  0
O  O77  1  0.33757823  0.55744737  0.50494469  1  -1.247734  0  -0.228749  -0.593707  0  2.421131  0
O  O78  1  0.33759315  0.49505332  0.55250687  1  -1.246458  0  -0.228868  -0.593879  0  2.420896  0
O  O79  1  0.33759705  0.44749706  0.44255346  1  -1.247706  0  -0.228807  -0.593874  0  2.421206  0
O  O80  1  0.81936405  0.17124869  0.89184253  1  -1.249436  0  -0.227342  -0.591046  0  2.400163  0
O  O81  1  0.81935366  0.22058503  0.82874101  1  -1.247112  0  -0.227369  -0.591162  0  2.400225  0
O  O82  1  0.81936222  0.10814642  0.77940519  1  -1.248128  0  -0.227362  -0.591051  0  2.400253  0
O  O83  1  0.34198625  0.21098047  0.89547121  1  -1.244794  0  -0.228033  -0.590113  0  2.397961  0
O  O84  1  0.34197993  0.10451749  0.81550720  1  -1.249889  0  -0.227967  -0.590076  0  2.397893  0
O  O85  1  0.34197958  0.18448515  0.78900418  1  -1.244735  0  -0.228107  -0.590105  0  2.397863  0
O  O86  1  0.36069340  0.30895373  0.88403314  1  -0.429357  0  -0.103349  -0.292196  0  1.960871  0
O  O87  1  0.02646095  0.35686582  0.86394377  1  -0.426477  0  -0.11009  -0.306076  0  1.963368  0
O  O88  1  0.03529564  0.39942738  0.77743307  1  -0.425528  0  -0.109488  -0.311967  0  2.001544  0
O  O89  1  0.41762579  0.42649024  0.83959008  1  -0.3839  0  -0.089853  -0.253791  0  1.886648  0
O  O90  1  0.69315163  0.34852046  0.45339312  1  -0.402587  0  -0.092937  -0.266931  0  1.99403  0
O  O91  1  0.31210815  0.29893063  0.46143943  1  -0.397922  0  -0.114479  -0.304806  0  1.893384  0
O  O92  1  0.25271062  0.53135025  0.66151663  1  -0.397871  0  -0.100609  -0.284295  0  2.011648  0
O  O93  1  0.66633175  0.53026817  0.70949242  1  -0.418353  0  -0.107608  -0.290477  0  1.90893  0
O  O94  1  0.36075924  0.07505980  0.69103319  1  -0.421682  0  -0.103452  -0.292312  0  1.96101  0
O  O95  1  0.02646518  0.00706673  0.64313280  1  -0.428996  0  -0.110044  -0.306124  0  1.963486  0
O  O96  1  0.03521101  0.87799576  0.60057901  1  -0.428539  0  -0.109819  -0.312489  0  2.001449  0
O  O97  1  0.41754567  0.91308311  0.57350993  1  -0.383019  0  -0.089703  -0.253722  0  1.886319  0
O  O98  1  0.69293256  0.60486311  0.65147315  1  -0.403654  0  -0.092772  -0.26657  0  1.994357  0
O  O99  1  0.31195423  0.66251150  0.70106987  1  -0.397051  0  -0.114115  -0.304329  0  1.89397  0
O  O100  1  0.25272846  0.63015437  0.46864230  1  -0.399902  0  -0.100464  -0.28423  0  2.012166  0
O  O101  1  0.66633140  0.67921355  0.46972623  1  -0.416469  0  -0.107523  -0.290292  0  1.909087  0
O  O102  1  0.36076366  0.11596486  0.92493250  1  -0.424566  0  -0.103526  -0.292418  0  1.960884  0
O  O103  1  0.02642310  0.13606064  0.99292268  1  -0.427248  0  -0.110084  -0.306185  0  1.963431  0
O  O104  1  0.03507914  0.22259825  0.12200038  1  -0.427847  0  -0.109645  -0.312125  0  2.001419  0
O  O105  1  0.41738117  0.16043829  0.08691644  1  -0.380899  0  -0.089633  -0.253611  0  1.886171  0
O  O106  1  0.69309201  0.54660584  0.39513767  1  -0.40109  0  -0.092827  -0.266964  0  1.994227  0
O  O107  1  0.31209003  0.53855487  0.33749139  1  -0.402232  0  -0.11457  -0.304859  0  1.893187  0
O  O108  1  0.25269570  0.33849275  0.36984903  1  -0.396963  0  -0.100431  -0.284123  0  2.012072  0
O  O109  1  0.66626313  0.29050950  0.32077981  1  -0.415206  0  -0.107658  -0.29045  0  1.90906  0
