# generated using pymatgen
data_CdH8C12S2(N2Cl)2
_symmetry_space_group_name_H-M   'P 1'
_cell_length_a   5.78497893
_cell_length_b   9.46620707
_cell_length_c   14.75349136
_cell_angle_alpha   99.98188854
_cell_angle_beta   89.99714742
_cell_angle_gamma   90.00034145
_symmetry_Int_Tables_number   1
_chemical_formula_structural   CdH8C12S2(N2Cl)2
_chemical_formula_sum   'Cd2 H16 C24 S4 N8 Cl4'
_cell_volume   795.69793525
_cell_formula_units_Z   2
loop_
 _symmetry_equiv_pos_site_id
 _symmetry_equiv_pos_as_xyz
  1  'x, y, z'
loop_
 _atom_site_type_symbol
 _atom_site_label
 _atom_site_symmetry_multiplicity
 _atom_site_fract_x
 _atom_site_fract_y
 _atom_site_fract_z
 _atom_site_occupancy
 _atom_site_hle17_bader_spin_density
 _atom_site_hle17_ddec_charge
 _atom_site_hle17_ddec_spin_density
 _atom_site_hle17_ddec_sum_bond_order
 _atom_site_hle17_magmom
 _atom_site_hse06_10hf_bader_spin_density
 _atom_site_hse06_10hf_ddec_charge
 _atom_site_hse06_10hf_ddec_spin_density
 _atom_site_hse06_10hf_ddec_sum_bond_order
 _atom_site_hse06_10hf_magmom
 _atom_site_hse06_bader_spin_density
 _atom_site_hse06_ddec_charge
 _atom_site_hse06_ddec_spin_density
 _atom_site_hse06_ddec_sum_bond_order
 _atom_site_hse06_magmom
 _atom_site_pbe_bader_spin_density
 _atom_site_pbe_cm5_charge
 _atom_site_pbe_ddec_charge
 _atom_site_pbe_ddec_spin_density
 _atom_site_pbe_ddec_sum_bond_order
 _atom_site_pbe_magmom
Cd  Cd0  1  0.49998612  0.49999762  0.49999504  1  0  0.960002  0  1.990101  0  0  0.779531  0  2.456509  0  0  0.824548  0  2.419593  0  0  0.722684  0.74822  0  2.48125  0
Cd  Cd1  1  0.00001210  0.00000429  0.00000052  1  0  0.959968  0  1.990235  0  0  0.779475  0  2.45667  0  0  0.824496  0  2.419751  0  0  0.722686  0.748165  0  2.481414  0
H  H2  1  0.73691936  0.81173790  0.53810655  1  0  0.083287  0  0.966127  0  0  0.086411  0  1.040323  0  0  0.089264  0  1.037985  0  0  0.103169  0.084274  0  1.04207  0
H  H3  1  0.23691263  0.68826257  0.96189411  1  0  0.08333  0  0.966074  0  0  0.086441  0  1.040279  0  0  0.089299  0  1.037938  0  0  0.103168  0.084299  0  1.042031  0
H  H4  1  0.26305807  0.18825730  0.46188487  1  0  0.083352  0  0.966236  0  0  0.086479  0  1.040402  0  0  0.089336  0  1.03806  0  0  0.103235  0.084345  0  1.042153  0
H  H5  1  0.76309764  0.31173542  0.03811663  1  0  0.083264  0  0.966215  0  0  0.086388  0  1.040392  0  0  0.089255  0  1.038043  0  0  0.103186  0.084257  0  1.042141  0
H  H6  1  0.33527158  0.12503172  0.72048954  1  0  0.1119  0  0.949336  0  0  0.118084  0  1.017892  0  0  0.1213  0  1.015296  0  0  0.100184  0.115688  0  1.019901  0
H  H7  1  0.83528802  0.37497513  0.77951629  1  0  0.111808  0  0.949473  0  0  0.118065  0  1.017939  0  0  0.121284  0  1.015344  0  0  0.100151  0.115665  0  1.019956  0
H  H8  1  0.66473004  0.87496541  0.27951161  1  0  0.111911  0  0.949333  0  0  0.118072  0  1.01794  0  0  0.121286  0  1.01535  0  0  0.100188  0.115674  0  1.019952  0
H  H9  1  0.16471879  0.62502937  0.22049185  1  0  0.11187  0  0.949383  0  0  0.11806  0  1.017932  0  0  0.121278  0  1.015343  0  0  0.100181  0.115662  0  1.019945  0
H  H10  1  0.05623926  0.92820125  0.73702812  1  0  0.105646  0  0.957702  0  0  0.111436  0  1.024891  0  0  0.114394  0  1.02445  0  0  0.100107  0.109303  0  1.025366  0
H  H11  1  0.55625346  0.57180039  0.76298163  1  0  0.105709  0  0.957568  0  0  0.111477  0  1.024791  0  0  0.114437  0  1.024345  0  0  0.100095  0.109343  0  1.025265  0
H  H12  1  0.94376409  0.07178616  0.26297457  1  0  0.105662  0  0.957712  0  0  0.111454  0  1.024901  0  0  0.11442  0  1.024449  0  0  0.100128  0.109309  0  1.025391  0
H  H13  1  0.44375335  0.42820739  0.23702419  1  0  0.105686  0  0.957728  0  0  0.111494  0  1.024894  0  0  0.114454  0  1.02445  0  0  0.100151  0.109361  0  1.025373  0
H  H14  1  0.12980843  0.68099698  0.64909613  1  0  0.07697  0  0.969594  0  0  0.084555  0  1.036601  0  0  0.085932  0  1.036415  0  0  0.107414  0.083492  0  1.036853  0
H  H15  1  0.62982398  0.81900882  0.85091472  1  0  0.076935  0  0.969668  0  0  0.084528  0  1.03667  0  0  0.085904  0  1.036486  0  0  0.107397  0.083467  0  1.036921  0
H  H16  1  0.87017764  0.31900134  0.35090041  1  0  0.077036  0  0.96961  0  0  0.084614  0  1.036623  0  0  0.085991  0  1.036436  0  0  0.107426  0.083551  0  1.036882  0
H  H17  1  0.37018801  0.18099456  0.14909531  1  0  0.076999  0  0.969682  0  0  0.08458  0  1.03668  0  0  0.085958  0  1.036493  0  0  0.107428  0.083521  0  1.036933  0
C  C18  1  0.99377333  0.57098665  0.39948856  1  0  0.297235  0  4.017005  0  0  0.278093  0  4.317475  0  0  0.299835  0  4.331042  0  0  0.143334  0.263308  0  4.307933  0
C  C19  1  0.49375050  0.92901645  0.10050268  1  0  0.297132  0  4.016703  0  0  0.277984  0  4.317191  0  0  0.29973  0  4.330772  0  0  0.143043  0.263195  0  4.307649  0
C  C20  1  0.00619718  0.42901706  0.60050728  1  0  0.297403  0  4.016431  0  0  0.278261  0  4.316917  0  0  0.300009  0  4.330484  0  0  0.143259  0.263471  0  4.307377  0
C  C21  1  0.50626668  0.07097648  0.89949389  1  0  0.297147  0  4.017182  0  0  0.277991  0  4.317688  0  0  0.299735  0  4.331263  0  0  0.143209  0.263203  0  4.308145  0
C  C22  1  0.58847529  0.84069408  0.58313609  1  0  0.055324  0  3.722776  0  0  0.016203  0  3.975955  0  0  0.022634  0  3.992811  0  0  0.032248  0.012172  0  3.964488  0
C  C23  1  0.08848439  0.65930994  0.91686180  1  0  0.05532  0  3.722739  0  0  0.016229  0  3.975893  0  0  0.022659  0  3.992749  0  0  0.032274  0.012202  0  3.964432  0
C  C24  1  0.41150559  0.15930752  0.41685813  1  0  0.055171  0  3.722796  0  0  0.015994  0  3.976  0  0  0.022422  0  3.992856  0  0  0.032173  0.011961  0  3.96455  0
C  C25  1  0.91153971  0.34069044  0.08313839  1  0  0.05527  0  3.722876  0  0  0.016116  0  3.976118  0  0  0.022542  0  3.992969  0  0  0.032199  0.012074  0  3.964665  0
C  C26  1  0.55604767  0.98156390  0.62844660  1  0  0.078954  0  3.801367  0  0  0.095488  0  4.068018  0  0  0.094302  0  4.089893  0  0  0.012933  0.095777  0  4.053471  0
C  C27  1  0.05605266  0.51843913  0.87154977  1  0  0.07887  0  3.801278  0  0  0.095368  0  4.068025  0  0  0.094172  0  4.08991  0  0  0.01287  0.09566  0  4.05347  0
C  C28  1  0.44394358  0.01843555  0.37154737  1  0  0.078916  0  3.801406  0  0  0.095553  0  4.067947  0  0  0.094359  0  4.089832  0  0  0.012936  0.095831  0  4.053418  0
C  C29  1  0.94396280  0.48156125  0.12845041  1  0  0.078944  0  3.80128  0  0  0.095527  0  4.067881  0  0  0.094324  0  4.089781  0  0  0.012986  0.095824  0  4.053324  0
C  C30  1  0.36348782  0.01575683  0.68483664  1  0  -0.066521  0  3.719527  0  0  -0.096689  0  3.971539  0  0  -0.094563  0  3.989962  0  0  -0.074786  -0.097784  0  3.959144  0
C  C31  1  0.86350068  0.48425221  0.81516552  1  0  -0.066407  0  3.719411  0  0  -0.096606  0  3.971406  0  0  -0.094481  0  3.989837  0  0  -0.074728  -0.097701  0  3.959008  0
C  C32  1  0.63651035  0.98424033  0.31516316  1  0  -0.06645  0  3.719421  0  0  -0.096668  0  3.97146  0  0  -0.094542  0  3.989893  0  0  -0.074784  -0.097757  0  3.959064  0
C  C33  1  0.13650440  0.51575339  0.18484140  1  0  -0.066459  0  3.719414  0  0  -0.096643  0  3.971433  0  0  -0.094521  0  3.989872  0  0  -0.074797  -0.097737  0  3.959033  0
C  C34  1  0.20842745  0.90610417  0.69332249  1  0  -0.092429  0  3.72698  0  0  -0.102091  0  3.978342  0  0  -0.108233  0  3.999308  0  0  -0.083315  -0.098227  0  3.964309  0
C  C35  1  0.70843630  0.59390484  0.80668315  1  0  -0.09268  0  3.726745  0  0  -0.102353  0  3.97819  0  0  -0.1085  0  3.999161  0  0  -0.083441  -0.098487  0  3.96415  0
C  C36  1  0.79157418  0.09389404  0.30667879  1  0  -0.092533  0  3.727052  0  0  -0.102176  0  3.978392  0  0  -0.108324  0  3.999357  0  0  -0.08336  -0.098298  0  3.96437  0
C  C37  1  0.29156359  0.40609854  0.19332689  1  0  -0.092615  0  3.726989  0  0  -0.102298  0  3.978362  0  0  -0.108446  0  3.999338  0  0  -0.083452  -0.098432  0  3.964332  0
C  C38  1  0.24971787  0.76847598  0.64520119  1  0  0.113051  0  3.698707  0  0  0.081796  0  3.947783  0  0  0.088432  0  3.966556  0  0  0.035857  0.077517  0  3.934984  0
C  C39  1  0.74973045  0.73152971  0.85480527  1  0  0.113259  0  3.698594  0  0  0.082  0  3.94766  0  0  0.088635  0  3.966434  0  0  0.03602  0.077719  0  3.934866  0
C  C40  1  0.75027338  0.23152119  0.35479793  1  0  0.113048  0  3.698764  0  0  0.081791  0  3.947827  0  0  0.08843  0  3.966594  0  0  0.035917  0.077513  0  3.935026  0
C  C41  1  0.25027463  0.26847150  0.14520585  1  0  0.113079  0  3.698905  0  0  0.081849  0  3.947965  0  0  0.088483  0  3.966744  0  0  0.035933  0.077571  0  3.935167  0
S  S42  1  0.73925572  0.62585862  0.37319174  1  0  -0.331408  0  2.180423  0  0  -0.301382  0  2.515844  0  0  -0.31756  0  2.508131  0  0  -0.133865  -0.289882  0  2.5208  0
S  S43  1  0.23924983  0.87411269  0.12679794  1  0  -0.331262  0  2.180579  0  0  -0.301254  0  2.516056  0  0  -0.317407  0  2.508303  0  0  -0.133795  -0.289753  0  2.520999  0
S  S44  1  0.26073380  0.37414184  0.62680506  1  0  -0.331359  0  2.180138  0  0  -0.30134  0  2.515572  0  0  -0.31752  0  2.507861  0  0  -0.133826  -0.289843  0  2.520529  0
S  S45  1  0.76077254  0.12587603  0.87319474  1  0  -0.331338  0  2.180384  0  0  -0.301325  0  2.515862  0  0  -0.317504  0  2.508155  0  0  -0.133832  -0.289828  0  2.520819  0
N  N46  1  0.17808891  0.52801921  0.41610156  1  0  -0.531517  0  2.903387  0  0  -0.475762  0  3.182863  0  0  -0.497006  0  3.190624  0  0  -0.398112  -0.461198  0  3.177371  0
N  N47  1  0.67812233  0.97195881  0.08388131  1  0  -0.531504  0  2.902845  0  0  -0.475725  0  3.182332  0  0  -0.496981  0  3.190098  0  0  -0.39786  -0.461158  0  3.176843  0
N  N48  1  0.82185913  0.47198995  0.58389087  1  0  -0.531695  0  2.903078  0  0  -0.475948  0  3.182606  0  0  -0.497197  0  3.190365  0  0  -0.39803  -0.461383  0  3.177114  0
N  N49  1  0.32190868  0.02804193  0.91610333  1  0  -0.531463  0  2.903439  0  0  -0.475713  0  3.182965  0  0  -0.496962  0  3.190732  0  0  -0.39802  -0.461148  0  3.17747  0
N  N50  1  0.43669332  0.73650290  0.59115567  1  0  -0.311307  0  3.277084  0  0  -0.235351  0  3.539023  0  0  -0.254492  0  3.560394  0  0  -0.32362  -0.22228  0  3.524093  0
N  N51  1  0.93670278  0.76350150  0.90884630  1  0  -0.311312  0  3.277148  0  0  -0.23535  0  3.539089  0  0  -0.254493  0  3.560461  0  0  -0.323616  -0.222279  0  3.524163  0
N  N52  1  0.56328757  0.26349872  0.40883720  1  0  -0.311251  0  3.276926  0  0  -0.235291  0  3.538884  0  0  -0.25443  0  3.560252  0  0  -0.323659  -0.222216  0  3.523954  0
N  N53  1  0.06331267  0.23649873  0.09116064  1  0  -0.3112  0  3.277163  0  0  -0.235255  0  3.539105  0  0  -0.2544  0  3.560484  0  0  -0.323606  -0.222182  0  3.524178  0
Cl  Cl54  1  0.75476820  0.11120235  0.61285019  1  0  -0.069221  0  1.398441  0  0  -0.050576  0  1.634212  0  0  -0.05653  0  1.63346  0  0  0.017067  -0.04629  0  1.634922  0
Cl  Cl55  1  0.25476748  0.38880053  0.88714725  1  0  -0.069199  0  1.398398  0  0  -0.050534  0  1.634176  0  0  -0.056485  0  1.633428  0  0  0.017078  -0.04625  0  1.634883  0
Cl  Cl56  1  0.24523170  0.88879605  0.38714230  1  0  -0.069173  0  1.398529  0  0  -0.050541  0  1.634238  0  0  -0.056498  0  1.633489  0  0  0.017099  -0.04625  0  1.634953  0
Cl  Cl57  1  0.74523587  0.61119424  0.11286310  1  0  -0.069154  0  1.398411  0  0  -0.050516  0  1.634151  0  0  -0.056466  0  1.633408  0  0  0.017092  -0.04623  0  1.634858  0
