# generated using pymatgen
data_NiH24C27(N2O3)2
_symmetry_space_group_name_H-M   'P 1'
_cell_length_a   10.38876025
_cell_length_b   10.65865785
_cell_length_c   11.82677868
_cell_angle_alpha   101.55130455
_cell_angle_beta   108.47683743
_cell_angle_gamma   100.33419882
_symmetry_Int_Tables_number   1
_chemical_formula_structural   NiH24C27(N2O3)2
_chemical_formula_sum   'Ni2 H48 C54 N8 O12'
_cell_volume   1174.62526377
_cell_formula_units_Z   2
loop_
 _symmetry_equiv_pos_site_id
 _symmetry_equiv_pos_as_xyz
  1  'x, y, z'
loop_
 _atom_site_type_symbol
 _atom_site_label
 _atom_site_symmetry_multiplicity
 _atom_site_fract_x
 _atom_site_fract_y
 _atom_site_fract_z
 _atom_site_occupancy
 _atom_site_pbe_bader_charge
 _atom_site_pbe_bader_spin_density
 _atom_site_pbe_cm5_charge
 _atom_site_pbe_ddec_charge
 _atom_site_pbe_ddec_spin_density
 _atom_site_pbe_ddec_sum_bond_order
 _atom_site_pbe_magmom
Ni  Ni0  1  0.49999926  0.99999904  0.00000046  1  1.187182  1.586563  0.636647  0.832175  1.787497  2.404494  1.575
Ni  Ni1  1  0.50000076  0.00000083  0.50000008  1  1.196309  1.584383  0.645518  0.841702  1.785588  2.404695  1.573
H  H2  1  0.58378079  0.31778931  0.33930184  1  0.091535  0.000382  0.107431  0.112071  0.000182  1.022165  0.0
H  H3  1  0.41621951  0.68221129  0.66069884  1  0.091535  0.000382  0.107426  0.11206  0.000182  1.02215  0.0
H  H4  1  0.59428280  0.52702390  0.48452213  1  0.090602  8.4e-05  0.104994  0.107418  1.7e-05  1.029345  0.0
H  H5  1  0.40571750  0.47297670  0.51547856  1  0.090598  8.4e-05  0.105  0.107449  1.7e-05  1.029329  0.0
H  H6  1  0.69726266  0.54322994  0.10551631  1  0.081647  6.5e-05  0.107127  0.119537  7e-06  1.025465  0.0
H  H7  1  0.30273636  0.45676967  0.89448469  1  0.081652  6.5e-05  0.107122  0.119531  7e-06  1.025453  0.0
H  H8  1  0.47228666  0.74817346  0.10510282  1  0.159901  0.000433  0.137911  0.106588  -5.9e-05  1.016237  0.0
H  H9  1  0.52771466  0.25182715  0.89489815  1  0.159894  0.000433  0.137927  0.106613  -5.9e-05  1.016264  0.0
H  H10  1  0.84558211  0.15317251  0.16177210  1  0.101902  0.00011  0.104376  0.113502  -3.3e-05  1.035347  0.0
H  H11  1  0.15441744  0.84682909  0.83822856  1  0.101915  0.00011  0.104397  0.113578  -3.3e-05  1.035274  0.0
H  H12  1  0.09332464  0.17845573  0.29933377  1  0.098325  1.4e-05  0.096656  0.102929  1.9e-05  1.024028  0.0
H  H13  1  0.90667618  0.82154686  0.70066488  1  0.098378  1.4e-05  0.096633  0.102907  1.9e-05  1.024016  0.0
H  H14  1  0.15439980  0.01279180  0.41005324  1  0.115364  -6.2e-05  0.100864  0.105741  -0.00012  1.035338  0.0
H  H15  1  0.84560277  0.98720980  0.58994486  1  0.115379  -6.2e-05  0.100855  0.10575  -0.00012  1.035384  0.0
H  H16  1  0.97234887  0.81291590  0.38873653  1  0.0647  0.000418  0.097256  0.105522  0.000155  1.039524  0.0
H  H17  1  0.02765399  0.18708669  0.61126353  1  0.064663  0.000418  0.097224  0.105471  0.000155  1.039556  0.0
H  H18  1  0.34022345  0.73751737  0.30820317  1  0.094774  0.001754  0.116202  0.087436  0.000571  1.003513  0.001
H  H19  1  0.65977683  0.26248324  0.69179497  1  0.094798  0.001754  0.116206  0.087451  0.000571  1.00353  0.001
H  H20  1  0.15661215  0.53609458  0.28318712  1  0.082694  0.000983  0.105002  0.11532  0.000453  1.017025  0.0
H  H21  1  0.84338916  0.46390603  0.71681384  1  0.082689  0.000983  0.105001  0.115304  0.000453  1.017041  0.0
H  H22  1  0.12670464  0.74499677  0.62272743  1  0.094312  0.000771  0.102498  0.106708  0.000366  1.065778  0.0
H  H23  1  0.87329590  0.25500482  0.37727097  1  0.094361  0.000771  0.102473  0.106699  0.000366  1.065768  0.0
H  H24  1  0.31427235  0.93191727  0.63587435  1  0.140266  0.001706  0.119738  0.092904  0.000497  1.028136  0.001
H  H25  1  0.68572719  0.06808432  0.36412377  1  0.14026  0.001706  0.119728  0.092906  0.000497  1.028121  0.001
H  H26  1  0.92009141  0.48714238  0.36246926  1  0.062847  -0.000387  0.097436  0.104535  -0.000338  0.997516  0.0
H  H27  1  0.07991192  0.51285823  0.63753141  1  0.062804  -0.000387  0.097439  0.104557  -0.000338  0.997569  0.0
H  H28  1  0.05718003  0.41327311  0.41676091  1  0.070528  -0.00019  0.102256  0.108378  -0.000166  0.975859  0.0
H  H29  1  0.94282358  0.58672850  0.58324001  1  0.070561  -0.00019  0.102263  0.108389  -0.000166  0.975873  0.0
H  H30  1  0.72926455  0.99155082  0.94190153  1  0.636976  0.000114  0.285223  0.33709  0.000379  1.019471  0.0
H  H31  1  0.27073318  0.00844780  0.05809809  1  0.636958  0.000114  0.28522  0.337074  0.000379  1.019485  0.0
H  H32  1  0.63571139  0.89825606  0.65324770  1  0.65223  1.7e-05  0.285674  0.375125  -1.8e-05  0.974399  0.0
H  H33  1  0.36428891  0.10174454  0.34675299  1  0.65223  1.7e-05  0.285651  0.375089  -1.8e-05  0.974452  0.0
H  H34  1  0.70227313  0.14160180  0.97549884  1  0.633201  -0.00016  0.285676  0.362214  -9.7e-05  0.988165  0.0
H  H35  1  0.29772663  0.85839682  0.02450219  1  0.633195  -0.00016  0.28567  0.362211  -9.7e-05  0.988167  0.0
H  H36  1  0.60726822  0.00638513  0.75608544  1  0.651277  0.001824  0.293862  0.403158  0.001465  0.916196  0.003
H  H37  1  0.39273234  0.99361646  0.24391380  1  0.651264  0.001824  0.293856  0.403177  0.001465  0.916165  0.003
H  H38  1  0.62554161  0.74425753  0.81782468  1  0.087761  0.000107  0.112631  0.086201  8.1e-05  1.035542  0.0
H  H39  1  0.37445576  0.25573612  0.18217141  1  0.08766  0.000107  0.112625  0.086247  8.1e-05  1.035464  0.0
H  H40  1  0.68102239  0.53081672  0.84084727  1  0.065514  3.1e-05  0.100671  0.107682  1.7e-05  1.021084  0.0
H  H41  1  0.31897628  0.46917793  0.15915105  1  0.065426  3.1e-05  0.100688  0.107746  1.7e-05  1.021031  0.0
H  H42  1  0.08476838  0.76242406  0.11713655  1  0.083601  0.000237  0.105947  0.118224  0.000125  1.003999  0.0
H  H43  1  0.91523036  0.23757456  0.88286335  1  0.083573  0.000237  0.105948  0.118204  0.000126  1.004062  0.0
H  H44  1  0.01332971  0.96190949  0.08117131  1  0.121213  8.3e-05  0.109442  0.070738  7.5e-05  1.065337  0.0
H  H45  1  0.98666645  0.03808714  0.91882668  1  0.121079  8.3e-05  0.109432  0.070712  7.5e-05  1.065366  0.0
H  H46  1  0.92528154  0.49227421  0.09278726  1  0.056392  3e-05  0.096092  0.107585  1.9e-05  0.989059  0.0
H  H47  1  0.07471694  0.50772342  0.90721323  1  0.056437  3e-05  0.096111  0.107616  1.9e-05  0.98896  0.0
H  H48  1  0.84586795  0.41574313  0.93417048  1  0.042556  2.5e-05  0.093496  0.096306  1.8e-05  1.00294  0.0
H  H49  1  0.15413026  0.58425350  0.06583060  1  0.042612  2.5e-05  0.0935  0.096346  1.8e-05  1.002938  0.0
C  C50  1  0.64429524  0.28950858  0.12990354  1  1.574425  -0.00124  0.203609  0.549853  -0.00194  4.227986  -0.002
C  C51  1  0.35570506  0.71049202  0.87009714  1  1.574422  -0.00124  0.203623  0.549875  -0.001941  4.227991  -0.002
C  C52  1  0.64295246  0.41582404  0.21385337  1  -0.019377  0.005596  -0.015415  -0.020883  0.003269  3.976511  0.004
C  C53  1  0.35704683  0.58417656  0.78614789  1  -0.019529  0.005595  -0.015424  -0.020921  0.003269  3.976503  0.004
C  C54  1  0.61013183  0.41237023  0.31950387  1  -0.050182  0.000556  -0.079379  -0.091108  0.000265  3.973978  0.0
C  C55  1  0.38986819  0.58762938  0.68049571  1  -0.050208  0.000556  -0.079371  -0.091026  0.000264  3.974029  0.0
C  C56  1  0.61296019  0.52862619  0.39928576  1  -0.039939  0.000325  -0.083548  -0.088764  -7.4e-05  3.975863  0.0
C  C57  1  0.38704113  0.47137442  0.60071605  1  -0.039964  0.000325  -0.083589  -0.088908  -7.3e-05  3.976031  0.0
C  C58  1  0.63795811  0.65123148  0.37277037  1  -0.008017  0.006115  -0.008833  -0.094664  0.003566  3.92203  0.005
C  C59  1  0.36204422  0.34876913  0.62723087  1  -0.007677  0.006115  -0.008796  -0.094612  0.003565  3.921954  0.005
C  C60  1  0.66505302  0.65312102  0.26363653  1  0.319589  0.000428  0.094795  0.148055  9e-05  3.986592  0.0
C  C61  1  0.33494986  0.34688157  0.73636606  1  0.319692  0.000428  0.094766  0.148067  9e-05  3.986605  0.0
C  C62  1  0.67186217  0.53780419  0.18734764  1  -0.002199  0.000971  -0.083822  -0.183255  0.000449  3.947995  0.001
C  C63  1  0.32813887  0.46219542  0.81265307  1  -0.002017  0.000971  -0.083778  -0.183219  0.000449  3.948099  0.001
C  C64  1  0.62713217  0.76934922  0.46172921  1  1.592742  -0.000108  0.206862  0.565314  -0.000642  4.222409  -0.001
C  C65  1  0.37286915  0.23065139  0.53827175  1  1.592455  -0.000107  0.206868  0.565356  -0.000642  4.222295  -0.001
C  C66  1  0.58018698  0.80857964  0.14612407  1  1.020091  -0.004486  0.160961  0.14983  -0.005626  3.895704  -0.003
C  C67  1  0.41981562  0.19142197  0.85387742  1  1.02009  -0.004486  0.160963  0.149809  -0.005626  3.895647  -0.003
C  C68  1  0.76946852  0.96670339  0.19709496  1  0.339192  0.001309  0.086646  0.13658  0.000771  4.034871  0.001
C  C69  1  0.23053076  0.03329721  0.80290545  1  0.3392  0.001309  0.086647  0.136631  0.000771  4.034847  0.001
C  C70  1  0.87212701  0.07945862  0.21069541  1  0.010411  0.001004  -0.093323  -0.159156  0.000367  3.980761  0.001
C  C71  1  0.12787356  0.92054298  0.78930553  1  0.010394  0.001004  -0.09336  -0.159257  0.000367  3.980674  0.001
C  C72  1  0.00973010  0.09336314  0.28797823  1  -0.124735  -0.000606  -0.101581  -0.103579  -0.000655  4.019313  0.0
C  C73  1  0.99027072  0.90663944  0.71202042  1  -0.124526  -0.000606  -0.101512  -0.103479  -0.000656  4.019286  0.0
C  C74  1  0.04550009  0.99844248  0.35136829  1  -0.039035  0.000369  -0.095002  -0.074162  0.000192  3.992415  0.0
C  C75  1  0.95450149  0.00155911  0.64863123  1  -0.039512  0.000369  -0.094987  -0.074219  0.000192  3.99249  0.0
C  C76  1  0.94487559  0.88583928  0.33917406  1  -0.010725  0.000145  -0.097478  -0.161714  -3.7e-05  4.008767  0.0
C  C77  1  0.05512625  0.11416331  0.66082572  1  -0.010476  0.000145  -0.097447  -0.16163  -3.7e-05  4.008723  0.0
C  C78  1  0.80771637  0.87171688  0.26106322  1  0.355362  0.003221  0.095528  0.098898  0.001826  3.997393  0.002
C  C79  1  0.19228521  0.12828472  0.73893800  1  0.355377  0.003221  0.095447  0.098788  0.001825  3.997429  0.002
C  C80  1  0.28939457  0.73367092  0.37561242  1  0.456022  -0.003621  0.04491  0.095358  -0.004381  3.95508  -0.002
C  C81  1  0.71060571  0.26632968  0.62438657  1  0.456069  -0.003621  0.044886  0.095367  -0.004381  3.95513  -0.002
C  C82  1  0.18628535  0.62282392  0.36209607  1  -0.045311  0.005197  -0.088597  -0.193836  0.002882  3.947261  0.004
C  C83  1  0.81371622  0.37717767  0.63790261  1  -0.045664  0.005197  -0.088527  -0.193744  0.002882  3.94733  0.004
C  C84  1  0.12438007  0.62153937  0.45170150  1  -0.030827  -0.006218  0.01066  0.16135  -0.007002  3.94327  -0.004
C  C85  1  0.87562049  0.37846223  0.54829859  1  -0.0307  -0.006217  0.010661  0.161344  -0.007002  3.94333  -0.004
C  C86  1  0.16946528  0.73664750  0.54972185  1  -0.014375  0.005057  -0.08893  -0.189896  0.0028  3.947393  0.004
C  C87  1  0.83053527  0.26335409  0.45027655  1  -0.014354  0.005058  -0.088916  -0.189886  0.0028  3.947368  0.004
C  C88  1  0.27495724  0.84309909  0.55818182  1  0.454851  -0.004472  0.054541  0.108944  -0.005447  3.922687  -0.003
C  C89  1  0.72504331  0.15690250  0.44181742  1  0.455004  -0.004472  0.054543  0.108922  -0.005447  3.922761  -0.003
C  C90  1  0.01733108  0.49978762  0.44174986  1  -0.035797  8.6e-05  -0.155175  -0.194602  -0.000124  3.931062  0.0
C  C91  1  0.98267152  0.50021398  0.55825079  1  -0.060479  8.5e-05  -0.155189  -0.194683  -0.000124  3.931151  0.0
C  C92  1  0.72694777  0.74360551  0.88200834  1  0.538357  0.000179  0.04321  0.106469  7.7e-05  3.952589  0.0
C  C93  1  0.27305117  0.25639013  0.11799108  1  0.538469  0.000179  0.043285  0.106467  7.7e-05  3.952483  0.0
C  C94  1  0.75868780  0.62460071  0.89612006  1  -0.068912  0.00016  -0.098293  -0.211909  7.1e-05  3.970102  0.0
C  C95  1  0.24130937  0.37539592  0.10387821  1  -0.06871  0.00016  -0.098328  -0.211993  7.1e-05  3.970232  0.0
C  C96  1  0.88876255  0.62684895  0.98157199  1  -0.009952  5.9e-05  0.008023  0.16219  1.5e-05  3.965832  0.0
C  C97  1  0.11123464  0.37314768  0.01842883  1  -0.010228  5.9e-05  0.007956  0.162138  1.4e-05  3.965873  0.0
C  C98  1  0.98181818  0.75166863  0.04825148  1  -0.094051  0.00031  -0.088671  -0.17861  0.000222  3.929859  0.0
C  C99  1  0.01817699  0.24832800  0.95174963  1  -0.093789  0.00031  -0.088583  -0.178553  0.000222  3.929766  0.0
C  C100  1  0.94185627  0.86504532  0.02819122  1  0.495134  0.000123  0.039594  0.088965  0.000107  3.994677  0.0
C  C101  1  0.05814093  0.13495131  0.97180959  1  0.495139  0.000123  0.039543  0.088976  0.000107  3.994633  0.0
C  C102  1  0.92741526  0.50207154  0.00234910  1  0.001896  3.5e-05  -0.160033  -0.206267  2.1e-05  3.960557  0.0
C  C103  1  0.07258295  0.49792509  0.99765199  1  -0.022594  3.5e-05  -0.16005  -0.206336  2.1e-05  3.960535  0.0
N  N104  1  0.68456577  0.77214170  0.22546080  1  -1.261293  0.001509  -0.228514  -0.058837  0.00049  3.775703  0.001
N  N105  1  0.31543656  0.22785891  0.77454044  1  -1.261405  0.001509  -0.228483  -0.058805  0.00049  3.775649  0.001
N  N106  1  0.62599907  0.92314707  0.12581385  1  -1.189731  0.060339  -0.350125  -0.341369  0.034817  3.526443  0.054
N  N107  1  0.37400122  0.07685354  0.87418683  1  -1.189751  0.060341  -0.350125  -0.341382  0.034818  3.526359  0.054
N  N108  1  0.33592651  0.84192372  0.47371185  1  -1.205131  0.066211  -0.32908  -0.236389  0.038034  3.587  0.06
N  N109  1  0.66407404  0.15807788  0.52628654  1  -1.205273  0.06621  -0.329098  -0.236436  0.038034  3.587086  0.06
N  N110  1  0.81614861  0.86291836  0.94716368  1  -1.264585  0.001239  -0.313506  -0.254785  0.00056  3.397674  0.001
N  N111  1  0.18384654  0.13707826  0.05283488  1  -1.264698  0.00124  -0.313547  -0.254793  0.00056  3.397668  0.001
O  O112  1  0.56756067  0.18310134  0.13257164  1  -1.141066  0.069099  -0.307154  -0.537802  0.038073  2.353888  0.064
O  O113  1  0.43243936  0.81689828  0.86742879  1  -1.141063  0.069097  -0.307126  -0.537769  0.038072  2.353918  0.064
O  O114  1  0.71860554  0.29729808  0.06304226  1  -1.196122  -6.1e-05  -0.326199  -0.568737  -0.001023  2.186613  0.0
O  O115  1  0.28139450  0.70270153  0.93695902  1  -1.196137  -6.1e-05  -0.326211  -0.568764  -0.001023  2.186604  0.0
O  O116  1  0.64993149  0.76225975  0.57159790  1  -1.175176  0.000321  -0.313275  -0.540338  -0.000805  2.174636  0.0
O  O117  1  0.35006752  0.23773986  0.42840226  1  -1.175175  0.000321  -0.313271  -0.540349  -0.000805  2.174607  0.0
O  O118  1  0.59074953  0.86348787  0.41777436  1  -1.151636  0.070186  -0.311466  -0.561312  0.038534  2.344836  0.065
O  O119  1  0.40925178  0.13651274  0.58222660  1  -1.151662  0.070186  -0.311477  -0.561328  0.038535  2.344709  0.065
O  O120  1  0.65847963  0.04640862  0.92524970  1  -1.24938  0.067345  -0.554402  -0.730889  0.037325  2.279925  0.059
O  O121  1  0.34151863  0.95359198  0.07474958  1  -1.249373  0.067345  -0.554399  -0.730874  0.037326  2.279905  0.059
O  O122  1  0.61885796  0.98866139  0.67512498  1  -1.277706  0.059455  -0.587087  -0.7788  0.032776  2.172763  0.052
O  O123  1  0.38114335  0.01133922  0.32487514  1  -1.277691  0.059455  -0.587063  -0.778791  0.032776  2.172788  0.052
