# generated using pymatgen
data_ZnH10C10(NO)4
_symmetry_space_group_name_H-M   'P 1'
_cell_length_a   9.11434454
_cell_length_b   9.20905958
_cell_length_c   9.34644394
_cell_angle_alpha   76.84841854
_cell_angle_beta   60.81813686
_cell_angle_gamma   62.18372328
_symmetry_Int_Tables_number   1
_chemical_formula_structural   ZnH10C10(NO)4
_chemical_formula_sum   'Zn2 H20 C20 N8 O8'
_cell_volume   605.77582093
_cell_formula_units_Z   2
loop_
 _symmetry_equiv_pos_site_id
 _symmetry_equiv_pos_as_xyz
  1  'x, y, z'
loop_
 _atom_site_type_symbol
 _atom_site_label
 _atom_site_symmetry_multiplicity
 _atom_site_fract_x
 _atom_site_fract_y
 _atom_site_fract_z
 _atom_site_occupancy
 _atom_site_hle17_bader_spin_density
 _atom_site_hle17_ddec_charge
 _atom_site_hle17_ddec_spin_density
 _atom_site_hle17_ddec_sum_bond_order
 _atom_site_hle17_magmom
 _atom_site_hse06_10hf_bader_spin_density
 _atom_site_hse06_10hf_ddec_charge
 _atom_site_hse06_10hf_ddec_spin_density
 _atom_site_hse06_10hf_ddec_sum_bond_order
 _atom_site_hse06_10hf_magmom
 _atom_site_hse06_bader_spin_density
 _atom_site_hse06_ddec_charge
 _atom_site_hse06_ddec_spin_density
 _atom_site_hse06_ddec_sum_bond_order
 _atom_site_hse06_magmom
 _atom_site_pbe_bader_spin_density
 _atom_site_pbe_cm5_charge
 _atom_site_pbe_ddec_charge
 _atom_site_pbe_ddec_spin_density
 _atom_site_pbe_ddec_sum_bond_order
 _atom_site_pbe_magmom
Zn  Zn0  1  0.84455829  0.68360409  0.78405821  1  0  1.002615  0  1.903553  0  0  0.809074  0  2.389316  0  0  0.854453  0  2.334423  0  0  0.701334  0.777514  0  2.42697  0
Zn  Zn1  1  0.62861688  0.18361789  0.21593542  1  0  1.002572  0  1.9035  0  0  0.808986  0  2.389323  0  0  0.854364  0  2.334435  0  0  0.701235  0.777437  0  2.426953  0
H  H2  1  0.60629309  0.00127181  0.99329357  1  0  0.112177  0  0.965961  0  0  0.119814  0  1.029203  0  0  0.122896  0  1.027444  0  0  0.11858  0.117519  0  1.030686  0
H  H3  1  0.59957178  0.50130306  0.00670196  1  0  0.112053  0  0.965951  0  0  0.119766  0  1.029143  0  0  0.122849  0  1.027381  0  0  0.118539  0.117472  0  1.030625  0
H  H4  1  0.26339268  0.23045872  0.00517574  1  0  0.116148  0  0.969815  0  0  0.123528  0  1.03397  0  0  0.126381  0  1.032653  0  0  0.120852  0.121425  0  1.03505  0
H  H5  1  0.26855460  0.73047485  0.99481581  1  0  0.116197  0  0.969732  0  0  0.123584  0  1.033871  0  0  0.126437  0  1.032557  0  0  0.120844  0.121481  0  1.034952  0
H  H6  1  0.48483799  0.83329232  0.69769750  1  0  0.10342  0  0.954887  0  0  0.112484  0  1.019086  0  0  0.115208  0  1.015775  0  0  0.134947  0.110402  0  1.021537  0
H  H7  1  0.18253695  0.33330947  0.30231195  1  0  0.103477  0  0.954899  0  0  0.112452  0  1.019192  0  0  0.115186  0  1.015872  0  0  0.134956  0.110369  0  1.021643  0
H  H8  1  0.17352851  0.07191030  0.72708742  1  0  0.121923  0  0.922979  0  0  0.13381  0  0.985528  0  0  0.136275  0  0.984157  0  0  0.120772  0.131985  0  0.986651  0
H  H9  1  0.90062157  0.57190205  0.27290822  1  0  0.121853  0  0.923034  0  0  0.13376  0  0.985557  0  0  0.136216  0  0.984197  0  0  0.120767  0.131934  0  0.986677  0
H  H10  1  0.10682366  0.25679603  0.81369729  1  0  0.135551  0  0.925279  0  0  0.144938  0  0.989551  0  0  0.148431  0  0.986695  0  0  0.122911  0.142416  0  0.991669  0
H  H11  1  0.92050693  0.75679796  0.18630201  1  0  0.135494  0  0.925345  0  0  0.144907  0  0.989582  0  0  0.148399  0  0.986727  0  0  0.122906  0.142384  0  0.991696  0
H  H12  1  0.25435658  0.67711756  0.67201140  1  0  0.098772  0  0.955864  0  0  0.106153  0  1.023195  0  0  0.10865  0  1.020624  0  0  0.13422  0.104322  0  1.025025  0
H  H13  1  0.92635721  0.17711702  0.32799104  1  0  0.098703  0  0.955833  0  0  0.106076  0  1.023173  0  0  0.108571  0  1.020604  0  0  0.134186  0.104243  0  1.025004  0
H  H14  1  0.90117899  0.85195055  0.44316642  1  0  0.113658  0  0.938596  0  0  0.123908  0  0.997658  0  0  0.126645  0  0.996293  0  0  0.121889  0.121889  0  0.998811  0
H  H15  1  0.34434225  0.35194225  0.55683630  1  0  0.113657  0  0.938557  0  0  0.123918  0  0.997603  0  0  0.126651  0  0.996242  0  0  0.121944  0.121898  0  0.998755  0
H  H16  1  0.22094302  0.89530301  0.23098494  1  0  0.122852  0  0.97465  0  0  0.127925  0  1.043176  0  0  0.130942  0  1.041808  0  0  0.12089  0.125699  0  1.044303  0
H  H17  1  0.45192623  0.39528856  0.76902207  1  0  0.122903  0  0.974586  0  0  0.127972  0  1.043105  0  0  0.130992  0  1.04174  0  0  0.120919  0.125745  0  1.044238  0
H  H18  1  0.55800944  0.73649816  0.24513985  1  0  0.128855  0  0.930515  0  0  0.138777  0  0.99303  0  0  0.142117  0  0.990576  0  0  0.118558  0.136344  0  0.994847  0
H  H19  1  0.80315462  0.23647762  0.75486491  1  0  0.128864  0  0.930503  0  0  0.138705  0  0.993025  0  0  0.142059  0  0.990579  0  0  0.118504  0.136272  0  0.994847  0
H  H20  1  0.53723738  0.71564703  0.44626528  1  0  0.129376  0  0.930881  0  0  0.141204  0  0.993729  0  0  0.144286  0  0.991201  0  0  0.121577  0.138927  0  0.995671  0
H  H21  1  0.98350205  0.21563215  0.55373583  1  0  0.129474  0  0.930914  0  0  0.141191  0  0.993784  0  0  0.144285  0  0.991265  0  0  0.121623  0.138918  0  0.995717  0
C  C22  1  0.52868965  0.00115913  0.93488680  1  0  -0.004486  0  3.72997  0  0  -0.036044  0  3.991115  0  0  -0.034817  0  4.011084  0  0  -0.005161  -0.036885  0  3.977764  0
C  C23  1  0.46356838  0.50118279  0.06510524  1  0  -0.004203  0  3.729764  0  0  -0.035845  0  3.990898  0  0  -0.03462  0  4.010869  0  0  -0.005054  -0.036688  0  3.977546  0
C  C24  1  0.35887565  0.11272016  0.94455544  1  0  -0.049607  0  3.676546  0  0  -0.090866  0  3.93901  0  0  -0.089618  0  3.958312  0  0  0.00447  -0.091688  0  3.926161  0
C  C25  1  0.30342282  0.61273528  0.05543533  1  0  -0.04986  0  3.676379  0  0  -0.091107  0  3.938863  0  0  -0.08986  0  3.958163  0  0  0.00442  -0.091932  0  3.926026  0
C  C26  1  0.47101205  0.90930360  0.78058528  1  0  0.16039  0  3.650577  0  0  0.099062  0  3.91372  0  0  0.112863  0  3.926072  0  0  0.143022  0.090215  0  3.905127  0
C  C27  1  0.25159522  0.40932230  0.21941676  1  0  0.160506  0  3.650714  0  0  0.099244  0  3.913849  0  0  0.113033  0  3.926199  0  0  0.143086  0.090393  0  3.905261  0
C  C28  1  0.15161140  0.12382925  0.83434551  1  0  -0.170906  0  3.610212  0  0  -0.230865  0  3.857842  0  0  -0.232234  0  3.864096  0  0  -0.055769  -0.229806  0  3.853602  0
C  C29  1  0.98594990  0.62383124  0.16565190  1  0  -0.170809  0  3.610197  0  0  -0.230775  0  3.85785  0  0  -0.232129  0  3.864086  0  0  -0.055749  -0.229705  0  3.853588  0
C  C30  1  0.99766484  0.09380729  0.99081926  1  0  0.66546  0  3.896162  0  0  0.621002  0  4.193163  0  0  0.653376  0  4.186767  0  0  0.204168  0.598982  0  4.19677  0
C  C31  1  0.98847716  0.59380172  0.00917872  1  0  0.665385  0  3.89621  0  0  0.620892  0  4.193268  0  0  0.653265  0  4.186875  0  0  0.204077  0.598871  0  4.196869  0
C  C32  1  0.19839234  0.73386661  0.58400488  1  0  0.159174  0  3.662701  0  0  0.097493  0  3.925407  0  0  0.111121  0  3.938466  0  0  0.141066  0.08867  0  3.916374  0
C  C33  1  0.78239123  0.23386206  0.41599864  1  0  0.159362  0  3.662706  0  0  0.097721  0  3.925411  0  0  0.111353  0  3.938464  0  0  0.141174  0.088901  0  3.916376  0
C  C34  1  0.02152932  0.82348736  0.45969870  1  0  0.00506  0  3.726398  0  0  -0.031514  0  3.997213  0  0  -0.029872  0  4.016402  0  0  -0.003376  -0.03268  0  3.984374  0
C  C35  1  0.48122188  0.32347867  0.54030643  1  0  0.005083  0  3.726309  0  0  -0.031481  0  3.9971  0  0  -0.029842  0  4.016299  0  0  -0.00344  -0.032648  0  3.984264  0
C  C36  1  0.17956870  0.84495946  0.35368992  1  0  -0.051322  0  3.656078  0  0  -0.094394  0  3.920712  0  0  -0.092842  0  3.939201  0  0  0.003151  -0.095407  0  3.908456  0
C  C37  1  0.53325371  0.34494547  0.64631603  1  0  -0.051265  0  3.656077  0  0  -0.094338  0  3.920744  0  0  -0.092794  0  3.939238  0  0  0.003127  -0.095351  0  3.908485  0
C  C38  1  0.46853845  0.79090793  0.36843306  1  0  -0.17747  0  3.615942  0  0  -0.235083  0  3.859038  0  0  -0.236611  0  3.865082  0  0  -0.056585  -0.233905  0  3.854968  0
C  C39  1  0.83697113  0.29089031  0.63157132  1  0  -0.177639  0  3.616258  0  0  -0.23494  0  3.859139  0  0  -0.236516  0  3.865216  0  0  -0.056618  -0.23376  0  3.855074  0
C  C40  1  0.45442127  0.96561450  0.35655883  1  0  0.66672  0  3.90121  0  0  0.619765  0  4.207497  0  0  0.652063  0  4.201495  0  0  0.203053  0.597818  0  4.210786  0
C  C41  1  0.81097391  0.46560299  0.64343932  1  0  0.666723  0  3.900993  0  0  0.619677  0  4.207347  0  0  0.65199  0  4.201349  0  0  0.202962  0.597715  0  4.210654  0
N  N42  1  0.59715276  0.87455374  0.83207296  1  0  -0.385225  0  3.31492  0  0  -0.303632  0  3.615582  0  0  -0.323066  0  3.627124  0  0  -0.362656  -0.29046  0  3.607464  0
N  N43  1  0.42921985  0.37457754  0.16792802  1  0  -0.385379  0  3.314728  0  0  -0.303758  0  3.61536  0  0  -0.323192  0  3.626905  0  0  -0.362671  -0.290587  0  3.607246  0
N  N44  1  0.32487938  0.05326992  0.84619619  1  0  -0.034596  0  3.622293  0  0  0.056332  0  3.840882  0  0  0.042099  0  3.868531  0  0  -0.238272  0.065709  0  3.822092  0
N  N45  1  0.17107007  0.55327977  0.15379839  1  0  -0.034489  0  3.622312  0  0  0.056423  0  3.840871  0  0  0.042191  0  3.868525  0  0  -0.238271  0.065796  0  3.822074  0
N  N46  1  0.03511468  0.75381136  0.60290668  1  0  -0.394977  0  3.342716  0  0  -0.313382  0  3.648294  0  0  -0.333075  0  3.659276  0  0  -0.366152  -0.300055  0  3.640628  0
N  N47  1  0.63801320  0.25380934  0.39709670  1  0  -0.395065  0  3.342662  0  0  -0.313472  0  3.648227  0  0  -0.333164  0  3.6592  0  0  -0.366243  -0.300147  0  3.640566  0
N  N48  1  0.28973359  0.78710920  0.43381939  1  0  -0.02933  0  3.616412  0  0  0.062626  0  3.832233  0  0  0.048667  0  3.85908  0  0  -0.239458  0.071805  0  3.813965  0
N  N49  1  0.72354974  0.28709182  0.56618840  1  0  -0.029523  0  3.616694  0  0  0.062349  0  3.832492  0  0  0.048406  0  3.859355  0  0  -0.239443  0.07153  0  3.814222  0
O  O50  1  0.03276043  0.00427747  0.10236656  1  0  -0.621974  0  1.947424  0  0  -0.574465  0  2.175226  0  0  -0.597298  0  2.167813  0  0  -0.317811  -0.558535  0  2.179875  0
O  O51  1  0.13512420  0.50428289  0.89762796  1  0  -0.622089  0  1.947501  0  0  -0.574556  0  2.175301  0  0  -0.597378  0  2.167866  0  0  -0.317838  -0.558624  0  2.179954  0
O  O52  1  0.83601834  0.17127720  0.99402082  1  0  -0.647597  0  2.046994  0  0  -0.569517  0  2.311011  0  0  -0.598062  0  2.296491  0  0  -0.332721  -0.549563  0  2.320288  0
O  O53  1  0.83002848  0.67126061  0.00598310  1  0  -0.647452  0  2.046896  0  0  -0.569403  0  2.310964  0  0  -0.597948  0  2.296442  0  0  -0.332659  -0.549452  0  2.320244  0
O  O54  1  0.30301333  0.08417552  0.42517288  1  0  -0.628574  0  1.925499  0  0  -0.587284  0  2.15244  0  0  -0.609828  0  2.144335  0  0  -0.326635  -0.571551  0  2.157514  0
O  O55  1  0.72815027  0.58416378  0.57484746  1  0  -0.628521  0  1.925358  0  0  -0.587264  0  2.15238  0  0  -0.609807  0  2.144264  0  0  -0.326591  -0.571533  0  2.157483  0
O  O56  1  0.61370382  0.97093890  0.26923287  1  0  -0.64608  0  2.072899  0  0  -0.570808  0  2.353167  0  0  -0.599117  0  2.336824  0  0  -0.330812  -0.551065  0  2.363767  0
O  O57  1  0.88296517  0.47092333  0.73073683  1  0  -0.64602  0  2.072829  0  0  -0.570722  0  2.353113  0  0  -0.599031  0  2.336765  0  0  -0.330742  -0.550971  0  2.363718  0
