# generated using pymatgen
data_TlH8C5NO4
_symmetry_space_group_name_H-M   'P 1'
_cell_length_a   5.35013024
_cell_length_b   9.56321242
_cell_length_c   16.02126453
_cell_angle_alpha   107.22149384
_cell_angle_beta   89.99946106
_cell_angle_gamma   89.99995203
_symmetry_Int_Tables_number   1
_chemical_formula_structural   TlH8C5NO4
_chemical_formula_sum   'Tl4 H32 C20 N4 O16'
_cell_volume   782.96873887
_cell_formula_units_Z   4
loop_
 _symmetry_equiv_pos_site_id
 _symmetry_equiv_pos_as_xyz
  1  'x, y, z'
loop_
 _atom_site_type_symbol
 _atom_site_label
 _atom_site_symmetry_multiplicity
 _atom_site_fract_x
 _atom_site_fract_y
 _atom_site_fract_z
 _atom_site_occupancy
 _atom_site_pbe_bader_spin_density
 _atom_site_pbe_cm5_charge
 _atom_site_pbe_ddec_charge
 _atom_site_pbe_ddec_spin_density
 _atom_site_pbe_ddec_sum_bond_order
 _atom_site_pbe_magmom
Tl  Tl0  1  0.96085242  0.68020585  0.08984415  1  0  0.410476  0.693846  0  1.086971  0
Tl  Tl1  1  0.46084847  0.31977353  0.91016304  1  0  0.410452  0.693847  0  1.086916  0
Tl  Tl2  1  0.44735608  0.81792529  0.91432211  1  0  0.398924  0.68987  0  1.133824  0
Tl  Tl3  1  0.94734546  0.18204102  0.08566470  1  0  0.398917  0.689924  0  1.133809  0
H  H4  1  0.52154182  0.40837513  0.52531306  1  0  0.306738  0.307334  0  0.969548  0
H  H5  1  0.02154868  0.59163659  0.47469069  1  0  0.306738  0.307358  0  0.969402  0
H  H6  1  0.45488774  0.55743466  0.61032118  1  0  0.302349  0.296477  0  0.962669  0
H  H7  1  0.95485829  0.44257537  0.38969148  1  0  0.302342  0.296429  0  0.962762  0
H  H8  1  0.36090722  0.38545797  0.61024806  1  0  0.305997  0.30578  0  0.943819  0
H  H9  1  0.86089572  0.61454235  0.38976068  1  0  0.306008  0.305815  0  0.943763  0
H  H10  1  0.41566322  0.14247550  0.48941511  1  0  0.312479  0.303482  0  0.938471  0
H  H11  1  0.91570529  0.85753683  0.51058123  1  0  0.312491  0.303509  0  0.938485  0
H  H12  1  0.31136770  0.98320399  0.42007304  1  0  0.296628  0.302235  0  0.972931  0
H  H13  1  0.81141335  0.01679970  0.57992835  1  0  0.296591  0.302142  0  0.973001  0
H  H14  1  0.25423658  0.14802352  0.40031905  1  0  0.307715  0.309778  0  0.935812  0
H  H15  1  0.75428557  0.85197916  0.59967548  1  0  0.307615  0.30968  0  0.936016  0
H  H16  1  0.88044008  0.50553304  0.61266396  1  0  0.115748  0.095244  0  1.012686  0
H  H17  1  0.38044977  0.49445742  0.38733485  1  0  0.115773  0.095439  0  1.012439  0
H  H18  1  0.65295379  0.59716342  0.75164988  1  0  0.094969  0.082208  0  1.019545  0
H  H19  1  0.15291349  0.40285363  0.24834752  1  0  0.094926  0.082125  0  1.019263  0
H  H20  1  0.58976690  0.41702246  0.75393699  1  0  0.092533  0.076151  0  1.023355  0
H  H21  1  0.08975579  0.58300779  0.24606983  1  0  0.092488  0.076092  0  1.023374  0
H  H22  1  0.04878934  0.37191484  0.76596746  1  0  0.099826  0.106839  0  1.02071  0
H  H23  1  0.54876712  0.62808921  0.23402797  1  0  0.099788  0.106783  0  1.02048  0
H  H24  1  0.11958552  0.54493317  0.75564166  1  0  0.099445  0.111199  0  0.990943  0
H  H25  1  0.61955815  0.45508718  0.24436705  1  0  0.099483  0.111213  0  0.990942  0
H  H26  1  0.75571612  0.01570508  0.40940752  1  0  0.120899  0.093701  0  0.968731  0
H  H27  1  0.25573680  0.98430198  0.59058903  1  0  0.120911  0.093631  0  0.968907  0
H  H28  1  0.80113190  0.97547850  0.25470390  1  0  0.093994  0.078788  0  1.021158  0
H  H29  1  0.30113563  0.02453837  0.74528862  1  0  0.094007  0.078766  0  1.021113  0
H  H30  1  0.54647260  0.87513020  0.27679668  1  0  0.09577  0.097149  0  1.011729  0
H  H31  1  0.04646155  0.12488809  0.72320003  1  0  0.095831  0.097205  0  1.011757  0
H  H32  1  0.24498491  0.05468171  0.24717712  1  0  0.096766  0.108529  0  1.013318  0
H  H33  1  0.74500873  0.94531223  0.75281525  1  0  0.096706  0.108419  0  1.013464  0
H  H34  1  0.49126295  0.16905776  0.23526146  1  0  0.094389  0.106742  0  1.000937  0
H  H35  1  0.99132057  0.83092273  0.76472773  1  0  0.094427  0.106849  0  1.001046  0
C  C36  1  0.85103585  0.27565767  0.60028708  1  0  0.202309  0.565126  0  4.197234  0
C  C37  1  0.35102926  0.72435253  0.39971658  1  0  0.202374  0.565211  0  4.197288  0
C  C38  1  0.75182813  0.43289762  0.63344543  1  0  -0.000293  0.022216  0  3.773745  0
C  C39  1  0.25181378  0.56711163  0.36655464  1  0  -0.000295  0.021924  0  3.774066  0
C  C40  1  0.72821227  0.48494616  0.73300412  1  0  -0.15666  -0.156571  0  3.937268  0
C  C41  1  0.22819714  0.51508172  0.26699995  1  0  -0.156596  -0.156402  0  3.937275  0
C  C42  1  0.97551776  0.48414310  0.77971381  1  0  -0.164133  -0.300773  0  3.947275  0
C  C43  1  0.47549457  0.51585052  0.22028525  1  0  -0.164111  -0.300726  0  3.947085  0
C  C44  1  0.96267545  0.54769082  0.87883311  1  0  0.210728  0.619081  0  4.186206  0
C  C45  1  0.46266647  0.45229077  0.12116573  1  0  0.210714  0.619395  0  4.186286  0
C  C46  1  0.74289758  0.22782179  0.38831685  1  0  0.203675  0.555516  0  4.219622  0
C  C47  1  0.24294289  0.77219841  0.61168706  1  0  0.203638  0.555627  0  4.219815  0
C  C48  1  0.63137180  0.07538102  0.37732905  1  0  0.005874  0.032403  0  3.778109  0
C  C49  1  0.13139746  0.92463605  0.62267217  1  0  0.005824  0.032415  0  3.778204  0
C  C50  1  0.60973805  0.98619417  0.28100740  1  0  -0.159764  -0.168087  0  3.935099  0
C  C51  1  0.10972386  0.01381965  0.71899206  1  0  -0.159786  -0.168073  0  3.935283  0
C  C52  1  0.44176546  0.05393593  0.22624750  1  0  -0.172093  -0.300866  0  3.92908  0
C  C53  1  0.94178869  0.94605227  0.77374821  1  0  -0.172132  -0.300949  0  3.929355  0
C  C54  1  0.44993472  0.97224714  0.12834531  1  0  0.193949  0.596183  0  4.25132  0
C  C55  1  0.94993492  0.02771145  0.87165760  1  0  0.193992  0.596142  0  4.251858  0
N  N56  1  0.50443840  0.44673484  0.59371092  1  0  -0.61259  -0.464685  0  3.426697  0
N  N57  1  0.00443050  0.55327253  0.40629023  1  0  -0.6126  -0.464704  0  3.427039  0
N  N58  1  0.38652849  0.08907366  0.42381872  1  0  -0.608609  -0.461636  0  3.402567  0
N  N59  1  0.88657040  0.91092885  0.57617722  1  0  -0.60843  -0.461353  0  3.402554  0
O  O60  1  0.17020628  0.56911601  0.91988564  1  0  -0.309126  -0.594604  0  2.254119  0
O  O61  1  0.67021156  0.43086047  0.08011636  1  0  -0.309065  -0.59468  0  2.254096  0
O  O62  1  0.75107816  0.57456796  0.91603250  1  0  -0.301168  -0.574071  0  2.239109  0
O  O63  1  0.25107593  0.42539308  0.08396899  1  0  -0.301255  -0.574308  0  2.239387  0
O  O64  1  0.68721227  0.17328251  0.58227478  1  0  -0.334282  -0.569738  0  2.16766  0
O  O65  1  0.18718979  0.82672025  0.41772122  1  0  -0.334329  -0.569834  0  2.167798  0
O  O66  1  0.08495553  0.25782552  0.59611498  1  0  -0.332773  -0.573381  0  2.151129  0
O  O67  1  0.58494870  0.74218720  0.40389497  1  0  -0.332777  -0.57332  0  2.151037  0
O  O68  1  0.46619664  0.83342194  0.10425573  1  0  -0.320841  -0.612748  0  2.197763  0
O  O69  1  0.96619184  0.16654209  0.89575247  1  0  -0.320936  -0.612825  0  2.197805  0
O  O70  1  0.43625178  0.05007414  0.07594234  1  0  -0.323559  -0.630194  0  2.233962  0
O  O71  1  0.93628956  0.94988667  0.92405976  1  0  -0.323456  -0.629968  0  2.234529  0
O  O72  1  0.96625883  0.23443674  0.36306777  1  0  -0.331077  -0.578459  0  2.162962  0
O  O73  1  0.46628852  0.76558536  0.63693202  1  0  -0.331184  -0.578673  0  2.163183  0
O  O74  1  0.60367786  0.33856907  0.42027907  1  0  -0.335173  -0.570117  0  2.207345  0
O  O75  1  0.10373013  0.66144913  0.57972244  1  0  -0.335118  -0.570074  0  2.207315  0
