# generated using pymatgen
data_ZnH22C24(NO)4
_symmetry_space_group_name_H-M   'P 1'
_cell_length_a   8.07083642
_cell_length_b   13.68403477
_cell_length_c   14.65011916
_cell_angle_alpha   115.42318755
_cell_angle_beta   102.14132207
_cell_angle_gamma   98.14845306
_symmetry_Int_Tables_number   1
_chemical_formula_structural   ZnH22C24(NO)4
_chemical_formula_sum   'Zn2 H44 C48 N8 O8'
_cell_volume   1378.40291668
_cell_formula_units_Z   2
loop_
 _symmetry_equiv_pos_site_id
 _symmetry_equiv_pos_as_xyz
  1  'x, y, z'
loop_
 _atom_site_type_symbol
 _atom_site_label
 _atom_site_symmetry_multiplicity
 _atom_site_fract_x
 _atom_site_fract_y
 _atom_site_fract_z
 _atom_site_occupancy
 _atom_site_pbe_bader_charge
 _atom_site_pbe_bader_spin_density
 _atom_site_pbe_cm5_charge
 _atom_site_pbe_ddec_charge
 _atom_site_pbe_ddec_spin_density
 _atom_site_pbe_ddec_sum_bond_order
 _atom_site_pbe_magmom
Zn  Zn0  1  0.30556338  0.30520567  0.60970083  1  1.258799  0  0.701177  0.790525  0  2.39364  0
Zn  Zn1  1  0.69443519  0.69479350  0.39029680  1  1.258775  0  0.70117  0.790498  0  2.393654  0
H  H2  1  0.78567531  0.08844295  0.80435545  1  0.043007  0  0.112824  0.098741  0  0.958567  0
H  H3  1  0.01938863  0.71614847  0.80529326  1  0.058346  0  0.112616  0.098757  0  0.958863  0
H  H4  1  0.21433018  0.91156044  0.19564802  1  0.042927  0  0.112815  0.098751  0  0.958561  0
H  H5  1  0.98061670  0.28385158  0.19471025  1  0.058384  0  0.112625  0.098746  0  0.958831  0
H  H6  1  0.86464104  0.15375733  0.73354139  1  0.150291  0  0.118784  0.122432  0  1.025049  0
H  H7  1  0.87012184  0.57955926  0.73386883  1  0.151236  0  0.119151  0.122236  0  1.025642  0
H  H8  1  0.13536033  0.84624529  0.26646336  1  0.150204  0  0.118781  0.122441  0  1.024979  0
H  H9  1  0.12988196  0.42044324  0.26613068  1  0.151233  0  0.11914  0.122222  0  1.025551  0
H  H10  1  0.90465670  0.29241735  0.39666659  1  0.025325  0  0.092444  0.09488  0  1.014853  0
H  H11  1  0.49214403  0.10498532  0.39771201  1  0.044036  0  0.092711  0.094997  0  1.014218  0
H  H12  1  0.09534405  0.70758687  0.60333393  1  0.025348  0  0.092418  0.094868  0  1.014713  0
H  H13  1  0.50785397  0.89500962  0.60228255  1  0.044018  0  0.09272  0.095021  0  1.01412  0
H  H14  1  0.68329939  0.25141311  0.66444967  1  0.203592  0  0.139405  0.11488  0  1.01646  0
H  H15  1  0.98312640  0.41313163  0.66489210  1  0.183197  0  0.140229  0.115727  0  1.016685  0
H  H16  1  0.31670602  0.74858431  0.33554736  1  0.203667  0  0.139431  0.114843  0  1.016503  0
H  H17  1  0.01687366  0.58687094  0.33510907  1  0.183194  0  0.14022  0.11572  0  1.01663  0
H  H18  1  0.54530990  0.42437313  0.41753312  1  0.066279  0  0.102706  0.126765  0  0.987496  0
H  H19  1  0.87216814  0.99326953  0.41784278  1  0.080542  0  0.102789  0.126205  0  0.988926  0
H  H20  1  0.45469155  0.57562686  0.58246515  1  0.066249  0  0.102714  0.126755  0  0.987537  0
H  H21  1  0.12783153  0.00673218  0.58215665  1  0.0807  0  0.102811  0.126235  0  0.989  0
H  H22  1  0.60215986  0.29693525  0.38053142  1  0.056723  0  0.095931  0.110632  0  0.992201  0
H  H23  1  0.77842424  0.08379038  0.38103318  1  0.039874  0  0.096244  0.111001  0  0.992359  0
H  H24  1  0.39784475  0.70306312  0.61947135  1  0.056729  0  0.095913  0.110646  0  0.992152  0
H  H25  1  0.22157833  0.91621216  0.61896757  1  0.039898  0  0.096232  0.110952  0  0.992367  0
H  H26  1  0.51254676  0.14984475  0.87162393  1  0.09905  0  0.119242  0.11535  0  1.008703  0
H  H27  1  0.36079116  0.72301709  0.87267472  1  0.134561  0  0.119727  0.115734  0  1.009338  0
H  H28  1  0.48745131  0.85015615  0.12837636  1  0.099089  0  0.119226  0.115323  0  1.008709  0
H  H29  1  0.63921630  0.27698206  0.12732663  1  0.134559  0  0.119711  0.115721  0  1.009415  0
H  H30  1  0.78625244  0.60868167  0.55743633  1  0.078876  0  0.096725  0.107229  0  1.027645  0
H  H31  1  0.77090067  0.94802355  0.55663965  1  0.095075  0  0.097316  0.107356  0  1.028244  0
H  H32  1  0.21374489  0.39131754  0.44256254  1  0.078951  0  0.096731  0.107188  0  1.027713  0
H  H33  1  0.22910202  0.05197641  0.44335739  1  0.095065  0  0.097309  0.107367  0  1.028204  0
H  H34  1  0.25161686  0.22379822  0.78077249  1  0.122439  0  0.116795  0.112447  0  1.031486  0
H  H35  1  0.53122574  0.55858728  0.78132268  1  0.147133  0  0.117007  0.112404  0  1.031555  0
H  H36  1  0.74838617  0.77620255  0.21922353  1  0.122383  0  0.116805  0.112464  0  1.031541  0
H  H37  1  0.46877120  0.44141107  0.21867444  1  0.147047  0  0.116973  0.112358  0  1.031561  0
H  H38  1  0.06563500  0.34196813  0.82869904  1  0.095443  0  0.10312  0.111942  0  1.025804  0
H  H39  1  0.76398547  0.48607016  0.82837279  1  0.092066  0  0.10329  0.111338  0  1.025908  0
H  H40  1  0.93436214  0.65803360  0.17130010  1  0.095509  0  0.103109  0.111874  0  1.02581  0
H  H41  1  0.23600391  0.51392827  0.17162419  1  0.092133  0  0.103257  0.111266  0  1.025999  0
H  H42  1  0.26134055  0.50185810  0.00039516  1  0.068766  0  0.102573  0.102484  0  0.988965  0
H  H43  1  0.73865702  0.49814453  0.99960780  1  0.068709  0  0.102615  0.102539  0  0.989009  0
H  H44  1  0.83849487  0.20006156  0.99954580  1  0.019967  0  0.091471  0.084741  0  1.028862  0
H  H45  1  0.16150554  0.79993596  0.00045344  1  0.019978  0  0.091465  0.084824  0  1.028849  0
C  C46  1  0.82225687  0.44300894  0.47417776  1  0.045041  0  -0.021583  0.124868  0  4.002261  0
C  C47  1  0.65188525  0.03120446  0.47426000  1  -0.057892  0  -0.018177  0.128052  0  3.99987  0
C  C48  1  0.17774805  0.55698433  0.52582034  1  0.045014  0  -0.02169  0.124755  0  4.002104  0
C  C49  1  0.34811153  0.96879643  0.52573878  1  -0.057867  0  -0.018197  0.128032  0  3.999896  0
C  C50  1  0.81303791  0.16722536  0.80036033  1  0.275026  0  -0.048224  -0.124094  0  3.886382  0
C  C51  1  0.98842628  0.63318599  0.80096824  1  0.272292  0  -0.048142  -0.124621  0  3.887887  0
C  C52  1  0.18696271  0.83277555  0.19964162  1  0.275151  0  -0.048214  -0.124074  0  3.886184  0
C  C53  1  0.01157358  0.36681320  0.19903091  1  0.272207  0  -0.048107  -0.124526  0  3.887746  0
C  C54  1  0.94511228  0.38392133  0.44141332  1  0.021252  0  -0.101874  -0.14726  0  4.006432  0
C  C55  1  0.49635121  0.05792605  0.44203479  1  -0.015032  0  -0.103789  -0.150305  0  4.007341  0
C  C56  1  0.05489154  0.61607530  0.55858527  1  0.021047  0  -0.101781  -0.147135  0  4.006141  0
C  C57  1  0.50364975  0.94208156  0.55796844  1  -0.015153  0  -0.103783  -0.150344  0  4.007351  0
C  C58  1  0.59964978  0.23623768  0.70856091  1  0.98722  0  0.156472  0.117432  0  3.876192  0
C  C59  1  0.11081205  0.47283745  0.70915341  1  0.982756  0  0.155121  0.115851  0  3.88081  0
C  C60  1  0.40035297  0.76376233  0.29143888  1  0.987214  0  0.156456  0.117443  0  3.876187  0
C  C61  1  0.88918692  0.52716260  0.29084665  1  0.98272  0  0.155099  0.11586  0  3.880539  0
C  C62  1  0.63408216  0.38257466  0.44644053  1  -0.076234  0  -0.162809  -0.345849  0  3.963217  0
C  C63  1  0.81241209  0.06405844  0.44680728  1  -0.060513  0  -0.165308  -0.347891  0  3.965217  0
C  C64  1  0.36591987  0.61742369  0.55355922  1  -0.076198  0  -0.162803  -0.345856  0  3.963116  0
C  C65  1  0.18758271  0.93594080  0.55319132  1  -0.060879  0  -0.165285  -0.347829  0  3.965235  0
C  C66  1  0.50771664  0.18294201  0.81623544  1  0.308207  0  -0.005447  -0.123091  0  3.95698  0
C  C67  1  0.31023456  0.63441687  0.81698947  1  0.271903  0  -0.007098  -0.12397  0  3.955697  0
C  C68  1  0.49228736  0.81705798  0.18376380  1  0.30832  0  -0.005399  -0.122985  0  3.956863  0
C  C69  1  0.68976159  0.36558244  0.18301408  1  0.271855  0  -0.00713  -0.124008  0  3.955872  0
C  C70  1  0.88000601  0.56017744  0.53331126  1  -0.171159  0  -0.09897  -0.142218  0  3.987998  0
C  C71  1  0.65320971  0.97272565  0.53280960  1  -0.088963  0  -0.099895  -0.141892  0  3.988523  0
C  C72  1  0.11999385  0.43981587  0.46668628  1  -0.171266  0  -0.098931  -0.142024  0  3.987935  0
C  C73  1  0.34679122  0.02727604  0.46718996  1  -0.089267  0  -0.09985  -0.141888  0  3.988416  0
C  C74  1  0.57608996  0.37368177  0.53655440  1  1.586601  0  0.202613  0.621887  0  4.172585  0
C  C75  1  0.96091568  0.16326170  0.53719154  1  1.591141  0  0.205869  0.629357  0  4.167944  0
C  C76  1  0.42391205  0.62631655  0.46344396  1  1.586432  0  0.202568  0.621858  0  4.172649  0
C  C77  1  0.03908007  0.83673672  0.46280889  1  1.591339  0  0.205925  0.629409  0  4.167971  0
C  C78  1  0.38076120  0.22009702  0.77169105  1  0.396558  0  -0.001507  -0.029498  0  4.00776  0
C  C79  1  0.39288847  0.55290696  0.77221377  1  0.377235  0  -0.001039  -0.028487  0  4.005817  0
C  C80  1  0.61924392  0.77990552  0.22831136  1  0.396589  0  -0.001508  -0.029574  0  4.007837  0
C  C81  1  0.60711209  0.44709388  0.22778474  1  0.377302  0  -0.000988  -0.028371  0  4.005826  0
C  C82  1  0.93886449  0.26114007  0.90324504  1  -0.034665  0  -0.017021  0.094587  0  3.996207  0
C  C83  1  0.96510486  0.64196838  0.90352193  1  -0.055054  0  -0.016881  0.095446  0  3.994589  0
C  C84  1  0.06113665  0.73885914  0.09675563  1  -0.034546  0  -0.017055  0.094575  0  3.99623  0
C  C85  1  0.03488546  0.35802923  0.09647689  1  -0.05628  0  -0.016891  0.095378  0  3.994647  0
C  C86  1  0.05940322  0.34615136  0.90395926  1  -0.05997  0  -0.089964  -0.139334  0  3.958935  0
C  C87  1  0.84510135  0.55743062  0.90376922  1  -0.074932  0  -0.088578  -0.136959  0  3.957068  0
C  C88  1  0.94059213  0.65385207  0.09604103  1  -0.060048  0  -0.089937  -0.139179  0  3.958833  0
C  C89  1  0.15489190  0.44256785  0.09623231  1  -0.073655  0  -0.088605  -0.136885  0  3.956953  0
C  C90  1  0.16820216  0.43561047  0.00021374  1  -0.024458  0  -0.088535  -0.062928  0  4.018198  0
C  C91  1  0.83179013  0.56438879  0.99978458  1  -0.024382  0  -0.088636  -0.063038  0  4.018269  0
C  C92  1  0.93019797  0.26724970  0.99974645  1  0.002096  0  -0.102638  -0.209167  0  4.006453  0
C  C93  1  0.06979667  0.73275207  0.00025380  1  0.002079  0  -0.102635  -0.209379  0  4.00649  0
N  N94  1  0.64446714  0.19334445  0.77503483  1  -1.226139  0  -0.237888  0.052169  0  3.767871  0
N  N95  1  0.13218181  0.58226796  0.77581548  1  -1.217712  0  -0.236851  0.05326  0  3.768778  0
N  N96  1  0.35553472  0.80665642  0.22496588  1  -1.226271  0  -0.237875  0.052138  0  3.767869  0
N  N97  1  0.86781683  0.41773129  0.22418628  1  -1.21765  0  -0.236818  0.053202  0  3.768746  0
N  N98  1  0.43999824  0.25309458  0.70475460  1  -1.256392  0  -0.356923  -0.293464  0  3.605922  0
N  N99  1  0.26680731  0.45258849  0.70516250  1  -1.235469  0  -0.356577  -0.294432  0  3.607939  0
N  N100  1  0.56000650  0.74690711  0.29524676  1  -1.25644  0  -0.356947  -0.293403  0  3.605864  0
N  N101  1  0.73318942  0.54741234  0.29483352  1  -1.235446  0  -0.356587  -0.29448  0  3.607827  0
O  O102  1  0.67300111  0.42475493  0.63079941  1  -1.210236  0  -0.328574  -0.575097  0  2.155981  0
O  O103  1  0.95864894  0.20618454  0.63144211  1  -1.206536  0  -0.329687  -0.57862  0  2.156644  0
O  O104  1  0.32699750  0.57524428  0.36920029  1  -1.210081  0  -0.328541  -0.575067  0  2.156065  0
O  O105  1  0.04134128  0.79380981  0.36856021  1  -1.206467  0  -0.329663  -0.578612  0  2.156761  0
O  O106  1  0.41833547  0.31079808  0.50430444  1  -1.179827  0  -0.339898  -0.560037  0  2.332156  0
O  O107  1  0.08603863  0.19424510  0.50503915  1  -1.180451  0  -0.340448  -0.562512  0  2.33271  0
O  O108  1  0.58166795  0.68919767  0.49569172  1  -1.179815  0  -0.339868  -0.560031  0  2.332179  0
O  O109  1  0.91396173  0.80576096  0.49497024  1  -1.180627  0  -0.340541  -0.56257  0  2.332597  0
