# generated using pymatgen
data_Al3H23C41SO18
_symmetry_space_group_name_H-M   'P 1'
_cell_length_a   12.12248461
_cell_length_b   12.33280156
_cell_length_c   28.00396334
_cell_angle_alpha   89.24196646
_cell_angle_beta   89.68311336
_cell_angle_gamma   118.97957606
_symmetry_Int_Tables_number   1
_chemical_formula_structural   Al3H23C41SO18
_chemical_formula_sum   'Al6 H46 C82 S2 O36'
_cell_volume   3661.84066955
_cell_formula_units_Z   2
loop_
 _symmetry_equiv_pos_site_id
 _symmetry_equiv_pos_as_xyz
  1  'x, y, z'
loop_
 _atom_site_type_symbol
 _atom_site_label
 _atom_site_symmetry_multiplicity
 _atom_site_fract_x
 _atom_site_fract_y
 _atom_site_fract_z
 _atom_site_occupancy
 _atom_site_pbe_bader_charge
 _atom_site_pbe_bader_spin_density
 _atom_site_pbe_cm5_charge
 _atom_site_pbe_ddec_charge
 _atom_site_pbe_ddec_spin_density
 _atom_site_pbe_ddec_sum_bond_order
 _atom_site_pbe_magmom
Al  Al0  1  0.80461208  0.40048348  0.50574341  1  2.49254  0  0.394576  1.685989  0  2.561452  0
Al  Al1  1  0.06704050  0.65637713  0.50305989  1  2.475453  0  0.507485  1.663026  0  2.504566  0
Al  Al2  1  0.07612085  0.41699144  0.50294002  1  2.479319  0  0.509176  1.65885  0  2.508805  0
Al  Al3  1  0.84288248  0.91061329  0.01540593  1  2.491288  0  0.399659  1.686188  0  2.559693  0
Al  Al4  1  0.58693839  0.92649866  0.01885823  1  2.484981  0  0.508842  1.667626  0  2.498675  0
Al  Al5  1  0.56803989  0.67339222  0.01917903  1  2.484562  0  0.505241  1.662884  0  2.5005  0
H  H6  1  0.48242362  0.83879113  0.70093861  1  0.111794  0  0.119514  0.126072  0  0.972972  0
H  H7  1  0.63224489  0.46287142  0.80049753  1  0.076942  0  0.114527  0.123303  0  0.978405  0
H  H8  1  0.97739694  0.80939813  0.81549136  1  0.105933  0  0.121806  0.145171  0  0.967976  0
H  H9  1  0.24379058  0.79787986  0.38282835  1  0.15648  0  0.119628  0.132307  0  1.004811  0
H  H10  1  0.23664543  0.49575214  0.22245873  1  0.080209  0  0.104276  0.102915  0  1.000977  0
H  H11  1  0.28236705  0.51865359  0.13505733  1  0.073765  0  0.116011  0.119062  0  0.976964  0
H  H12  1  0.48770158  0.88745162  0.23845390  1  0.077857  0  0.104686  0.108857  0  1.02538  0
H  H13  1  0.51895740  0.91127765  0.15099798  1  0.131565  0  0.108504  0.106748  0  1.035739  0
H  H14  1  0.35813223  0.51865347  0.29579038  1  0.048807  0  0.109702  0.110504  0  0.993471  0
H  H15  1  0.52384072  0.87548331  0.78732945  1  0.102264  0  0.113349  0.117587  0  0.997879  0
H  H16  1  0.30422129  0.48313682  0.38259127  1  0.089381  0  0.119062  0.121367  0  0.978148  0
H  H17  1  0.07178156  0.28788837  0.37015032  1  0.061872  0  0.104734  0.105506  0  1.010878  0
H  H18  1  0.67852873  0.19569109  0.22497708  1  0.059159  0  0.105406  0.107323  0  0.999203  0
H  H19  1  0.65087809  0.14425966  0.13877805  1  0.100065  0  0.113283  0.116017  0  0.984603  0
H  H20  1  0.03888346  0.23089913  0.28446930  1  0.072128  0  0.098702  0.096621  0  1.012652  0
H  H21  1  0.95808722  0.07551184  0.23325318  1  0.055221  0  0.098848  0.095544  0  1.016839  0
H  H22  1  0.93187851  0.02838533  0.14648249  1  0.107868  0  0.11505  0.122414  0  0.996742  0
H  H23  1  0.64384426  0.11994855  0.30114650  1  0.100578  0  0.102185  0.111618  0  1.018057  0
H  H24  1  0.68093611  0.18565355  0.38582891  1  0.100957  0  0.114858  0.120475  0  0.982895  0
H  H25  1  0.73024111  0.44239914  0.37719350  1  0.08696  0  0.115009  0.119229  0  0.995736  0
H  H26  1  0.18237060  0.53350146  0.81960034  1  0.161582  0  0.124114  0.14424  0  0.97543  0
H  H27  1  0.00101880  0.78720654  0.22034306  1  0.106748  0  0.098969  0.116665  0  1.074291  0
H  H28  1  0.69670301  0.46376745  0.29052040  1  0.074239  0  0.106635  0.107844  0  0.996218  0
H  H29  1  0.59992119  0.55416199  0.24007182  1  0.06106  0  0.094406  0.094989  0  1.023133  0
H  H30  1  0.57122530  0.56813582  0.15251685  1  0.092102  0  0.106519  0.110312  0  1.006416  0
H  H31  1  0.94565079  0.85711128  0.29696741  1  0.083686  0  0.106263  0.110832  0  0.997693  0
H  H32  1  0.98425734  0.83344496  0.38352877  1  0.105667  0  0.114128  0.122611  0  0.978664  0
H  H33  1  0.95523442  0.06906489  0.71255643  1  0.120629  0  0.117306  0.126721  0  0.972061  0
H  H34  1  0.92810331  0.04331235  0.80097342  1  0.086241  0  0.113942  0.117879  0  0.978055  0
H  H35  1  0.66733918  0.18719848  0.79727275  1  0.093679  0  0.110377  0.11323  0  0.984489  0
H  H36  1  0.69298322  0.21127305  0.70848143  1  0.086609  0  0.111536  0.116926  0  0.981705  0
H  H37  1  0.67451782  0.47125220  0.71257601  1  0.094837  0  0.117314  0.125494  0  0.970744  0
H  H38  1  0.09088596  0.72750145  0.68609780  1  0.045754  0  0.091379  0.048677  0  1.045263  0
H  H39  1  0.18536640  0.80035736  0.73692386  1  0.034859  0  0.087698  0.044755  0  1.003188  0
H  H40  1  0.26944686  0.00774806  0.69424291  1  0.041302  0  0.093556  0.128494  0  0.987965  0
H  H41  1  0.29807779  0.90247190  0.66016345  1  0.038593  0  0.093518  0.127425  0  1.006656  0
H  H42  1  0.17338385  0.93185342  0.64414677  1  0.058609  0  0.100561  0.141688  0  0.978874  0
H  H43  1  0.10536204  0.83615183  0.32216725  1  0.610979  0  0.312947  0.353677  0  0.955968  0
H  H44  1  0.14832309  0.83796103  0.16247091  1  0.079264  0  0.098229  0.07104  0  0.993587  0
H  H45  1  0.10577472  0.95708844  0.16644274  1  0.034444  0  0.093487  0.047758  0  0.978921  0
H  H46  1  0.14501776  0.99422107  0.07576680  1  0.087999  0  0.097621  0.160686  0  1.009142  0
H  H47  1  0.28476187  0.02728221  0.10876118  1  0.038158  0  0.086949  0.114114  0  1.007092  0
H  H48  1  0.20374053  0.88765681  0.07621587  1  0.035324  0  0.091223  0.127309  0  0.991454  0
H  H49  1  0.95349051  0.50215560  0.72036164  1  0.621512  0  0.334398  0.377557  0  0.891132  0
H  H50  1  0.59649566  0.34047196  0.48458109  1  0.572188  0  0.288155  0.374906  0  0.935688  0
H  H51  1  0.04726354  0.02400697  0.98391236  1  0.589778  0  0.296593  0.379734  0  0.927508  0
C  C52  1  0.89117309  0.61474130  0.57326902  1  1.661095  0  0.276988  0.704102  0  4.170418  0
C  C53  1  0.24873788  0.60094578  0.79393789  1  -0.015929  0  -0.064622  -0.121875  0  3.915812  0
C  C54  1  0.22657720  0.58085552  0.74544995  1  -0.16071  0  -0.008863  -0.139725  0  3.957222  0
C  C55  1  0.31056968  0.66524279  0.71052414  1  0.082936  0  0.016229  0.118604  0  4.083316  0
C  C56  1  0.35662797  0.70696786  0.80987239  1  0.084727  0  0.012451  0.135891  0  4.090786  0
C  C57  1  0.37901640  0.72229859  0.85956465  1  -0.493683  0  -0.005291  -0.011162  0  4.035573  0
C  C58  1  0.28719798  0.64747729  0.66097605  1  -0.185358  0  -0.004469  -0.007078  0  4.039505  0
C  C59  1  0.39578993  0.72838427  0.90254344  1  0.258507  0  -0.021682  -0.171916  0  3.900593  0
C  C60  1  0.86924374  0.19912374  0.61356004  1  0.064292  0  -0.031612  -0.185359  0  3.926346  0
C  C61  1  0.89052891  0.09223963  0.73119502  1  -0.03579  0  -0.069246  -0.104863  0  3.933138  0
C  C62  1  0.87586174  0.07855372  0.78038434  1  -0.002249  0  -0.070063  -0.102301  0  3.927442  0
C  C63  1  0.21295248  0.60763683  0.57108457  1  1.664254  0  0.287867  0.718904  0  4.145675  0
C  C64  1  0.72835146  0.15971700  0.77831393  1  -0.056818  0  -0.078079  -0.116815  0  3.966414  0
C  C65  1  0.74246727  0.17293472  0.72908921  1  -0.009228  0  -0.079701  -0.125445  0  3.964932  0
C  C66  1  0.82512945  0.14105454  0.70490763  1  0.087636  0  0.004535  0.120405  0  4.111617  0
C  C67  1  0.79591998  0.11348801  0.80474637  1  0.127565  0  0.00675  0.129265  0  4.100534  0
C  C68  1  0.78525501  0.10285045  0.85508518  1  -0.351407  0  -0.015334  -0.023687  0  4.070577  0
C  C69  1  0.84748546  0.16723576  0.65544794  1  -0.326042  0  -0.01023  -0.009619  0  4.062929  0
C  C70  1  0.77744880  0.09163779  0.89848700  1  0.056542  0  -0.036312  -0.192224  0  3.940917  0
C  C71  1  0.87554312  0.64296932  0.62153779  1  0.27435  0  -0.026327  -0.173855  0  3.907444  0
C  C72  1  0.74046330  0.54352678  0.73582301  1  -0.038425  0  -0.07705  -0.107667  0  3.983278  0
C  C73  1  0.71675842  0.53904124  0.78445130  1  0.005511  0  -0.082469  -0.139409  0  3.972271  0
C  C74  1  0.89616044  0.26203010  0.56812538  1  1.661211  0  0.283749  0.711569  0  4.155989  0
C  C75  1  0.91115293  0.73493195  0.79312742  1  -0.00343  0  -0.082117  -0.229268  0  3.907762  0
C  C76  1  0.93563137  0.73971027  0.74434342  1  0.521115  0  0.092704  0.215657  0  4.072298  0
C  C77  1  0.84867876  0.64392917  0.71464450  1  0.055512  0  -0.009887  0.003479  0  4.119515  0
C  C78  1  0.80139171  0.63588729  0.81355493  1  0.098476  0  0.008582  0.156233  0  4.119047  0
C  C79  1  0.77665304  0.63859858  0.86275148  1  -0.029406  0  -0.018727  -0.033309  0  4.072022  0
C  C80  1  0.86601811  0.64779660  0.66469876  1  -0.527971  0  -0.018636  -0.011618  0  4.109495  0
C  C81  1  0.75960548  0.65163212  0.90468861  1  -0.186096  0  -0.028615  -0.17555  0  3.934154  0
C  C82  1  0.27292357  0.64011125  0.38825270  1  -0.05907  0  -0.009746  -0.042205  0  3.971496  0
C  C83  1  0.27111249  0.73847613  0.36356286  1  -0.005231  0  -0.070353  -0.089331  0  3.952926  0
C  C84  1  0.29706438  0.75564105  0.31469907  1  -0.156649  0  -0.011838  -0.14055  0  3.919558  0
C  C85  1  0.88705348  0.61656627  0.43541952  1  1.55043  0  0.269656  0.638876  0  4.101026  0
C  C86  1  0.32918957  0.67666788  0.28875628  1  0.059103  0  0.018555  0.091626  0  3.932636  0
C  C87  1  0.33230731  0.57978867  0.31483541  1  -0.010539  0  -0.077938  -0.12473  0  3.951291  0
C  C88  1  0.30394177  0.56046520  0.36345988  1  0.013671  0  -0.063871  -0.059753  0  3.949115  0
C  C89  1  0.30121460  0.58663347  0.20700223  1  -0.090916  0  -0.082767  -0.124258  0  3.961957  0
C  C90  1  0.32445434  0.59930283  0.15790954  1  -0.009697  0  -0.07159  -0.076388  0  3.960342  0
C  C91  1  0.45749263  0.82048424  0.16693080  1  -0.07525  0  -0.071444  -0.065539  0  3.938163  0
C  C92  1  0.43893489  0.80671975  0.21606136  1  0.065531  0  -0.085481  -0.121539  0  3.963574  0
C  C93  1  0.35702953  0.69036511  0.23675785  1  -0.058939  0  -0.003207  0.065003  0  3.995996  0
C  C94  1  0.40030211  0.71721311  0.13741942  1  0.034862  0  -0.007629  -0.042715  0  3.966463  0
C  C95  1  0.87844271  0.24055670  0.38299175  1  -0.078871  0  -0.018224  -0.051363  0  3.988763  0
C  C96  1  0.22530975  0.61385404  0.43844254  1  1.548135  0  0.280424  0.646006  0  4.085064  0
C  C97  1  0.97858402  0.25072389  0.35455769  1  -0.025108  0  -0.084918  -0.087923  0  3.998836  0
C  C98  1  0.95927436  0.21779920  0.30682943  1  -0.049995  0  -0.093092  -0.139718  0  3.994526  0
C  C99  1  0.83930028  0.17187671  0.28640954  1  -0.02388  0  -0.001276  0.077651  0  3.993979  0
C  C100  1  0.73855556  0.15896265  0.31566832  1  -0.046749  0  -0.087369  -0.135596  0  3.962197  0
C  C101  1  0.75817164  0.19395749  0.36318489  1  -0.002475  0  -0.076342  -0.07829  0  3.969637  0
C  C102  1  0.73382891  0.15823042  0.20811821  1  -0.055283  0  -0.085153  -0.128316  0  3.96554  0
C  C103  1  0.71870450  0.13064403  0.15980257  1  -0.023262  0  -0.077138  -0.082002  0  3.984183  0
C  C104  1  0.87821431  0.06633915  0.16422806  1  -0.037978  0  -0.075695  -0.077402  0  3.965721  0
C  C105  1  0.89263203  0.09351709  0.21249426  1  -0.039083  0  -0.091278  -0.138208  0  3.992756  0
C  C106  1  0.82120931  0.14038287  0.23536017  1  -0.003593  0  -0.002409  0.07384  0  3.995251  0
C  C107  1  0.90071341  0.28760205  0.43251879  1  1.56152  0  0.267309  0.637139  0  4.097885  0
C  C108  1  0.79085311  0.08455029  0.13747370  1  -0.025201  0  -0.015285  -0.052331  0  3.985302  0
C  C109  1  0.86063351  0.63613236  0.38520503  1  -0.051166  0  -0.016307  -0.04713  0  3.985564  0
C  C110  1  0.77692046  0.53279443  0.35921459  1  0.024997  0  -0.072189  -0.072787  0  3.957707  0
C  C111  1  0.75815250  0.54536620  0.31096586  1  -0.065818  0  -0.083192  -0.126381  0  3.9609  0
C  C112  1  0.82107596  0.66133859  0.28745841  1  0.057142  0  0.006014  0.095856  0  3.965854  0
C  C113  1  0.90185970  0.76559914  0.31427350  1  -0.158163  0  -0.093405  -0.157455  0  3.985688  0
C  C114  1  0.92216855  0.75311050  0.36256245  1  -0.051323  0  -0.083805  -0.104401  0  3.997607  0
C  C115  1  0.90649036  0.74203723  0.20570547  1  -0.038151  0  -0.113807  -0.28725  0  3.961163  0
C  C116  1  0.89086320  0.74727765  0.15619573  1  0.589694  0  0.105435  0.270338  0  4.045517  0
C  C117  1  0.66502903  0.61424861  0.16783294  1  0.017195  0  -0.083145  -0.061199  0  4.015601  0
C  C118  1  0.26417887  0.63378759  0.61847784  1  0.006425  0  -0.012634  -0.151101  0  3.855621  0
C  C119  1  0.68119288  0.60677333  0.21655187  1  -0.086766  0  -0.110554  -0.177947  0  4.033686  0
C  C120  1  0.80262806  0.67149009  0.23585223  1  -0.007631  0  -0.005812  0.099013  0  4.030949  0
C  C121  1  0.76750486  0.68391537  0.13687611  1  -0.041594  0  -0.025775  -0.163675  0  3.941642  0
C  C122  1  0.76108275  0.05273772  0.94777947  1  1.67365  0  0.275766  0.713033  0  4.164881  0
C  C123  1  0.43783234  0.74149376  0.95120849  1  1.656296  0  0.286833  0.721194  0  4.150506  0
C  C124  1  0.74184000  0.69227021  0.95052759  1  1.636883  0  0.278732  0.709853  0  4.160258  0
C  C125  1  0.76980302  0.04445443  0.08699365  1  1.551125  0  0.270104  0.630899  0  4.102406  0
C  C126  1  0.43358544  0.73687881  0.08570059  1  1.539056  0  0.28243  0.649308  0  4.079104  0
C  C127  1  0.74244381  0.69989718  0.08630500  1  1.548339  0  0.271893  0.653033  0  4.085431  0
C  C128  1  0.41735742  0.77183055  0.72709024  1  0.004024  0  -0.066183  -0.10819  0  3.925124  0
C  C129  1  0.44029666  0.79264035  0.77559638  1  0.004622  0  -0.064091  -0.098231  0  3.910683  0
C  C130  1  0.13615854  0.81387450  0.70630379  1  0.385892  0  -0.073064  0.080315  0  3.918961  0
C  C131  1  0.22435185  0.92092028  0.67445387  1  -0.04409  0  -0.242438  -0.393296  0  3.965946  0
C  C132  1  0.11206559  0.89052266  0.14206547  1  0.368977  0  -0.064126  0.08731  0  3.895192  0
C  C133  1  0.19126406  0.95430139  0.09807049  1  -0.061986  0  -0.247174  -0.401411  0  3.952502  0
S  S134  1  0.27698586  0.87478864  0.28544487  1  3.079356  0  0.544191  1.162044  0  5.992024  0
S  S135  1  0.09029459  0.44073814  0.72977303  1  3.065263  0  0.543927  1.151733  0  5.995733  0
O  O136  1  0.81542498  0.29042037  0.55291320  1  -1.215041  0  -0.198682  -0.534805  0  2.288718  0
O  O137  1  0.19684392  0.69075332  0.45764276  1  -1.259824  0  -0.230192  -0.591048  0  2.309138  0
O  O138  1  0.20764062  0.51247578  0.45820653  1  -1.261133  0  -0.230819  -0.589237  0  2.289832  0
O  O139  1  0.00629659  0.31051530  0.45188162  1  -1.278423  0  -0.251611  -0.620974  0  2.289324  0
O  O140  1  0.98559092  0.49339710  0.50358561  1  -1.608359  0  -0.391568  -1.269565  0  2.293052  0
O  O141  1  0.82259698  0.80114763  0.96126794  1  -1.207433  0  -0.206228  -0.554893  0  2.300063  0
O  O142  1  0.84088491  0.02583493  0.96514987  1  -1.219538  0  -0.212122  -0.568159  0  2.292593  0
O  O143  1  0.66237361  0.04272060  0.96974859  1  -1.258521  0  -0.243531  -0.605643  0  2.222004  0
O  O144  1  0.45887270  0.84029009  0.97255676  1  -1.239306  0  -0.224032  -0.581903  0  2.245605  0
O  O145  1  0.45669822  0.65504357  0.96794035  1  -1.229451  0  -0.223695  -0.579712  0  2.240548  0
O  O146  1  0.64380257  0.61727800  0.97554461  1  -1.250021  0  -0.242088  -0.605363  0  2.227585  0
O  O147  1  0.81488368  0.50734184  0.55955111  1  -1.206276  0  -0.200847  -0.541119  0  2.291911  0
O  O148  1  0.82630591  0.78707842  0.06135261  1  -1.252225  0  -0.210856  -0.561109  0  2.395049  0
O  O149  1  0.84302598  0.01011715  0.06887128  1  -1.244049  0  -0.21075  -0.556737  0  2.3672  0
O  O150  1  0.67426096  0.04208209  0.06556919  1  -1.275385  0  -0.251034  -0.619108  0  2.274922  0
O  O151  1  0.46628328  0.84465246  0.06799879  1  -1.264702  0  -0.231826  -0.598486  0  2.311257  0
O  O152  1  0.43622722  0.64918978  0.06266552  1  -1.262729  0  -0.234667  -0.59452  0  2.276692  0
O  O153  1  0.63008316  0.62552277  0.07094131  1  -1.281318  0  -0.255687  -0.627925  0  2.276364  0
O  O154  1  0.66262545  0.83597742  0.01704084  1  -1.612698  0  -0.392657  -1.271347  0  2.297242  0
O  O155  1  0.98492058  0.69941828  0.54869899  1  -1.259783  0  -0.246744  -0.613571  0  2.224321  0
O  O156  1  0.18754802  0.68766296  0.55201521  1  -1.22877  0  -0.224932  -0.584724  0  2.242607  0
O  O157  1  0.19128782  0.50490129  0.55305475  1  -1.241214  0  -0.218846  -0.572483  0  2.240208  0
O  O158  1  0.00215502  0.28896238  0.54731397  1  -1.247527  0  -0.240464  -0.603663  0  2.221101  0
O  O159  1  0.81720039  0.30641973  0.45181729  1  -1.242879  0  -0.218434  -0.576174  0  2.367923  0
O  O160  1  0.80748365  0.51886493  0.45689915  1  -1.25888  0  -0.219668  -0.582719  0  2.369547  0
O  O161  1  0.99311084  0.69844325  0.45289597  1  -1.272508  0  -0.248748  -0.610661  0  2.261955  0
O  O162  1  0.03985373  0.84013699  0.72565760  1  -1.075556  0  -0.200849  -0.233957  0  2.485439  0
O  O163  1  0.39506969  0.98813522  0.28255799  1  -1.299764  0  -0.309033  -0.522262  0  2.126068  0
O  O164  1  0.20152338  0.82313015  0.24370531  1  -1.306158  0  -0.297633  -0.538203  0  2.221387  0
O  O165  1  0.19493567  0.90161469  0.32366582  1  -1.199288  0  -0.358558  -0.521941  0  2.220606  0
O  O166  1  0.98712101  0.80721541  0.12524082  1  -1.063171  0  -0.157758  -0.163539  0  2.577441  0
O  O167  1  0.12700775  0.37573427  0.69694266  1  -1.262662  0  -0.287718  -0.488489  0  2.128895  0
O  O168  1  0.02120514  0.38410802  0.77327198  1  -1.303273  0  -0.303181  -0.533189  0  2.179955  0
O  O169  1  0.00949764  0.48822413  0.69881976  1  -1.181852  0  -0.350464  -0.529544  0  2.217114  0
O  O170  1  0.63941898  0.31754921  0.50829555  1  -1.363917  0  -0.578881  -0.991149  0  1.799565  0
O  O171  1  0.00847219  0.98233300  0.01377094  1  -1.369073  0  -0.557188  -0.977671  0  1.847858  0
