# generated using pymatgen
data_CdH9C5Br2NO3
_symmetry_space_group_name_H-M   'P 1'
_cell_length_a   7.49400127
_cell_length_b   7.93437857
_cell_length_c   7.92610653
_cell_angle_alpha   77.31129900
_cell_angle_beta   89.99910282
_cell_angle_gamma   90.00133244
_symmetry_Int_Tables_number   1
_chemical_formula_structural   CdH9C5Br2NO3
_chemical_formula_sum   'Cd2 H18 C10 Br4 N2 O6'
_cell_volume   459.77836316
_cell_formula_units_Z   2
loop_
 _symmetry_equiv_pos_site_id
 _symmetry_equiv_pos_as_xyz
  1  'x, y, z'
loop_
 _atom_site_type_symbol
 _atom_site_label
 _atom_site_symmetry_multiplicity
 _atom_site_fract_x
 _atom_site_fract_y
 _atom_site_fract_z
 _atom_site_occupancy
 _atom_site_pbe_bader_charge
 _atom_site_pbe_bader_spin_density
 _atom_site_pbe_cm5_charge
 _atom_site_pbe_ddec_charge
 _atom_site_pbe_ddec_spin_density
 _atom_site_pbe_ddec_sum_bond_order
 _atom_site_pbe_magmom
Cd  Cd0  1  0.04979648  0.49758871  0.99716633  1  1.088364  0  0.526851  0.742626  0  2.465446  0
Cd  Cd1  1  0.54980148  0.50240761  0.00283114  1  1.088531  0  0.526833  0.742561  0  2.465508  0
H  H2  1  0.79891298  0.91473875  0.91060435  1  0.132407  0  0.112418  0.098075  0  0.999896  0
H  H3  1  0.29896619  0.08525700  0.08939503  1  0.131956  0  0.112371  0.098104  0  0.999901  0
H  H4  1  0.00817318  0.96239737  0.68405589  1  0.087132  0  0.093909  0.116969  0  1.008503  0
H  H5  1  0.50820088  0.03760031  0.31595970  1  0.08671  0  0.093912  0.11693  0  1.008353  0
H  H6  1  0.07377439  0.14240470  0.76822672  1  0.08483  0  0.087183  0.112448  0  1.029845  0
H  H7  1  0.57380995  0.85760263  0.23178430  1  0.084317  0  0.087097  0.112271  0  1.029846  0
H  H8  1  0.96434242  0.32590891  0.51454589  1  0.097565  0  0.087598  0.040432  0  1.014874  0
H  H9  1  0.46434401  0.67409419  0.48545896  1  0.097562  0  0.087642  0.040498  0  1.014905  0
H  H10  1  0.68107813  0.35540370  0.62821226  1  0.105132  0  0.091217  0.093753  0  1.052402  0
H  H11  1  0.18107650  0.64459123  0.37178817  1  0.105116  0  0.091198  0.09375  0  1.052424  0
H  H12  1  0.60672903  0.24089213  0.47107966  1  0.098485  0  0.10295  0.107906  0  1.009425  0
H  H13  1  0.10674268  0.75910970  0.52891556  1  0.098574  0  0.102925  0.107864  0  1.009553  0
H  H14  1  0.59494012  0.98475295  0.67911064  1  0.539047  0  0.311637  0.283243  0  0.946423  0
H  H15  1  0.09497409  0.01524725  0.32088642  1  0.539087  0  0.311605  0.283191  0  0.946421  0
H  H16  1  0.54350704  0.12689098  0.80113230  1  0.486118  0  0.315594  0.279818  0  0.916909  0
H  H17  1  0.04353555  0.87310774  0.19886223  1  0.486318  0  0.315591  0.279828  0  0.916915  0
H  H18  1  0.88656814  0.19705110  0.29514652  1  0.602226  0  0.290011  0.327399  0  0.986548  0
H  H19  1  0.38657388  0.80293426  0.70485732  1  0.602124  0  0.28998  0.327315  0  0.986582  0
C  C20  1  0.79615916  0.16716085  0.97094535  1  1.591315  0  0.210471  0.576798  0  4.139708  0
C  C21  1  0.29621294  0.83283094  0.02905367  1  1.590902  0  0.210192  0.576432  0  4.139845  0
C  C22  1  0.80522992  0.05000609  0.83918843  1  0.216885  0  0.007278  0.006032  0  3.715837  0
C  C23  1  0.30526067  0.94999113  0.16081429  1  0.216872  0  0.007392  0.006097  0  3.715673  0
C  C24  1  0.96208591  0.08410726  0.71272025  1  -0.054708  0  -0.168747  -0.246929  0  3.813742  0
C  C25  1  0.46211293  0.91589448  0.28728493  1  -0.053836  0  -0.168808  -0.246811  0  3.813356  0
C  C26  1  0.89164800  0.20280422  0.54571541  1  0.445435  0  -0.007012  0.221365  0  3.812767  0
C  C27  1  0.39165281  0.79719033  0.45428506  1  0.445498  0  -0.006986  0.221436  0  3.812652  0
C  C28  1  0.69538984  0.23574932  0.58173507  1  0.177534  0  -0.078623  -0.119921  0  3.76013  0
C  C29  1  0.19539569  0.76425120  0.41825883  1  0.177758  0  -0.078579  -0.119813  0  3.76037  0
Br  Br30  1  0.30048037  0.37863963  0.25515923  1  -0.558088  0  -0.223877  -0.404833  0  1.391377  0
Br  Br31  1  0.80046525  0.62135746  0.74483982  1  -0.558038  0  -0.223871  -0.404798  0  1.391408  0
Br  Br32  1  0.29895243  0.42849189  0.76971226  1  -0.553662  0  -0.220299  -0.411167  0  1.420851  0
Br  Br33  1  0.79897211  0.57151032  0.23028948  1  -0.55364  0  -0.220308  -0.411189  0  1.420843  0
N  N34  1  0.64305204  0.08901953  0.72673609  1  -1.085295  0  -0.477261  -0.210196  0  3.513859  0
N  N35  1  0.14307912  0.91098335  0.27325951  1  -1.085781  0  -0.477217  -0.210281  0  3.514138  0
O  O36  1  0.94064772  0.19987399  0.04096209  1  -1.191675  0  -0.329877  -0.559932  0  2.31098  0
O  O37  1  0.44068750  0.80013101  0.95905161  1  -1.191523  0  -0.329596  -0.559601  0  2.311432  0
O  O38  1  0.64132478  0.21855889  0.00040373  1  -1.182068  0  -0.329511  -0.551912  0  2.353595  0
O  O39  1  0.14136629  0.78142455  0.99961129  1  -1.181397  0  -0.32948  -0.551831  0  2.353375  0
O  O40  1  0.91032016  0.11532389  0.40568685  1  -1.127118  0  -0.401898  -0.501958  0  2.284006  0
O  O41  1  0.41031718  0.88466861  0.59431247  1  -1.126975  0  -0.401903  -0.501966  0  2.283888  0
