# generated using pymatgen
data_RbH8C14SO6
_symmetry_space_group_name_H-M   'P 1'
_cell_length_a   4.65460263
_cell_length_b   13.58334968
_cell_length_c   11.60404420
_cell_angle_alpha   106.41466149
_cell_angle_beta   90.05004169
_cell_angle_gamma   89.97186597
_symmetry_Int_Tables_number   1
_chemical_formula_structural   RbH8C14SO6
_chemical_formula_sum   'Rb2 H16 C28 S2 O12'
_cell_volume   703.76349166
_cell_formula_units_Z   2
loop_
 _symmetry_equiv_pos_site_id
 _symmetry_equiv_pos_as_xyz
  1  'x, y, z'
loop_
 _atom_site_type_symbol
 _atom_site_label
 _atom_site_symmetry_multiplicity
 _atom_site_fract_x
 _atom_site_fract_y
 _atom_site_fract_z
 _atom_site_occupancy
 _atom_site_hle17_bader_spin_density
 _atom_site_hle17_ddec_charge
 _atom_site_hle17_ddec_spin_density
 _atom_site_hle17_ddec_sum_bond_order
 _atom_site_hle17_magmom
 _atom_site_hse06_10hf_bader_spin_density
 _atom_site_hse06_10hf_ddec_charge
 _atom_site_hse06_10hf_ddec_spin_density
 _atom_site_hse06_10hf_ddec_sum_bond_order
 _atom_site_hse06_10hf_magmom
 _atom_site_hse06_bader_spin_density
 _atom_site_hse06_ddec_charge
 _atom_site_hse06_ddec_spin_density
 _atom_site_hse06_ddec_sum_bond_order
 _atom_site_hse06_magmom
 _atom_site_pbe_bader_spin_density
 _atom_site_pbe_cm5_charge
 _atom_site_pbe_ddec_charge
 _atom_site_pbe_ddec_spin_density
 _atom_site_pbe_ddec_sum_bond_order
 _atom_site_pbe_magmom
Rb  Rb0  1  0.88152092  0.49994060  0.75014320  1  0  0.947832  0  0.45861  0  0  0.901323  0  0.656405  0  0  0.915648  0  0.63592  0  0  0.745928  0.89012  0  0.671702  0
Rb  Rb1  1  0.11846739  0.50007621  0.24985853  1  0  0.947851  0  0.458671  0  0  0.901358  0  0.656451  0  0  0.915681  0  0.635968  0  0  0.745983  0.890151  0  0.671749  0
H  H2  1  0.47668316  0.80521040  0.42081636  1  0  0.105319  0  0.959804  0  0  0.113598  0  1.02507  0  0  0.117332  0  1.023725  0  0  0.108841  0.111115  0  1.025956  0
H  H3  1  0.47652818  0.19481860  0.07931437  1  0  0.1052  0  0.959233  0  0  0.113495  0  1.024531  0  0  0.117209  0  1.023208  0  0  0.108851  0.111019  0  1.025396  0
H  H4  1  0.52330085  0.19479488  0.57917641  1  0  0.105403  0  0.959707  0  0  0.113688  0  1.024962  0  0  0.117421  0  1.023611  0  0  0.108877  0.111202  0  1.025852  0
H  H5  1  0.52348379  0.80518213  0.92070190  1  0  0.105135  0  0.959245  0  0  0.113426  0  1.024582  0  0  0.11714  0  1.023256  0  0  0.108808  0.11096  0  1.02544  0
H  H6  1  0.17786313  0.95365880  0.52526001  1  0  0.114955  0  0.964456  0  0  0.12372  0  1.026956  0  0  0.127397  0  1.023912  0  0  0.110542  0.12108  0  1.029277  0
H  H7  1  0.17767678  0.04642140  0.97483585  1  0  0.114972  0  0.964471  0  0  0.123803  0  1.02692  0  0  0.127423  0  1.023936  0  0  0.110568  0.121156  0  1.029244  0
H  H8  1  0.82212948  0.04634955  0.47473291  1  0  0.114941  0  0.964254  0  0  0.123745  0  1.026752  0  0  0.127418  0  1.023711  0  0  0.110547  0.1211  0  1.029082  0
H  H9  1  0.82231800  0.95357780  0.02518078  1  0  0.115082  0  0.964371  0  0  0.123878  0  1.026858  0  0  0.127553  0  1.023814  0  0  0.11063  0.121284  0  1.029112  0
H  H10  1  0.05420496  0.82316066  0.82089843  1  0  0.105735  0  0.950226  0  0  0.115436  0  1.011592  0  0  0.119216  0  1.009638  0  0  0.112459  0.11291  0  1.01283  0
H  H11  1  0.05445647  0.17655643  0.67877915  1  0  0.105433  0  0.950651  0  0  0.11537  0  1.011857  0  0  0.119141  0  1.009902  0  0  0.112392  0.112846  0  1.013089  0
H  H12  1  0.94582847  0.17684924  0.17910448  1  0  0.10566  0  0.950279  0  0  0.115383  0  1.011626  0  0  0.119155  0  1.009684  0  0  0.11247  0.112864  0  1.012868  0
H  H13  1  0.94553617  0.82343126  0.32123283  1  0  0.105383  0  0.950512  0  0  0.115212  0  1.011851  0  0  0.118987  0  1.009886  0  0  0.112324  0.1127  0  1.013065  0
H  H14  1  0.36870495  0.67560586  0.71774714  1  0  0.10634  0  0.968063  0  0  0.110853  0  1.037995  0  0  0.117869  0  1.031894  0  0  0.115065  0.106476  0  1.041766  0
H  H15  1  0.36910801  0.32404517  0.78189845  1  0  0.106421  0  0.968577  0  0  0.111302  0  1.03796  0  0  0.118365  0  1.031801  0  0  0.11509  0.106934  0  1.041753  0
H  H16  1  0.63136070  0.32441324  0.28225017  1  0  0.106351  0  0.967959  0  0  0.110877  0  1.037865  0  0  0.117908  0  1.031771  0  0  0.115084  0.106506  0  1.041634  0
H  H17  1  0.63087817  0.67595094  0.21810941  1  0  0.106382  0  0.968611  0  0  0.11125  0  1.038015  0  0  0.118301  0  1.031869  0  0  0.115052  0.106878  0  1.04181  0
C  C18  1  0.62596614  0.64143620  0.49967887  1  0  0.63619  0  3.940161  0  0  0.592179  0  4.236229  0  0  0.623517  0  4.234545  0  0  0.21613  0.570721  0  4.237373  0
C  C19  1  0.62612138  0.35838479  0.00027996  1  0  0.635519  0  3.940933  0  0  0.590726  0  4.237839  0  0  0.622165  0  4.236085  0  0  0.215426  0.569374  0  4.238971  0
C  C20  1  0.37405008  0.35857981  0.50030794  1  0  0.635967  0  3.939999  0  0  0.591883  0  4.236236  0  0  0.623242  0  4.234557  0  0  0.21612  0.57047  0  4.237415  0
C  C21  1  0.37387769  0.64160517  0.99972071  1  0  0.635602  0  3.940385  0  0  0.590693  0  4.237432  0  0  0.62215  0  4.235678  0  0  0.215444  0.569371  0  4.238588  0
C  C22  1  0.44147075  0.73077889  0.56256996  1  0  -0.010944  0  3.67649  0  0  0.006935  0  3.908732  0  0  0.015521  0  3.916204  0  0  0.010735  0.003205  0  3.901747  0
C  C23  1  0.44155565  0.26905554  0.93733837  1  0  -0.010972  0  3.675749  0  0  0.00761  0  3.907377  0  0  0.016209  0  3.914771  0  0  0.010715  0.003806  0  3.900451  0
C  C24  1  0.55851539  0.26922100  0.43740897  1  0  -0.010918  0  3.675918  0  0  0.006926  0  3.908227  0  0  0.01547  0  3.915744  0  0  0.010706  0.003153  0  3.901292  0
C  C25  1  0.55843268  0.73093520  0.06266600  1  0  -0.011018  0  3.675577  0  0  0.007679  0  3.907157  0  0  0.016228  0  3.914594  0  0  0.010745  0.003834  0  3.900279  0
C  C26  1  0.38595041  0.80916513  0.50841690  1  0  -0.06669  0  3.680168  0  0  -0.088555  0  3.928898  0  0  -0.092307  0  3.944393  0  0  -0.072905  -0.085937  0  3.917723  0
C  C27  1  0.38596449  0.19076523  0.99158069  1  0  -0.066235  0  3.679715  0  0  -0.088231  0  3.92837  0  0  -0.092007  0  3.943867  0  0  -0.072878  -0.085635  0  3.917187  0
C  C28  1  0.61402500  0.19083785  0.49157166  1  0  -0.066851  0  3.679896  0  0  -0.088699  0  3.9287  0  0  -0.092458  0  3.944203  0  0  -0.072969  -0.086088  0  3.917549  0
C  C29  1  0.61404748  0.80922552  0.00842972  1  0  -0.066193  0  3.679659  0  0  -0.088184  0  3.928308  0  0  -0.091965  0  3.943838  0  0  -0.072883  -0.085609  0  3.91717  0
C  C30  1  0.21564173  0.89228430  0.56656832  1  0  -0.041011  0  3.711196  0  0  -0.069709  0  3.966966  0  0  -0.067222  0  3.982094  0  0  -0.074463  -0.071618  0  3.956904  0
C  C31  1  0.21558232  0.10767826  0.93338519  1  0  -0.041428  0  3.711853  0  0  -0.070286  0  3.967595  0  0  -0.06775  0  3.982791  0  0  -0.07459  -0.072193  0  3.957554  0
C  C32  1  0.78435516  0.10772558  0.43342251  1  0  -0.040692  0  3.711074  0  0  -0.069479  0  3.966866  0  0  -0.066993  0  3.982014  0  0  -0.074385  -0.071391  0  3.95683  0
C  C33  1  0.78439527  0.89232093  0.06662712  1  0  -0.041546  0  3.711702  0  0  -0.070392  0  3.967534  0  0  -0.067909  0  3.982713  0  0  -0.07467  -0.072335  0  3.957485  0
C  C34  1  0.09781593  0.89598620  0.67866219  1  0  -0.087096  0  3.710361  0  0  -0.065258  0  3.962801  0  0  -0.065591  0  3.98114  0  0  -0.010431  -0.064251  0  3.950344  0
C  C35  1  0.09784764  0.10388543  0.82117470  1  0  -0.086977  0  3.711212  0  0  -0.064905  0  3.963421  0  0  -0.065315  0  3.981849  0  0  -0.009947  -0.063972  0  3.951033  0
C  C36  1  0.90215948  0.10399990  0.32132084  1  0  -0.08745  0  3.710809  0  0  -0.065489  0  3.96317  0  0  -0.065875  0  3.981566  0  0  -0.010409  -0.064511  0  3.950755  0
C  C37  1  0.90213855  0.89610301  0.17883408  1  0  -0.087067  0  3.71111  0  0  -0.064947  0  3.963287  0  0  -0.065392  0  3.981758  0  0  -0.009969  -0.064053  0  3.950955  0
C  C38  1  0.15113496  0.81878787  0.73422689  1  0  -0.052632  0  3.714658  0  0  -0.077694  0  3.968765  0  0  -0.079516  0  3.985635  0  0  -0.071692  -0.076594  0  3.957195  0
C  C39  1  0.15134759  0.18098273  0.76552174  1  0  -0.051508  0  3.713975  0  0  -0.076924  0  3.968176  0  0  -0.078707  0  3.985053  0  0  -0.071629  -0.075825  0  3.956659  0
C  C40  1  0.84891136  0.18121129  0.26576991  1  0  -0.052519  0  3.714543  0  0  -0.077693  0  3.968722  0  0  -0.079505  0  3.985609  0  0  -0.071833  -0.076599  0  3.957178  0
C  C41  1  0.84864934  0.81900494  0.23448507  1  0  -0.051409  0  3.713773  0  0  -0.076711  0  3.967928  0  0  -0.078488  0  3.984796  0  0  -0.071542  -0.075618  0  3.956436  0
C  C42  1  0.32434562  0.73642922  0.67600594  1  0  -0.045389  0  3.67089  0  0  -0.072278  0  3.926479  0  0  -0.068132  0  3.932501  0  0  -0.061962  -0.075023  0  3.921127  0
C  C43  1  0.32451029  0.26334870  0.82378008  1  0  -0.046361  0  3.670717  0  0  -0.073536  0  3.926133  0  0  -0.069466  0  3.932167  0  0  -0.062217  -0.076327  0  3.920779  0
C  C44  1  0.67568350  0.26357375  0.32397918  1  0  -0.045331  0  3.670274  0  0  -0.072131  0  3.925798  0  0  -0.068026  0  3.931845  0  0  -0.061889  -0.074901  0  3.920477  0
C  C45  1  0.67547374  0.73664511  0.17622616  1  0  -0.046308  0  3.670697  0  0  -0.073429  0  3.926042  0  0  -0.069372  0  3.932096  0  0  -0.062172  -0.07624  0  3.920714  0
S  S46  1  0.86927150  0.99995473  0.74989977  1  0  1.057997  0  5.240294  0  0  0.981527  0  5.727391  0  0  1.016849  0  5.721285  0  0  0.477514  0.955977  0  5.732554  0
S  S47  1  0.13072111  0.00004518  0.25009124  1  0  1.058114  0  5.240288  0  0  0.981591  0  5.72742  0  0  1.016919  0  5.721324  0  0  0.477526  0.956044  0  5.732596  0
O  O48  1  0.78842901  0.60226057  0.56241548  1  0  -0.551316  0  1.811913  0  0  -0.511397  0  2.031071  0  0  -0.540817  0  2.03026  0  0  -0.307409  -0.490011  0  2.031023  0
O  O49  1  0.78899857  0.39736147  0.93761662  1  0  -0.551194  0  1.812879  0  0  -0.510382  0  2.032174  0  0  -0.540387  0  2.031504  0  0  -0.30736  -0.48973  0  2.03221  0
O  O50  1  0.21160440  0.39776005  0.43757285  1  0  -0.551041  0  1.811808  0  0  -0.511114  0  2.031026  0  0  -0.540684  0  2.030238  0  0  -0.307389  -0.489924  0  2.031059  0
O  O51  1  0.21101123  0.60261465  0.06236917  1  0  -0.551417  0  1.812792  0  0  -0.510258  0  2.032095  0  0  -0.540388  0  2.031445  0  0  -0.30743  -0.489737  0  2.032164  0
O  O52  1  0.61575499  0.60884903  0.38547601  1  0  -0.636469  0  1.858032  0  0  -0.59035  0  2.084705  0  0  -0.622684  0  2.082259  0  0  -0.385078  -0.571165  0  2.087657  0
O  O53  1  0.61549707  0.39118254  0.11444570  1  0  -0.635996  0  1.858872  0  0  -0.589261  0  2.085737  0  0  -0.621848  0  2.083316  0  0  -0.384606  -0.570507  0  2.088753  0
O  O54  1  0.38423116  0.39116469  0.61451178  1  0  -0.636246  0  1.857993  0  0  -0.590095  0  2.084701  0  0  -0.62256  0  2.082275  0  0  -0.385098  -0.571058  0  2.087695  0
O  O55  1  0.38451273  0.60882199  0.88555200  1  0  -0.636202  0  1.858567  0  0  -0.589188  0  2.085439  0  0  -0.621894  0  2.083035  0  0  -0.384657  -0.570567  0  2.088493  0
O  O56  1  0.71370594  0.03058852  0.65719342  1  0  -0.57979  0  2.000558  0  0  -0.529672  0  2.249969  0  0  -0.551026  0  2.24606  0  0  -0.301343  -0.513877  0  2.252281  0
O  O57  1  0.71397266  0.96931139  0.84260075  1  0  -0.579913  0  1.997671  0  0  -0.529812  0  2.246984  0  0  -0.551108  0  2.24295  0  0  -0.301732  -0.514084  0  2.249446  0
O  O58  1  0.28625878  0.96941377  0.34283715  1  0  -0.579921  0  1.999599  0  0  -0.529856  0  2.249042  0  0  -0.551216  0  2.245149  0  0  -0.301376  -0.514054  0  2.251354  0
O  O59  1  0.28602857  0.03067246  0.15741343  1  0  -0.579736  0  1.998602  0  0  -0.529552  0  2.247858  0  0  -0.550822  0  2.243803  0  0  -0.301659  -0.513822  0  2.250324  0
