# generated using pymatgen
data_ZnH2C11N(OF)4
_symmetry_space_group_name_H-M   'P 1'
_cell_length_a   10.63771377
_cell_length_b   11.87339902
_cell_length_c   16.08970680
_cell_angle_alpha   89.99984331
_cell_angle_beta   89.99990697
_cell_angle_gamma   90.00067389
_symmetry_Int_Tables_number   1
_chemical_formula_structural   ZnH2C11N(OF)4
_chemical_formula_sum   'Zn2 H4 C22 N2 O8 F8'
_cell_volume   2032.22361584
_cell_formula_units_Z   2
loop_
 _symmetry_equiv_pos_site_id
 _symmetry_equiv_pos_as_xyz
  1  'x, y, z'
loop_
 _atom_site_type_symbol
 _atom_site_label
 _atom_site_symmetry_multiplicity
 _atom_site_fract_x
 _atom_site_fract_y
 _atom_site_fract_z
 _atom_site_occupancy
 _atom_site_pbe_bader_charge
 _atom_site_pbe_bader_spin_density
 _atom_site_pbe_cm5_charge
 _atom_site_pbe_ddec_charge
 _atom_site_pbe_ddec_spin_density
 _atom_site_pbe_ddec_sum_bond_order
 _atom_site_pbe_magmom
Zn  Zn0  1  0.37080862  0.50029851  0.49999971  1  1.322525  0  0.687457  0.869795  0  2.432194  0
Zn  Zn1  1  0.62924385  0.50025196  0.49999895  1  1.34346  0  0.687672  0.869453  0  2.432712  0
H  H2  1  0.38375828  0.64233116  0.07173196  1  0.090802  0  0.113882  0.072689  0  0.940819  0
H  H3  1  0.60194713  0.65074447  0.07173619  1  0.114122  0  0.114146  0.073779  0  0.94089  0
H  H4  1  0.38375347  0.64232873  0.92826156  1  0.090893  0  0.113889  0.072686  0  0.940816  0
H  H5  1  0.60194702  0.65074541  0.92826267  1  0.114092  0  0.114165  0.073792  0  0.940878  0
C  C6  1  0.50001159  0.71911358  0.50000004  1  1.725603  0  0.223967  0.663832  0  4.237314  0
C  C7  1  0.50002979  0.49963022  0.66151221  1  1.629264  0  0.227925  0.676648  0  4.214746  0
C  C8  1  0.50003019  0.49963334  0.33848582  1  1.629258  0  0.228059  0.676875  0  4.214606  0
C  C9  1  0.50001295  0.94354973  0.50000292  1  -0.333279  0  -0.010678  0.026688  0  4.241062  0
C  C10  1  0.50002079  0.84052953  0.50000116  1  0.105582  0  -0.011333  -0.138398  0  3.858659  0
C  C11  1  0.93571101  0.49966498  0.50000251  1  0.944922  0  0.311113  0.302483  0  3.895886  0
C  C12  1  0.06431794  0.49967185  0.50000360  1  1.10878  0  0.311131  0.302602  0  3.896413  0
C  C13  1  0.50005780  0.28161797  0.50000172  1  1.706524  0  0.227089  0.664598  0  4.233681  0
C  C14  1  0.38139620  0.55500069  0.95133913  1  0.612332  0  0.035304  0.119763  0  3.812331  0
C  C15  1  0.61263673  0.56392025  0.95134086  1  0.58373  0  0.034935  0.118628  0  3.814402  0
C  C16  1  0.38139637  0.55500236  0.04865767  1  0.468929  0  0.035274  0.119788  0  3.812445  0
C  C17  1  0.50008857  0.49771915  0.24849350  1  0.179441  0  -0.029824  -0.149166  0  3.921568  0
C  C18  1  0.61263690  0.56392023  0.04865816  1  0.440219  0  0.034903  0.118599  0  3.814327  0
C  C19  1  0.50000943  0.05718771  0.50000071  1  -0.149291  0  -0.009833  0.024381  0  4.239365  0
C  C20  1  0.49999783  0.16019275  0.50000122  1  0.09485  0  -0.00878  -0.132083  0  3.850863  0
C  C21  1  0.50008795  0.49771063  0.75150391  1  0.179519  0  -0.029747  -0.149097  0  3.921738  0
C  C22  1  0.50015729  0.49390350  0.91679096  1  0.07098  0  -0.012118  -0.070633  0  3.947544  0
C  C23  1  0.50015643  0.49390420  0.08320709  1  0.071174  0  -0.012108  -0.070561  0  3.947482  0
C  C24  1  0.50606207  0.37133114  0.04924140  1  1.215237  0  0.201738  0.351082  0  3.904196  0
C  C25  1  0.50606566  0.37133115  0.95075876  1  1.07009  0  0.201709  0.351068  0  3.904383  0
C  C26  1  0.50020427  0.49453907  0.17321494  1  -0.31254  0  -0.036007  -0.031789  0  4.062624  0
C  C27  1  0.50020722  0.49453533  0.82678248  1  -0.312573  0  -0.03605  -0.031748  0  4.062705  0
N  N28  1  0.82657572  0.49996419  0.50000008  1  -0.978631  0  -0.167032  -0.131977  0  2.943622  0
N  N29  1  0.17345230  0.49995209  0.50000168  1  -0.979576  0  -0.167005  -0.132274  0  2.943947  0
O  O30  1  0.39263766  0.67140970  0.49999952  1  -1.133138  0  -0.310973  -0.53912  0  2.253114  0
O  O31  1  0.60737553  0.67138733  0.49999941  1  -1.133538  0  -0.311122  -0.539169  0  2.252652  0
O  O32  1  0.39274081  0.50041294  0.62642524  1  -1.139367  0  -0.309826  -0.537703  0  2.248044  0
O  O33  1  0.60730289  0.50026760  0.62639840  1  -1.139267  0  -0.309794  -0.537225  0  2.247831  0
O  O34  1  0.39274112  0.50041172  0.37357228  1  -1.1393  0  -0.309805  -0.537785  0  2.248038  0
O  O35  1  0.60730320  0.50026976  0.37359951  1  -1.139262  0  -0.309889  -0.5373  0  2.247865  0
O  O36  1  0.39272488  0.32934759  0.50000298  1  -1.129753  0  -0.310108  -0.536971  0  2.252235  0
O  O37  1  0.60744019  0.32926205  0.49999975  1  -1.130127  0  -0.309912  -0.536751  0  2.25256  0
F  F38  1  0.40550613  0.31079953  0.92240285  1  -0.596094  0  -0.104047  -0.160086  0  1.3331  0
F  F39  1  0.61203833  0.31877988  0.92239465  1  -0.595347  0  -0.104381  -0.160286  0  1.333589  0
F  F40  1  0.40549870  0.31080194  0.07759504  1  -0.59615  0  -0.104073  -0.160089  0  1.333005  0
F  F41  1  0.61203185  0.31877723  0.07760797  1  -0.595686  0  -0.104397  -0.160286  0  1.333497  0
F  F42  1  0.72614681  0.52417664  0.92136267  1  -0.592808  0  -0.118749  -0.142068  0  1.307273  0
F  F43  1  0.27213186  0.50668624  0.92131570  1  -0.59706  0  -0.119002  -0.142268  0  1.306035  0
F  F44  1  0.72614691  0.52417567  0.07863694  1  -0.592799  0  -0.118757  -0.142088  0  1.307204  0
F  F45  1  0.27213290  0.50668949  0.07868319  1  -0.596745  0  -0.119009  -0.142306  0  1.306086  0
