# generated using pymatgen
data_CuH14C10BrN4
_symmetry_space_group_name_H-M   'P 1'
_cell_length_a   6.63604896
_cell_length_b   11.17285172
_cell_length_c   11.17270229
_cell_angle_alpha   101.80954144
_cell_angle_beta   107.28350582
_cell_angle_gamma   107.28488364
_symmetry_Int_Tables_number   1
_chemical_formula_structural   CuH14C10BrN4
_chemical_formula_sum   'Cu2 H28 C20 Br2 N8'
_cell_volume   715.21353792
_cell_formula_units_Z   2
loop_
 _symmetry_equiv_pos_site_id
 _symmetry_equiv_pos_as_xyz
  1  'x, y, z'
loop_
 _atom_site_type_symbol
 _atom_site_label
 _atom_site_symmetry_multiplicity
 _atom_site_fract_x
 _atom_site_fract_y
 _atom_site_fract_z
 _atom_site_occupancy
 _atom_site_pbe_bader_charge
 _atom_site_pbe_bader_spin_density
 _atom_site_pbe_cm5_charge
 _atom_site_pbe_ddec_charge
 _atom_site_pbe_ddec_spin_density
 _atom_site_pbe_ddec_sum_bond_order
 _atom_site_pbe_magmom
Cu  Cu0  1  0.74685357  0.09267544  0.59266721  1  0.566726  0  0.393505  0.23883  0  2.57922  0
Cu  Cu1  1  0.06213665  0.90745886  0.40746617  1  0.569868  0  0.393634  0.239299  0  2.578079  0
H  H2  1  0.35733549  0.12808552  0.41318195  1  0.503383  0  0.302847  0.244789  0  1.00327  0
H  H3  1  0.08156408  0.37803316  0.74003597  1  0.066603  0  0.09224  0.134999  0  1.011801  0
H  H4  1  0.12173595  0.53053658  0.70496328  1  0.023309  0  0.089425  0.126646  0  1.024898  0
H  H5  1  0.18326662  0.40409804  0.61534097  1  0.029981  0  0.089695  0.133342  0  1.015986  0
H  H6  1  0.17212321  0.24987906  0.24459174  1  0.071589  0  0.093707  0.130069  0  1.034272  0
H  H7  1  0.31842900  0.42525256  0.29691556  1  0.067566  0  0.100836  0.14572  0  0.982488  0
H  H8  1  0.15351236  0.35168893  0.38125187  1  0.049225  0  0.096404  0.138984  0  1.002139  0
H  H9  1  0.81674076  0.87206761  0.58690318  1  0.516376  0  0.302282  0.244775  0  1.003078  0
H  H10  1  0.96488877  0.62204214  0.26021151  1  0.047571  0  0.092436  0.135268  0  1.010643  0
H  H11  1  0.88713519  0.46954427  0.29537925  1  0.005911  0  0.089469  0.126408  0  1.02499  0
H  H12  1  0.16465386  0.59606708  0.38539352  1  0.037348  0  0.089621  0.133079  0  1.016361  0
H  H13  1  0.67740031  0.74983274  0.75527641  1  0.059549  0  0.093924  0.130511  0  1.033264  0
H  H14  1  0.59603146  0.57444266  0.70264205  1  0.068828  0  0.101174  0.14604  0  0.982104  0
H  H15  1  0.42051738  0.64812817  0.61834034  1  0.058927  0  0.096157  0.138918  0  1.000836  0
H  H16  1  0.81669697  0.08688701  0.37206068  1  0.515808  0  0.302352  0.244947  0  1.00305  0
H  H17  1  0.96503151  0.76027582  0.12209161  1  0.04997  0  0.09244  0.135321  0  1.010905  0
H  H18  1  0.88723108  0.79540395  0.96956964  1  0.006278  0  0.089481  0.12638  0  1.024966  0
H  H19  1  0.16473243  0.88547103  0.09610153  1  0.036939  0  0.089637  0.133068  0  1.016767  0
H  H20  1  0.67736660  0.25525882  0.24982737  1  0.059322  0  0.093897  0.130534  0  1.033217  0
H  H21  1  0.59601666  0.20262994  0.07443679  1  0.068582  0  0.101191  0.146102  0  0.982218  0
H  H22  1  0.42046970  0.11831972  0.14811624  1  0.058714  0  0.096222  0.139064  0  1.000894  0
H  H23  1  0.35736388  0.91317744  0.62806793  1  0.503153  0  0.302703  0.24474  0  1.003348  0
H  H24  1  0.08154288  0.24005262  0.87802888  1  0.063589  0  0.092263  0.135019  0  1.011686  0
H  H25  1  0.12172489  0.20497358  0.03053956  1  0.023295  0  0.089443  0.126636  0  1.024896  0
H  H26  1  0.18329602  0.11535947  0.90409779  1  0.030021  0  0.089684  0.133313  0  1.015996  0
H  H27  1  0.17215248  0.74456453  0.74987201  1  0.071452  0  0.093552  0.129776  0  1.034426  0
H  H28  1  0.31849393  0.79689744  0.92525715  1  0.067961  0  0.100821  0.14562  0  0.982447  0
H  H29  1  0.15352430  0.88122851  0.85170628  1  0.049686  0  0.096456  0.138939  0  1.001986  0
C  C30  1  0.69606087  0.43032190  0.49620312  1  0.043123  0  -0.040316  -0.148826  0  4.080033  0
C  C31  1  0.47763964  0.33198755  0.42120714  1  0.402121  0  0.097967  0.198087  0  3.996411  0
C  C32  1  0.82488613  0.36633656  0.56412013  1  0.406872  0  0.089966  0.197997  0  4.000835  0
C  C33  1  0.06563135  0.42327034  0.66101935  1  -0.022472  0  -0.239341  -0.42076  0  3.982838  0
C  C34  1  0.26956623  0.33969519  0.33115963  1  -0.072132  0  -0.231227  -0.419661  0  3.958212  0
C  C35  1  0.76957682  0.56968217  0.50361818  1  0.047475  0  -0.039768  -0.148633  0  4.080291  0
C  C36  1  0.72468784  0.66803926  0.57869975  1  0.419343  0  0.098253  0.197844  0  3.99409  0
C  C37  1  0.89476325  0.63371132  0.43592038  1  0.436082  0  0.090273  0.199273  0  4.000147  0
C  C38  1  0.98214859  0.57683625  0.33930815  1  0.007497  0  -0.240273  -0.421439  0  3.981433  0
C  C39  1  0.59867478  0.66011561  0.66859323  1  -0.070866  0  -0.23188  -0.420452  0  3.956266  0
C  C40  1  0.76952325  0.00358949  0.06966877  1  0.048279  0  -0.039743  -0.148601  0  4.080107  0
C  C41  1  0.72465456  0.07868586  0.16802805  1  0.418589  0  0.098407  0.198247  0  3.993537  0
C  C42  1  0.89479355  0.93594155  0.13371958  1  0.435938  0  0.09025  0.199278  0  4.000001  0
C  C43  1  0.98223442  0.83934562  0.07685918  1  0.008272  0  -0.240263  -0.421429  0  3.98193  0
C  C44  1  0.59862634  0.16857182  0.16010229  1  -0.070196  0  -0.23199  -0.420842  0  3.956459  0
C  C45  1  0.69604776  0.99621377  0.93031214  1  0.043212  0  -0.040331  -0.148989  0  4.080366  0
C  C46  1  0.47765806  0.92120215  0.83198204  1  0.402098  0  0.097938  0.198069  0  3.996577  0
C  C47  1  0.82488196  0.06411023  0.86633022  1  0.405926  0  0.089987  0.198116  0  4.000721  0
C  C48  1  0.06562828  0.16102565  0.92326568  1  -0.022403  0  -0.239396  -0.420776  0  3.982669  0
C  C49  1  0.26959309  0.83114134  0.83969733  1  -0.072728  0  -0.231166  -0.419256  0  3.957951  0
Br  Br50  1  0.42727351  0.89594847  0.39594937  1  -0.616306  0  -0.296842  -0.487186  0  1.610123  0
Br  Br51  1  0.13464912  0.10392606  0.60392169  1  -0.615672  0  -0.296901  -0.487107  0  1.611383  0
N  N52  1  0.69339442  0.23748127  0.53159419  1  -0.721065  0  -0.296332  -0.202402  0  3.60684  0
N  N53  1  0.48605943  0.21930232  0.44465683  1  -0.841451  0  -0.294276  -0.13487  0  3.729345  0
N  N54  1  0.92468643  0.76254288  0.46841304  1  -0.742737  0  -0.296405  -0.203626  0  3.60385  0
N  N55  1  0.82233339  0.78073120  0.55526187  1  -0.850213  0  -0.293534  -0.133935  0  3.725186  0
N  N56  1  0.92466649  0.96841370  0.26255309  1  -0.74244  0  -0.296405  -0.203597  0  3.60369  0
N  N57  1  0.82230081  0.05525345  0.28073389  1  -0.850177  0  -0.293726  -0.134412  0  3.725494  0
N  N58  1  0.69339054  0.03158057  0.73746685  1  -0.720221  0  -0.296288  -0.202463  0  3.60674  0
N  N59  1  0.48605830  0.94465116  0.71929185  1  -0.84128  0  -0.294133  -0.134789  0  3.729522  0
