# generated using pymatgen
data_SnH15C18F
_symmetry_space_group_name_H-M   'P 1'
_cell_length_a   8.68526226
_cell_length_b   10.08982278
_cell_length_c   10.08996005
_cell_angle_alpha   119.99888965
_cell_angle_beta   90.00138232
_cell_angle_gamma   89.99984823
_symmetry_Int_Tables_number   1
_chemical_formula_structural   SnH15C18F
_chemical_formula_sum   'Sn2 H30 C36 F2'
_cell_volume   765.75777050
_cell_formula_units_Z   2
loop_
 _symmetry_equiv_pos_site_id
 _symmetry_equiv_pos_as_xyz
  1  'x, y, z'
loop_
 _atom_site_type_symbol
 _atom_site_label
 _atom_site_symmetry_multiplicity
 _atom_site_fract_x
 _atom_site_fract_y
 _atom_site_fract_z
 _atom_site_occupancy
 _atom_site_hle17_bader_spin_density
 _atom_site_hle17_ddec_charge
 _atom_site_hle17_ddec_spin_density
 _atom_site_hle17_ddec_sum_bond_order
 _atom_site_hle17_magmom
 _atom_site_hse06_10hf_bader_spin_density
 _atom_site_hse06_10hf_ddec_charge
 _atom_site_hse06_10hf_ddec_spin_density
 _atom_site_hse06_10hf_ddec_sum_bond_order
 _atom_site_hse06_10hf_magmom
 _atom_site_hse06_bader_spin_density
 _atom_site_hse06_ddec_charge
 _atom_site_hse06_ddec_spin_density
 _atom_site_hse06_ddec_sum_bond_order
 _atom_site_hse06_magmom
 _atom_site_pbe_bader_spin_density
 _atom_site_pbe_cm5_charge
 _atom_site_pbe_ddec_charge
 _atom_site_pbe_ddec_spin_density
 _atom_site_pbe_ddec_sum_bond_order
 _atom_site_pbe_magmom
Sn  Sn0  1  0.24999711  0.99998649  0.99997810  1  0  1.264075  0  3.014746  0  0  1.06955  0  3.509523  0  0  1.113112  0  3.48979  0  0  0.535672  1.038962  0  3.524593  0
Sn  Sn1  1  0.74999813  0.99997420  0.99999002  1  0  1.264359  0  3.015285  0  0  1.06983  0  3.510109  0  0  1.113405  0  3.490351  0  0  0.535773  1.039238  0  3.52519  0
H  H2  1  0.43562491  0.31149171  0.16538301  1  0  0.081866  0  0.969864  0  0  0.092682  0  1.034186  0  0  0.094699  0  1.034224  0  0  0.096051  0.091091  0  1.034648  0
H  H3  1  0.43560437  0.83465434  0.14611760  1  0  0.081881  0  0.969527  0  0  0.092737  0  1.033815  0  0  0.094757  0  1.033868  0  0  0.096072  0.09115  0  1.03428  0
H  H4  1  0.06438448  0.16535915  0.31148891  1  0  0.081836  0  0.969374  0  0  0.092687  0  1.033724  0  0  0.09473  0  1.033728  0  0  0.096043  0.091099  0  1.03419  0
H  H5  1  0.43559470  0.85389719  0.68853179  1  0  0.081922  0  0.969513  0  0  0.092745  0  1.033845  0  0  0.094773  0  1.033876  0  0  0.096062  0.091155  0  1.034312  0
H  H6  1  0.06436492  0.68852896  0.85390028  1  0  0.081765  0  0.969645  0  0  0.092616  0  1.03395  0  0  0.09463  0  1.034004  0  0  0.095997  0.091023  0  1.034412  0
H  H7  1  0.06438610  0.14611899  0.83464124  1  0  0.081754  0  0.969212  0  0  0.092564  0  1.033604  0  0  0.094588  0  1.033646  0  0  0.096017  0.090976  0  1.034071  0
H  H8  1  0.56438755  0.68851011  0.83463926  1  0  0.081879  0  0.969741  0  0  0.092721  0  1.03406  0  0  0.094755  0  1.034075  0  0  0.096093  0.091132  0  1.034524  0
H  H9  1  0.56438391  0.16535091  0.85388756  1  0  0.081864  0  0.969541  0  0  0.09271  0  1.033834  0  0  0.094723  0  1.033896  0  0  0.096036  0.09112  0  1.0343  0
H  H10  1  0.93560265  0.83464840  0.68852136  1  0  0.081884  0  0.969382  0  0  0.092714  0  1.033742  0  0  0.094744  0  1.033766  0  0  0.096081  0.091122  0  1.034208  0
H  H11  1  0.56440049  0.14611607  0.31147341  1  0  0.081874  0  0.969429  0  0  0.092717  0  1.033747  0  0  0.094741  0  1.033788  0  0  0.096056  0.091129  0  1.034214  0
H  H12  1  0.93561990  0.31147286  0.14610316  1  0  0.081779  0  0.969873  0  0  0.092621  0  1.03417  0  0  0.094639  0  1.034224  0  0  0.096021  0.091031  0  1.034633  0
H  H13  1  0.93560333  0.85388512  0.16535344  1  0  0.081841  0  0.969519  0  0  0.092699  0  1.033819  0  0  0.094724  0  1.033867  0  0  0.096067  0.091111  0  1.034287  0
H  H14  1  0.43270471  0.55774624  0.16637008  1  0  0.082541  0  0.957309  0  0  0.095549  0  1.015251  0  0  0.098089  0  1.014706  0  0  0.098177  0.093409  0  1.016331  0
H  H15  1  0.43266951  0.83367313  0.39138414  1  0  0.082508  0  0.957458  0  0  0.095653  0  1.015232  0  0  0.098193  0  1.014687  0  0  0.098286  0.093516  0  1.016313  0
H  H16  1  0.06733431  0.16631889  0.55772597  1  0  0.082512  0  0.95742  0  0  0.095672  0  1.015178  0  0  0.098209  0  1.014633  0  0  0.098267  0.093535  0  1.016257  0
H  H17  1  0.43266016  0.60861353  0.44229074  1  0  0.082503  0  0.957418  0  0  0.095624  0  1.015223  0  0  0.098168  0  1.014677  0  0  0.098289  0.093489  0  1.016304  0
H  H18  1  0.06731739  0.44227714  0.60860139  1  0  0.082582  0  0.957594  0  0  0.095696  0  1.015382  0  0  0.098236  0  1.014834  0  0  0.098297  0.093558  0  1.016464  0
H  H19  1  0.06736897  0.39141112  0.83371408  1  0  0.082574  0  0.957674  0  0  0.095809  0  1.015324  0  0  0.09832  0  1.014816  0  0  0.098364  0.093675  0  1.016405  0
H  H20  1  0.56730084  0.44224185  0.83363442  1  0  0.082536  0  0.957361  0  0  0.095641  0  1.015187  0  0  0.098186  0  1.014638  0  0  0.098212  0.093502  0  1.016266  0
H  H21  1  0.56731417  0.16633212  0.60860912  1  0  0.08254  0  0.957384  0  0  0.095645  0  1.0152  0  0  0.098185  0  1.014654  0  0  0.09823  0.093508  0  1.016279  0
H  H22  1  0.93267124  0.83367950  0.44227080  1  0  0.082467  0  0.957493  0  0  0.095612  0  1.015269  0  0  0.09815  0  1.014723  0  0  0.098242  0.093476  0  1.016347  0
H  H23  1  0.56734194  0.39140546  0.55772425  1  0  0.082458  0  0.957393  0  0  0.095629  0  1.015155  0  0  0.098172  0  1.01461  0  0  0.098246  0.093493  0  1.016235  0
H  H24  1  0.93268241  0.55774528  0.39138955  1  0  0.082518  0  0.957288  0  0  0.095601  0  1.01515  0  0  0.09814  0  1.014604  0  0  0.098201  0.093461  0  1.016229  0
H  H25  1  0.93265385  0.60860329  0.16630656  1  0  0.082472  0  0.957543  0  0  0.095668  0  1.015259  0  0  0.098212  0  1.014709  0  0  0.098292  0.093532  0  1.016339  0
H  H26  1  0.25002620  0.59743858  0.00004071  1  0  0.081281  0  0.970855  0  0  0.09048  0  1.037029  0  0  0.092406  0  1.037568  0  0  0.096289  0.089046  0  1.03678  0
H  H27  1  0.24999837  0.99999740  0.59743191  1  0  0.081266  0  0.970681  0  0  0.090411  0  1.036922  0  0  0.092338  0  1.037457  0  0  0.096262  0.088996  0  1.036654  0
H  H28  1  0.25000678  0.40259179  0.40259483  1  0  0.081181  0  0.970976  0  0  0.090414  0  1.037117  0  0  0.092338  0  1.037655  0  0  0.096285  0.088955  0  1.036892  0
H  H29  1  0.74999432  0.40255980  0.99997390  1  0  0.081342  0  0.970772  0  0  0.090503  0  1.036981  0  0  0.092429  0  1.037518  0  0  0.096293  0.089069  0  1.036734  0
H  H30  1  0.74999798  0.00000556  0.40257607  1  0  0.081259  0  0.970829  0  0  0.090423  0  1.037034  0  0  0.092351  0  1.037567  0  0  0.096261  0.08901  0  1.036766  0
H  H31  1  0.74999877  0.59744437  0.59742677  1  0  0.081365  0  0.970619  0  0  0.09053  0  1.036844  0  0  0.092456  0  1.037384  0  0  0.096323  0.089097  0  1.036593  0
C  C32  1  0.25005227  0.21165126  0.99999477  1  0  -0.316734  0  3.730479  0  0  -0.266119  0  3.992055  0  0  -0.279089  0  4.022216  0  0  -0.106275  -0.256976  0  3.972078  0
C  C33  1  0.25000809  0.00000140  0.21167112  1  0  -0.316801  0  3.730255  0  0  -0.266185  0  3.991859  0  0  -0.279156  0  4.022031  0  0  -0.106356  -0.257043  0  3.971882  0
C  C34  1  0.24999212  0.78830926  0.78831995  1  0  -0.316898  0  3.730585  0  0  -0.266279  0  3.992135  0  0  -0.279254  0  4.022312  0  0  -0.106361  -0.257133  0  3.972151  0
C  C35  1  0.74997884  0.78835887  0.99999002  1  0  -0.316833  0  3.731175  0  0  -0.266205  0  3.992777  0  0  -0.279181  0  4.022939  0  0  -0.106332  -0.257061  0  3.972804  0
C  C36  1  0.74998595  0.99999584  0.78831913  1  0  -0.316868  0  3.730342  0  0  -0.266258  0  3.991926  0  0  -0.279233  0  4.022096  0  0  -0.106354  -0.257113  0  3.971945  0
C  C37  1  0.75001574  0.21162733  0.21162511  1  0  -0.316769  0  3.730746  0  0  -0.266158  0  3.992358  0  0  -0.279134  0  4.022526  0  0  -0.106324  -0.257016  0  3.972386  0
C  C38  1  0.35331433  0.32835312  0.09326824  1  0  -0.058392  0  3.824989  0  0  -0.076007  0  4.066913  0  0  -0.075883  0  4.090616  0  0  -0.096025  -0.076202  0  4.050959  0
C  C39  1  0.35330404  0.90676339  0.23512702  1  0  -0.058246  0  3.824608  0  0  -0.075884  0  4.066514  0  0  -0.075775  0  4.09023  0  0  -0.095893  -0.076082  0  4.050562  0
C  C40  1  0.14670703  0.09323584  0.32836871  1  0  -0.058185  0  3.824375  0  0  -0.075844  0  4.066302  0  0  -0.075738  0  4.090033  0  0  -0.095838  -0.076041  0  4.050347  0
C  C41  1  0.35329309  0.76487968  0.67163087  1  0  -0.058278  0  3.824639  0  0  -0.075887  0  4.066538  0  0  -0.075779  0  4.090267  0  0  -0.095838  -0.076086  0  4.050591  0
C  C42  1  0.14667094  0.67163347  0.76487844  1  0  -0.058095  0  3.824521  0  0  -0.075715  0  4.066433  0  0  -0.075596  0  4.090135  0  0  -0.095801  -0.075906  0  4.050477  0
C  C43  1  0.14670345  0.23514593  0.90679783  1  0  -0.058  0  3.823975  0  0  -0.075583  0  4.065908  0  0  -0.075469  0  4.089614  0  0  -0.095777  -0.075784  0  4.049958  0
C  C44  1  0.64669123  0.67165099  0.90676410  1  0  -0.058258  0  3.824826  0  0  -0.075911  0  4.066724  0  0  -0.075797  0  4.090448  0  0  -0.095962  -0.076109  0  4.050773  0
C  C45  1  0.64668770  0.09324416  0.76487631  1  0  -0.058188  0  3.824476  0  0  -0.075801  0  4.066385  0  0  -0.075688  0  4.090095  0  0  -0.095817  -0.076  0  4.050432  0
C  C46  1  0.85328932  0.90676254  0.67162211  1  0  -0.058242  0  3.824201  0  0  -0.075867  0  4.066128  0  0  -0.075757  0  4.08985  0  0  -0.095858  -0.076061  0  4.050171  0
C  C47  1  0.64672513  0.23511298  0.32834421  1  0  -0.058539  0  3.824586  0  0  -0.076175  0  4.066554  0  0  -0.076068  0  4.09028  0  0  -0.096044  -0.076375  0  4.050603  0
C  C48  1  0.85330813  0.32833631  0.23509313  1  0  -0.058224  0  3.824643  0  0  -0.075838  0  4.06657  0  0  -0.075725  0  4.090281  0  0  -0.095932  -0.076035  0  4.050615  0
C  C49  1  0.85328023  0.76489022  0.09322872  1  0  -0.058413  0  3.824557  0  0  -0.076068  0  4.066518  0  0  -0.075961  0  4.090237  0  0  -0.096048  -0.076268  0  4.050571  0
C  C50  1  0.35244716  0.46710568  0.09377640  1  0  -0.070042  0  3.767434  0  0  -0.081112  0  4.010984  0  0  -0.083912  0  4.032883  0  0  -0.092262  -0.078754  0  3.995443  0
C  C51  1  0.35240100  0.90625538  0.37337505  1  0  -0.070199  0  3.768255  0  0  -0.08139  0  4.011845  0  0  -0.084193  0  4.033756  0  0  -0.092531  -0.079041  0  3.996318  0
C  C52  1  0.14758287  0.09374980  0.46712674  1  0  -0.070182  0  3.768197  0  0  -0.081395  0  4.011822  0  0  -0.084193  0  4.033729  0  0  -0.092527  -0.079043  0  3.996294  0
C  C53  1  0.35240592  0.62663512  0.53288753  1  0  -0.070147  0  3.768346  0  0  -0.081341  0  4.011974  0  0  -0.084148  0  4.033892  0  0  -0.092524  -0.078991  0  3.996435  0
C  C54  1  0.14757532  0.53287048  0.62664400  1  0  -0.070126  0  3.768034  0  0  -0.081305  0  4.011629  0  0  -0.084104  0  4.033524  0  0  -0.092474  -0.078953  0  3.996089  0
C  C55  1  0.14760363  0.37338239  0.90627492  1  0  -0.070387  0  3.768948  0  0  -0.081689  0  4.012594  0  0  -0.084469  0  4.034522  0  0  -0.092659  -0.079342  0  3.997063  0
C  C56  1  0.64757451  0.53287096  0.90622040  1  0  -0.070114  0  3.767651  0  0  -0.081272  0  4.011232  0  0  -0.084079  0  4.033139  0  0  -0.092329  -0.078914  0  3.99569  0
C  C57  1  0.64758152  0.09374873  0.62662359  1  0  -0.070245  0  3.76806  0  0  -0.081415  0  4.011661  0  0  -0.084216  0  4.033561  0  0  -0.0925  -0.079062  0  3.996131  0
C  C58  1  0.85241002  0.90624287  0.53286221  1  0  -0.070106  0  3.768191  0  0  -0.081316  0  4.01182  0  0  -0.084113  0  4.033727  0  0  -0.092507  -0.078965  0  3.996292  0
C  C59  1  0.64759043  0.37336556  0.46710740  1  0  -0.069949  0  3.768039  0  0  -0.081163  0  4.011632  0  0  -0.083969  0  4.033559  0  0  -0.092386  -0.078814  0  3.9961  0
C  C60  1  0.85243139  0.46710845  0.37334304  1  0  -0.070069  0  3.767366  0  0  -0.08122  0  4.010967  0  0  -0.08402  0  4.03287  0  0  -0.092288  -0.07886  0  3.995426  0
C  C61  1  0.85240883  0.62664003  0.09373783  1  0  -0.069932  0  3.768149  0  0  -0.08117  0  4.011758  0  0  -0.083975  0  4.033674  0  0  -0.092366  -0.07882  0  3.996228  0
C  C62  1  0.25002404  0.48941590  0.00001004  1  0  -0.071079  0  3.774394  0  0  -0.083249  0  4.018077  0  0  -0.084616  0  4.040132  0  0  -0.092798  -0.081978  0  4.001933  0
C  C63  1  0.24998649  0.99998995  0.48942478  1  0  -0.071107  0  3.774545  0  0  -0.08323  0  4.018247  0  0  -0.084597  0  4.040312  0  0  -0.092797  -0.081973  0  4.002096  0
C  C64  1  0.24998974  0.51059561  0.51060064  1  0  -0.071008  0  3.774739  0  0  -0.08321  0  4.01843  0  0  -0.084578  0  4.040499  0  0  -0.092817  -0.081914  0  4.002293  0
C  C65  1  0.74998704  0.51059020  0.00000843  1  0  -0.071237  0  3.774479  0  0  -0.083388  0  4.018199  0  0  -0.084751  0  4.040263  0  0  -0.092843  -0.082119  0  4.002053  0
C  C66  1  0.74998780  0.99998877  0.51056622  1  0  -0.07106  0  3.774752  0  0  -0.083188  0  4.018425  0  0  -0.084555  0  4.04049  0  0  -0.092784  -0.081933  0  4.002275  0
C  C67  1  0.75001582  0.48941651  0.48941588  1  0  -0.071259  0  3.77428  0  0  -0.083391  0  4.017973  0  0  -0.084759  0  4.040047  0  0  -0.092848  -0.082122  0  4.001827  0
F  F68  1  0.00000138  0.00000029  0.99999618  1  0  -0.560121  0  0.969949  0  0  -0.479434  0  1.181633  0  0  -0.49702  0  1.163734  0  0  -0.262878  -0.466355  0  1.193194  0
F  F69  1  0.50000085  0.99999665  0.00000262  1  0  -0.560156  0  0.969965  0  0  -0.479493  0  1.181695  0  0  -0.497047  0  1.163724  0  0  -0.262899  -0.466422  0  1.193268  0
