# generated using pymatgen
data_P2H20Pb(C6O)4
_symmetry_space_group_name_H-M   'P 1'
_cell_length_a   8.60916029
_cell_length_b   10.89124716
_cell_length_c   12.16700000
_cell_angle_alpha   91.05441261
_cell_angle_beta   106.12344683
_cell_angle_gamma   96.34655177
_symmetry_Int_Tables_number   1
_chemical_formula_structural   P2H20Pb(C6O)4
_chemical_formula_sum   'P4 H40 Pb2 C48 O8'
_cell_volume   1087.80072110
_cell_formula_units_Z   2
loop_
 _symmetry_equiv_pos_site_id
 _symmetry_equiv_pos_as_xyz
  1  'x, y, z'
loop_
 _atom_site_type_symbol
 _atom_site_label
 _atom_site_symmetry_multiplicity
 _atom_site_fract_x
 _atom_site_fract_y
 _atom_site_fract_z
 _atom_site_occupancy
 _atom_site_hle17_bader_spin_density
 _atom_site_hle17_ddec_charge
 _atom_site_hle17_ddec_spin_density
 _atom_site_hle17_ddec_sum_bond_order
 _atom_site_hle17_magmom
 _atom_site_hse06_10hf_bader_spin_density
 _atom_site_hse06_10hf_ddec_charge
 _atom_site_hse06_10hf_ddec_spin_density
 _atom_site_hse06_10hf_ddec_sum_bond_order
 _atom_site_hse06_10hf_magmom
 _atom_site_hse06_bader_spin_density
 _atom_site_hse06_ddec_charge
 _atom_site_hse06_ddec_spin_density
 _atom_site_hse06_ddec_sum_bond_order
 _atom_site_hse06_magmom
 _atom_site_pbe_bader_charge
 _atom_site_pbe_bader_spin_density
 _atom_site_pbe_cm5_charge
 _atom_site_pbe_ddec_charge
 _atom_site_pbe_ddec_spin_density
 _atom_site_pbe_ddec_sum_bond_order
 _atom_site_pbe_magmom
P  P0  1  0.10253483  0.96061979  0.83865298  1  0  1.180953  0  4.742939  0  0  1.047557  0  5.201186  0  0  1.090295  0  5.177813  0  3.089474  0  0.306493  1.017812  0  5.21664  0
P  P1  1  0.89746924  0.03937771  0.16134868  1  0  1.180966  0  4.74306  0  0  1.047512  0  5.201431  0  0  1.090252  0  5.178063  0  3.089432  0  0.306447  1.017768  0  5.216873  0
P  P2  1  0.06122219  0.55946910  0.17750150  1  0  1.189261  0  4.741766  0  0  1.053971  0  5.203694  0  0  1.097165  0  5.179873  0  3.114361  0  0.304474  1.023744  0  5.219674  0
P  P3  1  0.93877854  0.44053025  0.82250036  1  0  1.189179  0  4.741889  0  0  1.053922  0  5.203793  0  0  1.097114  0  5.179971  0  3.11456  0  0.304443  1.023693  0  5.219771  0
H  H4  1  0.69746786  0.87691441  0.37963499  1  0  0.084839  0  0.957095  0  0  0.096813  0  1.016551  0  0  0.098636  0  1.016956  0  0.082171  0  0.098387  0.095556  0  1.01626  0
H  H5  1  0.30252815  0.12309327  0.62036936  1  0  0.084818  0  0.957058  0  0  0.09681  0  1.016498  0  0  0.098633  0  1.016904  0  0.082148  0  0.098344  0.095553  0  1.016209  0
H  H6  1  0.75780880  0.08819282  0.47268582  1  0  0.08163  0  0.979107  0  0  0.091577  0  1.043362  0  0  0.093472  0  1.044408  0  0.058567  0  0.095172  0.090399  0  1.042351  0
H  H7  1  0.24220989  0.91181301  0.52731885  1  0  0.081591  0  0.979057  0  0  0.091506  0  1.043354  0  0  0.09339  0  1.044414  0  0.058661  0  0.09516  0.090335  0  1.042325  0
H  H8  1  0.93192007  0.12359742  0.67331674  1  0  0.088881  0  0.962783  0  0  0.098375  0  1.028368  0  0  0.100948  0  1.027263  0  0.090284  0  0.100647  0.096485  0  1.029352  0
H  H9  1  0.06809048  0.87640285  0.32668706  1  0  0.08894  0  0.962816  0  0  0.098488  0  1.028332  0  0  0.101064  0  1.027221  0  0.090257  0  0.100668  0.096597  0  1.029315  0
H  H10  1  0.31679649  0.76109299  0.28290253  1  0  0.09014  0  0.974792  0  0  0.098341  0  1.043586  0  0  0.100773  0  1.043007  0  0.092033  0  0.101001  0.096609  0  1.043963  0
H  H11  1  0.68319819  0.23890636  0.71709074  1  0  0.090129  0  0.974787  0  0  0.098349  0  1.043541  0  0  0.100787  0  1.042948  0  0.091842  0  0.101027  0.096612  0  1.043934  0
H  H12  1  0.49109682  0.80495074  0.48370163  1  0  0.080911  0  0.982651  0  0  0.091823  0  1.043567  0  0  0.094236  0  1.043479  0  0.08252  0  0.095978  0.090164  0  1.043579  0
H  H13  1  0.50889607  0.19504491  0.51629288  1  0  0.080864  0  0.982738  0  0  0.091777  0  1.043654  0  0  0.09419  0  1.04357  0  0.082422  0  0.095957  0.090119  0  1.043664  0
H  H14  1  0.44600336  0.66979939  0.63817702  1  0  0.08071  0  0.967932  0  0  0.093574  0  1.02751  0  0  0.096069  0  1.026537  0  0.064456  0  0.097994  0.091817  0  1.028146  0
H  H15  1  0.55399572  0.33019718  0.36181953  1  0  0.080697  0  0.968052  0  0  0.093622  0  1.027571  0  0  0.096079  0  1.02664  0  0.064753  0  0.098006  0.091865  0  1.028209  0
H  H16  1  0.21993758  0.49932392  0.59382083  1  0  0.081842  0  0.988463  0  0  0.091047  0  1.054589  0  0  0.092929  0  1.055385  0  0.062608  0  0.094261  0.089623  0  1.054311  0
H  H17  1  0.78006227  0.50066988  0.40617747  1  0  0.081867  0  0.98856  0  0  0.091083  0  1.054645  0  0  0.092966  0  1.055441  0  0.062543  0  0.094253  0.089659  0  1.054367  0
H  H18  1  0.04569973  0.45514333  0.39348567  1  0  0.081378  0  0.970116  0  0  0.093673  0  1.034159  0  0  0.095706  0  1.033871  0  0.052264  0  0.099681  0.09222  0  1.034358  0
H  H19  1  0.95429540  0.54485879  0.60651349  1  0  0.081386  0  0.97009  0  0  0.093682  0  1.034143  0  0  0.095717  0  1.033854  0  0.052313  0  0.099679  0.092229  0  1.034341  0
H  H20  1  0.29687255  0.81555464  0.73055359  1  0  0.085038  0  0.957688  0  0  0.095501  0  1.023678  0  0  0.097677  0  1.023296  0  0.071947  0  0.099587  0.093808  0  1.024201  0
H  H21  1  0.70313789  0.18443731  0.26945827  1  0  0.085065  0  0.957648  0  0  0.095495  0  1.023684  0  0  0.097671  0  1.023303  0  0.07204  0  0.099593  0.093803  0  1.024204  0
H  H22  1  0.85102186  0.71792071  0.24985823  1  0  0.092418  0  0.956634  0  0  0.102736  0  1.020667  0  0  0.105668  0  1.019194  0  0.069176  0  0.102409  0.100399  0  1.022157  0
H  H23  1  0.14897634  0.28207031  0.75015039  1  0  0.09235  0  0.956731  0  0  0.102701  0  1.020724  0  0  0.105636  0  1.019246  0  0.069111  0  0.102396  0.100357  0  1.022217  0
H  H24  1  0.55928401  0.68525150  0.24613394  1  0  0.08435  0  0.970019  0  0  0.095389  0  1.032167  0  0  0.097593  0  1.032382  0  0.097223  0  0.098167  0.093875  0  1.032  0
H  H25  1  0.44071496  0.31473675  0.75387396  1  0  0.084422  0  0.969994  0  0  0.095376  0  1.032227  0  0  0.097578  0  1.032444  0  0.097049  0  0.098174  0.093864  0  1.032057  0
H  H26  1  0.38985170  0.48725752  0.16632824  1  0  0.092865  0  0.988676  0  0  0.101005  0  1.052625  0  0  0.104551  0  1.050324  0  0.113166  0  0.098862  0.098395  0  1.054361  0
H  H27  1  0.61014573  0.51273628  0.83366466  1  0  0.092723  0  0.988803  0  0  0.100853  0  1.052765  0  0  0.104404  0  1.050454  0  0.113183  0  0.098812  0.098244  0  1.0545  0
H  H28  1  0.51482774  0.31943603  0.09098689  1  0  0.063019  0  0.989605  0  0  0.072325  0  1.059719  0  0  0.074112  0  1.060923  0  0.066738  0  0.093772  0.071218  0  1.058681  0
H  H29  1  0.48517493  0.68056795  0.90899899  1  0  0.062967  0  0.9896  0  0  0.072248  0  1.059778  0  0  0.07403  0  1.060987  0  0.066638  0  0.093756  0.071162  0  1.05868  0
H  H30  1  0.80680223  0.34899891  0.09848066  1  0  0.109367  0  0.97076  0  0  0.115059  0  1.038462  0  0  0.118816  0  1.035654  0  0.134078  0  0.104953  0.112178  0  1.040708  0
H  H31  1  0.19319924  0.65100507  0.90151074  1  0  0.109403  0  0.970729  0  0  0.115093  0  1.038441  0  0  0.118851  0  1.03563  0  0.134093  0  0.104994  0.112212  0  1.040688  0
H  H32  1  0.58503288  0.85238197  0.72517294  1  0  0.078084  0  0.971631  0  0  0.090258  0  1.032005  0  0  0.092576  0  1.032139  0  0.051957  0  0.09698  0.088539  0  1.032089  0
H  H33  1  0.41497723  0.14761553  0.27483156  1  0  0.078046  0  0.971651  0  0  0.09027  0  1.031975  0  0  0.092587  0  1.032106  0  0.052238  0  0.09699  0.088553  0  1.032055  0
H  H34  1  0.76441188  0.04032034  0.82674288  1  0  0.100259  0  0.974417  0  0  0.107248  0  1.040757  0  0  0.110476  0  1.039046  0  0.118071  0  0.101543  0.104851  0  1.042155  0
H  H35  1  0.23559215  0.95968456  0.17325807  1  0  0.100262  0  0.974283  0  0  0.107214  0  1.040679  0  0  0.110443  0  1.03897  0  0.118139  0  0.101541  0.104819  0  1.042074  0
H  H36  1  0.65334230  0.19315040  0.92653014  1  0  0.10859  0  0.946238  0  0  0.118493  0  1.005539  0  0  0.121604  0  1.004108  0  0.130288  0  0.105324  0.116174  0  1.006719  0
H  H37  1  0.34665869  0.80685820  0.07346781  1  0  0.108666  0  0.94616  0  0  0.118555  0  1.005467  0  0  0.121676  0  1.004022  0  0.13026  0  0.105345  0.116237  0  1.006647  0
H  H38  1  0.36262160  0.15973559  0.92789358  1  0  0.052875  0  1.015142  0  0  0.061534  0  1.091321  0  0  0.063393  0  1.09148  0  0.049415  0  0.092686  0.060144  0  1.091283  0
H  H39  1  0.63737668  0.84027116  0.07210299  1  0  0.052862  0  1.015143  0  0  0.061581  0  1.091208  0  0  0.063442  0  1.09136  0  0.05  0  0.092723  0.060174  0  1.091228  0
H  H40  1  0.97988491  0.73444403  0.69132378  1  0  0.088765  0  0.969785  0  0  0.095955  0  1.039162  0  0  0.099004  0  1.037268  0  0.08586  0  0.099413  0.093785  0  1.040592  0
H  H41  1  0.02010978  0.26555532  0.30867360  1  0  0.08867  0  0.969752  0  0  0.095873  0  1.039134  0  0  0.098925  0  1.037238  0  0.085849  0  0.099381  0.093705  0  1.040559  0
H  H42  1  0.80518245  0.69905516  0.48965068  1  0  0.082799  0  0.977663  0  0  0.093963  0  1.040442  0  0  0.0961  0  1.04076  0  0.080034  0  0.096513  0.09278  0  1.039584  0
H  H43  1  0.19480132  0.30095159  0.51035126  1  0  0.082767  0  0.977743  0  0  0.093952  0  1.040489  0  0  0.096085  0  1.040813  0  0.079993  0  0.096563  0.092769  0  1.039633  0
Pb  Pb44  1  0.88675255  0.74902381  0.97051901  1  0  1.345442  0  1.583192  0  0  1.182911  0  1.994638  0  0  1.224946  0  1.959323  0  1.42555  0  0.671477  1.152028  0  2.020202  0
Pb  Pb45  1  0.11325013  0.25098016  0.02948002  1  0  1.345421  0  1.583143  0  0  1.182925  0  1.994587  0  0  1.224961  0  1.959273  0  1.425565  0  0.671466  1.15204  0  2.020147  0
C  C46  1  0.31089277  0.98532244  0.83051865  1  0  -0.209913  0  3.758391  0  0  -0.169391  0  3.99407  0  0  -0.17892  0  4.018397  0  -0.547387  0  -0.027565  -0.163304  0  3.978105  0
C  C47  1  0.68911415  0.01467784  0.16948526  1  0  -0.210078  0  3.758862  0  0  -0.169459  0  3.994466  0  0  -0.178993  0  4.018803  0  -0.547187  0  -0.027565  -0.163364  0  3.978486  0
C  C48  1  0.77318280  0.89175783  0.46807886  1  0  -0.059914  0  3.761706  0  0  -0.070571  0  4.00464  0  0  -0.070692  0  4.024748  0  -0.109738  0  -0.086673  -0.070237  0  3.990824  0
C  C49  1  0.22681668  0.10824892  0.53192205  1  0  -0.059845  0  3.761654  0  0  -0.070522  0  4.004584  0  0  -0.07064  0  4.024686  0  -0.10935  0  -0.086558  -0.070188  0  3.990769  0
C  C50  1  0.80726654  0.01075931  0.51997405  1  0  -0.066966  0  3.757717  0  0  -0.078505  0  4.000546  0  0  -0.081866  0  4.0232  0  0.02763  0  -0.089585  -0.076194  0  3.984612  0
C  C51  1  0.19273401  0.98924652  0.48003035  1  0  -0.066899  0  3.757592  0  0  -0.078386  0  4.000439  0  0  -0.081738  0  4.023094  0  0.027131  0  -0.08958  -0.076071  0  3.984506  0
C  C52  1  0.90614944  0.03090421  0.63227451  1  0  -0.041287  0  3.752265  0  0  -0.060637  0  3.99215  0  0  -0.060669  0  4.0145  0  -0.07261  0  -0.080286  -0.060505  0  3.97674  0
C  C53  1  0.09385507  0.96909606  0.36773139  1  0  -0.041383  0  3.752386  0  0  -0.060785  0  3.992283  0  0  -0.060814  0  4.014635  0  -0.072077  0  -0.080306  -0.060652  0  3.976866  0
C  C54  1  0.17350478  0.60327412  0.32472662  1  0  -0.211569  0  3.768959  0  0  -0.171048  0  4.005654  0  0  -0.180586  0  4.02961  0  -0.535565  0  -0.028999  -0.164465  0  3.989599  0
C  C55  1  0.82648734  0.39672431  0.67527271  1  0  -0.211386  0  3.768776  0  0  -0.170859  0  4.005452  0  0  -0.180397  0  4.029409  0  -0.535385  0  -0.028903  -0.164274  0  3.989393  0
C  C56  1  0.29751299  0.70292003  0.35105470  1  0  -0.046931  0  3.743802  0  0  -0.066559  0  3.982299  0  0  -0.066398  0  4.003558  0  -0.09628  0  -0.08155  -0.06674  0  3.967866  0
C  C57  1  0.70248291  0.29707932  0.64894292  1  0  -0.046904  0  3.743683  0  0  -0.066526  0  3.982189  0  0  -0.066362  0  4.003451  0  -0.096188  0  -0.081581  -0.066708  0  3.967749  0
C  C58  1  0.39457392  0.72755053  0.46376964  1  0  -0.074755  0  3.771201  0  0  -0.083569  0  4.01276  0  0  -0.086447  0  4.033761  0  -0.061642  0  -0.091214  -0.082024  0  3.998407  0
C  C59  1  0.60542003  0.27244420  0.53622670  1  0  -0.074827  0  3.771076  0  0  -0.083666  0  4.012679  0  0  -0.086546  0  4.033669  0  -0.061563  0  -0.09123  -0.082117  0  3.998321  0
C  C60  1  0.36825626  0.65310494  0.55054687  1  0  -0.060614  0  3.762256  0  0  -0.072971  0  4.001182  0  0  -0.073553  0  4.021618  0  -0.051716  0  -0.088696  -0.071985  0  3.987127  0
C  C61  1  0.63173905  0.34689071  0.44944729  1  0  -0.060462  0  3.762063  0  0  -0.072866  0  4.000976  0  0  -0.073417  0  4.021424  0  -0.052121  0  -0.088658  -0.07188  0  3.986919  0
C  C62  1  0.24146233  0.55599922  0.52539566  1  0  -0.081163  0  3.773615  0  0  -0.090015  0  4.016122  0  0  -0.093087  0  4.038296  0  -0.033906  0  -0.095207  -0.088241  0  4.001197  0
C  C63  1  0.75853052  0.44400383  0.47459978  1  0  -0.081236  0  3.773521  0  0  -0.090101  0  4.016055  0  0  -0.093171  0  4.038216  0  -0.033674  0  -0.095208  -0.088325  0  4.001127  0
C  C64  1  0.14451668  0.53112729  0.41297144  1  0  -0.05222  0  3.759268  0  0  -0.072956  0  3.997412  0  0  -0.073451  0  4.020195  0  -0.062737  0  -0.083518  -0.072582  0  3.98162  0
C  C65  1  0.85547892  0.46887021  0.58702774  1  0  -0.052389  0  3.759152  0  0  -0.073134  0  3.997322  0  0  -0.073632  0  4.02011  0  -0.062921  0  -0.083627  -0.07276  0  3.981529  0
C  C66  1  0.84794929  0.53536496  0.17385069  1  0  -0.258517  0  3.838786  0  0  -0.214999  0  4.074055  0  0  -0.225833  0  4.099751  0  -0.558019  0  -0.034952  -0.20764  0  4.056154  0
C  C67  1  0.15204811  0.46463624  0.82614726  1  0  -0.258349  0  3.838486  0  0  -0.214853  0  4.073828  0  0  -0.225693  0  4.099547  0  -0.557511  0  -0.034885  -0.207493  0  4.055926  0
C  C68  1  0.37438073  0.89854403  0.77355776  1  0  -0.049485  0  3.756752  0  0  -0.069994  0  3.999731  0  0  -0.069936  0  4.021848  0  -0.071926  0  -0.083727  -0.070067  0  3.984899  0
C  C69  1  0.62563151  0.10145162  0.22645123  1  0  -0.049482  0  3.756761  0  0  -0.070005  0  3.999769  0  0  -0.06995  0  4.02189  0  -0.072682  0  -0.083698  -0.070077  0  3.984928  0
C  C70  1  0.77727359  0.63034490  0.21507960  1  0  -0.091562  0  3.811713  0  0  -0.110208  0  4.055664  0  0  -0.11094  0  4.078193  0  -0.079499  0  -0.08773  -0.109036  0  4.040112  0
C  C71  1  0.22272490  0.36964797  0.78492171  1  0  -0.091496  0  3.811649  0  0  -0.11014  0  4.055562  0  0  -0.11087  0  4.07808  0  -0.079667  0  -0.087698  -0.10896  0  4.040005  0
C  C72  1  0.61341979  0.61231005  0.21285134  1  0  -0.066439  0  3.754782  0  0  -0.076562  0  3.99778  0  0  -0.07959  0  4.019364  0  -0.11021  0  -0.090053  -0.074941  0  3.983319  0
C  C73  1  0.38657885  0.38768375  0.78715002  1  0  -0.066644  0  3.755023  0  0  -0.076719  0  3.99806  0  0  -0.079747  0  4.019647  0  -0.110146  0  -0.090139  -0.075099  0  3.983599  0
C  C74  1  0.51807579  0.50061992  0.16814876  1  0  -0.0601  0  3.736264  0  0  -0.070669  0  3.974399  0  0  -0.071035  0  3.994396  0  -0.068273  0  -0.085269  -0.070472  0  3.961278  0
C  C75  1  0.48192135  0.49937203  0.83184734  1  0  -0.05974  0  3.73652  0  0  -0.070267  0  3.974551  0  0  -0.070629  0  3.994554  0  -0.068077  0  -0.085085  -0.070076  0  3.961436  0
C  C76  1  0.58790374  0.40695078  0.12617569  1  0  -0.075122  0  3.774875  0  0  -0.083544  0  4.017775  0  0  -0.087609  0  4.041342  0  -0.057057  0  -0.089974  -0.081131  0  4.001812  0
C  C77  1  0.41209534  0.59304579  0.87381347  1  0  -0.075188  0  3.775012  0  0  -0.083597  0  4.017934  0  0  -0.087661  0  4.041502  0  -0.056962  0  -0.090037  -0.081178  0  4.001976  0
C  C78  1  0.75235170  0.42326504  0.12951480  1  0  -0.03628  0  3.719525  0  0  -0.059003  0  3.961888  0  0  -0.058099  0  3.982167  0  -0.080205  0  -0.078661  -0.058915  0  3.947738  0
C  C79  1  0.24765189  0.57673709  0.87047945  1  0  -0.036402  0  3.719471  0  0  -0.059154  0  3.961913  0  0  -0.05825  0  3.982186  0  -0.080579  0  -0.078743  -0.059069  0  3.947767  0
C  C80  1  0.53659735  0.91867598  0.77138198  1  0  -0.109112  0  3.810106  0  0  -0.117698  0  4.056021  0  0  -0.12202  0  4.079974  0  -0.077289  0  -0.095799  -0.11454  0  4.039473  0
C  C81  1  0.46341291  0.08132244  0.22862173  1  0  -0.109003  0  3.810318  0  0  -0.117637  0  4.056217  0  0  -0.121955  0  4.080167  0  -0.077296  0  -0.095784  -0.114477  0  4.039667  0
C  C82  1  0.63719249  0.02441773  0.82698228  1  0  -0.065779  0  3.746386  0  0  -0.078594  0  3.99292  0  0  -0.079637  0  4.013792  0  -0.067918  0  -0.087088  -0.077622  0  3.978401  0
C  C83  1  0.36281608  0.97558532  0.17302201  1  0  -0.065764  0  3.746454  0  0  -0.078536  0  3.992983  0  0  -0.079581  0  4.013861  0  -0.069006  0  -0.087108  -0.077566  0  3.978467  0
C  C84  1  0.57433649  0.11109439  0.88342788  1  0  -0.064088  0  3.72936  0  0  -0.076744  0  3.978083  0  0  -0.079186  0  3.99812  0  -0.05015  0  -0.087842  -0.074851  0  3.964186  0
C  C85  1  0.42566875  0.88891051  0.11657167  1  0  -0.064221  0  3.729368  0  0  -0.076877  0  3.97813  0  0  -0.079326  0  3.998162  0  -0.048835  0  -0.087847  -0.07498  0  3.964229  0
C  C86  1  0.41197233  0.09174780  0.88445338  1  0  -0.050184  0  3.780885  0  0  -0.069743  0  4.020026  0  0  -0.0705  0  4.043727  0  -0.050042  0  -0.082545  -0.069276  0  4.004082  0
C  C87  1  0.58803170  0.90825710  0.11554593  1  0  -0.050143  0  3.781004  0  0  -0.069768  0  4.020193  0  0  -0.070522  0  4.043894  0  -0.050686  0  -0.082652  -0.069309  0  4.004242  0
C  C88  1  0.97111486  0.93192183  0.69391282  1  0  -0.236173  0  3.803539  0  0  -0.195786  0  4.040698  0  0  -0.206033  0  4.065588  0  -0.55554  0  -0.03305  -0.188756  0  4.023797  0
C  C89  1  0.02888920  0.06807567  0.30609048  1  0  -0.236171  0  3.803477  0  0  -0.195811  0  4.040688  0  0  -0.206075  0  4.065611  0  -0.555939  0  -0.033055  -0.188806  0  4.023857  0
C  C90  1  0.93371219  0.81196820  0.64209277  1  0  -0.062803  0  3.771937  0  0  -0.081983  0  4.013418  0  0  -0.082062  0  4.03526  0  -0.075353  0  -0.08659  -0.081867  0  3.998417  0
C  C91  1  0.06627495  0.18802930  0.35791050  1  0  -0.06263  0  3.771906  0  0  -0.081796  0  4.013398  0  0  -0.081874  0  4.035248  0  -0.075031  0  -0.086519  -0.081678  0  3.998387  0
C  C92  1  0.83529250  0.79226640  0.52941146  1  0  -0.07635  0  3.764877  0  0  -0.086981  0  4.007511  0  0  -0.090427  0  4.029566  0  -0.091257  0  -0.092959  -0.084542  0  3.991822  0
C  C93  1  0.16469823  0.20773850  0.47059017  1  0  -0.076441  0  3.765093  0  0  -0.087098  0  4.007777  0  0  -0.090538  0  4.029834  0  -0.09165  0  -0.093115  -0.084656  0  3.992081  0
O  O94  1  0.08907859  0.84052093  0.90210397  1  0  -0.7853  0  2.012647  0  0  -0.688687  0  2.272965  0  0  -0.716185  0  2.25723  0  -1.417565  0  -0.336624  -0.669047  0  2.283712  0
O  O95  1  0.91092258  0.15948120  0.09790048  1  0  -0.785282  0  2.012558  0  0  -0.688694  0  2.27293  0  0  -0.71618  0  2.257189  0  -1.417504  0  -0.336603  -0.669049  0  2.283671  0
O  O96  1  0.06068055  0.07727441  0.88814040  1  0  -0.82616  0  2.027255  0  0  -0.743745  0  2.298906  0  0  -0.76978  0  2.2818  0  -1.461152  0  -0.353925  -0.724826  0  2.310392  0
O  O97  1  0.93932531  0.92272680  0.11186085  1  0  -0.82616  0  2.027306  0  0  -0.743715  0  2.298964  0  0  -0.769736  0  2.281831  0  -1.461195  0  -0.353913  -0.724793  0  2.310447  0
O  O98  1  0.08782685  0.67104452  0.10594640  1  0  -0.775542  0  1.967878  0  0  -0.681684  0  2.225657  0  0  -0.708854  0  2.21016  0  -1.409258  0  -0.337928  -0.662181  0  2.236092  0
O  O99  1  0.91216721  0.32895854  0.89405503  1  0  -0.775524  0  1.967991  0  0  -0.681699  0  2.225788  0  0  -0.708868  0  2.210291  0  -1.409466  0  -0.337924  -0.662194  0  2.236222  0
O  O100  1  0.88564613  0.56135898  0.85436737  1  0  -0.830046  0  2.006692  0  0  -0.746241  0  2.274528  0  0  -0.773327  0  2.257873  0  -1.457558  0  -0.357718  -0.726586  0  2.285448  0
O  O101  1  0.11434900  0.43864314  0.14563015  1  0  -0.830055  0  2.00668  0  0  -0.746255  0  2.274533  0  0  -0.77334  0  2.257878  0  -1.457546  0  -0.357744  -0.726596  0  2.285444  0
