# generated using pymatgen
data_UH14C23N3ClO6
_symmetry_space_group_name_H-M   'P 1'
_cell_length_a   9.63349295
_cell_length_b   9.63351050
_cell_length_c   12.18687149
_cell_angle_alpha   104.25687871
_cell_angle_beta   104.25659301
_cell_angle_gamma   100.08556498
_symmetry_Int_Tables_number   1
_chemical_formula_structural   UH14C23N3ClO6
_chemical_formula_sum   'U2 H28 C46 N6 Cl2 O12'
_cell_volume   1028.39537829
_cell_formula_units_Z   2
loop_
 _symmetry_equiv_pos_site_id
 _symmetry_equiv_pos_as_xyz
  1  'x, y, z'
loop_
 _atom_site_type_symbol
 _atom_site_label
 _atom_site_symmetry_multiplicity
 _atom_site_fract_x
 _atom_site_fract_y
 _atom_site_fract_z
 _atom_site_occupancy
 _atom_site_hle17_bader_spin_density
 _atom_site_hle17_ddec_charge
 _atom_site_hle17_ddec_spin_density
 _atom_site_hle17_ddec_sum_bond_order
 _atom_site_hle17_magmom
 _atom_site_hse06_10hf_bader_spin_density
 _atom_site_hse06_10hf_ddec_charge
 _atom_site_hse06_10hf_ddec_spin_density
 _atom_site_hse06_10hf_ddec_sum_bond_order
 _atom_site_hse06_10hf_magmom
 _atom_site_hse06_bader_spin_density
 _atom_site_hse06_ddec_charge
 _atom_site_hse06_ddec_spin_density
 _atom_site_hse06_ddec_sum_bond_order
 _atom_site_hse06_magmom
 _atom_site_pbe_bader_spin_density
 _atom_site_pbe_cm5_charge
 _atom_site_pbe_ddec_charge
 _atom_site_pbe_ddec_spin_density
 _atom_site_pbe_ddec_sum_bond_order
 _atom_site_pbe_magmom
U  U0  1  0.07801506  0.92197551  0.75000318  1  0  2.315047  0  4.236784  0  0  2.342123  0  4.925903  0  0  2.451282  0  4.891448  0  0  2.158935  2.266069  0  4.950071  0
U  U1  1  0.92198238  0.07802020  0.24999905  1  0  2.315231  0  4.236669  0  0  2.342305  0  4.925831  0  0  2.451482  0  4.891337  0  0  2.159038  2.266242  0  4.949991  0
H  H2  1  0.16950453  0.09544278  0.04479340  1  0  0.089003  0  0.966829  0  0  0.099408  0  1.025516  0  0  0.102185  0  1.022506  0  0  0.129869  0.097436  0  1.027633  0
H  H3  1  0.90456090  0.83049934  0.45521005  1  0  0.088998  0  0.966837  0  0  0.099403  0  1.025515  0  0  0.10218  0  1.022505  0  0  0.129858  0.097428  0  1.027632  0
H  H4  1  0.83049782  0.90455962  0.95520703  1  0  0.089021  0  0.966821  0  0  0.099424  0  1.025492  0  0  0.102201  0  1.022481  0  0  0.129868  0.097453  0  1.027608  0
H  H5  1  0.09543846  0.16949973  0.54478994  1  0  0.088931  0  0.966806  0  0  0.099347  0  1.025473  0  0  0.102122  0  1.022467  0  0  0.12984  0.097372  0  1.027589  0
H  H6  1  0.33352645  0.12653461  0.24367461  1  0  0.112136  0  0.966694  0  0  0.122939  0  1.023652  0  0  0.125371  0  1.024067  0  0  0.114629  0.121275  0  1.023206  0
H  H7  1  0.87347102  0.66647604  0.25632704  1  0  0.112137  0  0.966719  0  0  0.122896  0  1.023718  0  0  0.125327  0  1.024136  0  0  0.114632  0.121233  0  1.02327  0
H  H8  1  0.66647320  0.87346558  0.75632484  1  0  0.112135  0  0.966714  0  0  0.122913  0  1.023705  0  0  0.125341  0  1.02413  0  0  0.114622  0.12125  0  1.023256  0
H  H9  1  0.12652728  0.33352303  0.74367192  1  0  0.11211  0  0.966806  0  0  0.122907  0  1.023759  0  0  0.125342  0  1.024168  0  0  0.114642  0.121244  0  1.023316  0
H  H10  1  0.76122718  0.14875667  0.58527958  1  0  0.096881  0  0.979269  0  0  0.106125  0  1.042115  0  0  0.108667  0  1.042203  0  0  0.101288  0.104092  0  1.042465  0
H  H11  1  0.85124235  0.23877470  0.91472030  1  0  0.096889  0  0.979264  0  0  0.106119  0  1.042129  0  0  0.108661  0  1.042216  0  0  0.101306  0.10409  0  1.042472  0
H  H12  1  0.23877219  0.85124240  0.41472042  1  0  0.096885  0  0.979293  0  0  0.106112  0  1.042156  0  0  0.108659  0  1.042227  0  0  0.101288  0.104081  0  1.042502  0
H  H13  1  0.14875787  0.76122771  0.08527807  1  0  0.096899  0  0.979296  0  0  0.106144  0  1.042143  0  0  0.10869  0  1.04222  0  0  0.101307  0.104111  0  1.042491  0
H  H14  1  0.51720658  0.96666723  0.26370641  1  0  0.109004  0  0.94023  0  0  0.119604  0  0.999062  0  0  0.121963  0  0.998103  0  0  0.11451  0.118134  0  0.999408  0
H  H15  1  0.03333655  0.48279621  0.23629630  1  0  0.109012  0  0.940254  0  0  0.119617  0  0.999071  0  0  0.121971  0  0.998128  0  0  0.114523  0.118154  0  0.999412  0
H  H16  1  0.48279413  0.03333295  0.73629408  1  0  0.109023  0  0.940208  0  0  0.119617  0  0.999036  0  0  0.121962  0  0.998112  0  0  0.114513  0.118149  0  0.999384  0
H  H17  1  0.96666337  0.51720507  0.76370424  1  0  0.108963  0  0.94023  0  0  0.119571  0  0.999054  0  0  0.12194  0  0.998074  0  0  0.114506  0.118107  0  0.999403  0
H  H18  1  0.52654520  0.79120894  0.08263689  1  0  0.12727  0  0.97343  0  0  0.134624  0  1.036816  0  0  0.138922  0  1.033777  0  0  0.115642  0.131574  0  1.039  0
H  H19  1  0.20879173  0.47345342  0.41736563  1  0  0.127238  0  0.973419  0  0  0.134598  0  1.036797  0  0  0.138898  0  1.033757  0  0  0.115607  0.131542  0  1.038979  0
H  H20  1  0.47345444  0.20879123  0.91736338  1  0  0.127261  0  0.973447  0  0  0.134616  0  1.036833  0  0  0.138916  0  1.033793  0  0  0.11563  0.131565  0  1.039017  0
H  H21  1  0.79120792  0.52654676  0.58263382  1  0  0.127239  0  0.973418  0  0  0.134605  0  1.036793  0  0  0.138904  0  1.033756  0  0  0.115611  0.131551  0  1.038975  0
H  H22  1  0.51936788  0.64918662  0.93956983  1  0  0.148172  0  0.979781  0  0  0.156431  0  1.039765  0  0  0.161273  0  1.036167  0  0  0.117093  0.153009  0  1.042431  0
H  H23  1  0.35081182  0.48062882  0.56043208  1  0  0.148129  0  0.979851  0  0  0.156417  0  1.039797  0  0  0.161257  0  1.036202  0  0  0.117072  0.152993  0  1.042457  0
H  H24  1  0.48063096  0.35081465  0.06043132  1  0  0.148171  0  0.979908  0  0  0.156446  0  1.039859  0  0  0.161288  0  1.036262  0  0  0.117105  0.153024  0  1.042523  0
H  H25  1  0.64918811  0.51937247  0.43956765  1  0  0.148211  0  0.979777  0  0  0.156457  0  1.039788  0  0  0.161298  0  1.036191  0  0  0.117091  0.153033  0  1.042448  0
H  H26  1  0.44334587  0.73290233  0.48342042  1  0  0.087563  0  0.987165  0  0  0.090301  0  1.063651  0  0  0.093651  0  1.061895  0  0  0.092349  0.087988  0  1.064954  0
H  H27  1  0.26709863  0.55665423  0.01658004  1  0  0.087549  0  0.987168  0  0  0.090289  0  1.063652  0  0  0.093651  0  1.061884  0  0  0.092364  0.087975  0  1.064958  0
H  H28  1  0.55665349  0.26709674  0.51657957  1  0  0.08758  0  0.987177  0  0  0.090323  0  1.063651  0  0  0.093673  0  1.061894  0  0  0.092365  0.08801  0  1.064956  0
H  H29  1  0.73290236  0.44334707  0.98341990  1  0  0.087574  0  0.987162  0  0  0.090311  0  1.063643  0  0  0.093662  0  1.061886  0  0  0.092361  0.087998  0  1.064948  0
C  C30  1  0.25056714  0.03058100  0.05505587  1  0  0.154503  0  3.677909  0  0  0.125568  0  3.940219  0  0  0.135498  0  3.954242  0  0  0.065746  0.118838  0  3.930792  0
C  C31  1  0.96942155  0.74943355  0.44494642  1  0  0.15452  0  3.677827  0  0  0.125606  0  3.940105  0  0  0.135534  0  3.95413  0  0  0.065756  0.118876  0  3.930668  0
C  C32  1  0.74943171  0.96942029  0.94494364  1  0  0.154443  0  3.677976  0  0  0.125534  0  3.940255  0  0  0.135465  0  3.954279  0  0  0.065736  0.118805  0  3.930827  0
C  C33  1  0.03057702  0.25056662  0.55505363  1  0  0.154539  0  3.677804  0  0  0.125603  0  3.940112  0  0  0.135533  0  3.954136  0  0  0.065751  0.118875  0  3.930675  0
C  C34  1  0.34166139  0.04522699  0.16746487  1  0  -0.108861  0  3.694151  0  0  -0.121344  0  3.942124  0  0  -0.127594  0  3.961506  0  0  -0.072619  -0.11667  0  3.928948  0
C  C35  1  0.95477914  0.65834055  0.33253659  1  0  -0.10889  0  3.694062  0  0  -0.121352  0  3.942055  0  0  -0.1276  0  3.961438  0  0  -0.072661  -0.116679  0  3.928878  0
C  C36  1  0.65833881  0.95477540  0.83253513  1  0  -0.108875  0  3.694215  0  0  -0.121362  0  3.942204  0  0  -0.127612  0  3.961583  0  0  -0.072627  -0.116686  0  3.929026  0
C  C37  1  0.04522024  0.34165852  0.66746259  1  0  -0.108895  0  3.694154  0  0  -0.121386  0  3.94216  0  0  -0.127636  0  3.961546  0  0  -0.072669  -0.116716  0  3.928987  0
C  C38  1  0.64664528  0.08459727  0.54733256  1  0  -0.062098  0  3.713344  0  0  -0.084712  0  3.9594  0  0  -0.085111  0  3.979594  0  0  -0.083933  -0.083976  0  3.945781  0
C  C39  1  0.91540451  0.35335586  0.95266781  1  0  -0.062068  0  3.713365  0  0  -0.084688  0  3.959421  0  0  -0.085088  0  3.97962  0  0  -0.083981  -0.083952  0  3.945802  0
C  C40  1  0.35335463  0.91540399  0.45266962  1  0  -0.06217  0  3.713451  0  0  -0.084753  0  3.959512  0  0  -0.085148  0  3.979707  0  0  -0.083929  -0.084018  0  3.945889  0
C  C41  1  0.08459651  0.64664545  0.04732967  1  0  -0.062145  0  3.713394  0  0  -0.084771  0  3.959452  0  0  -0.085169  0  3.979654  0  0  -0.083963  -0.084033  0  3.945831  0
C  C42  1  0.44184442  0.95767498  0.17789380  1  0  0.007578  0  3.693772  0  0  -0.011577  0  3.944076  0  0  -0.007587  0  3.961261  0  0  -0.057489  -0.014324  0  3.932221  0
C  C43  1  0.04232848  0.55815710  0.32210791  1  0  0.007568  0  3.693636  0  0  -0.01158  0  3.943926  0  0  -0.00759  0  3.961106  0  0  -0.057483  -0.014338  0  3.932067  0
C  C44  1  0.55815658  0.04232631  0.82210614  1  0  0.007602  0  3.693767  0  0  -0.011532  0  3.944044  0  0  -0.007541  0  3.961223  0  0  -0.057479  -0.014281  0  3.932193  0
C  C45  1  0.95766982  0.44184198  0.67789106  1  0  0.007681  0  3.693531  0  0  -0.011459  0  3.943831  0  0  -0.007465  0  3.96102  0  0  -0.057431  -0.014215  0  3.931976  0
C  C46  1  0.44606263  0.85761982  0.07532177  1  0  -0.139263  0  3.662025  0  0  -0.158874  0  3.908555  0  0  -0.165297  0  3.927763  0  0  -0.071684  -0.154186  0  3.895376  0
C  C47  1  0.14238148  0.55393680  0.42468052  1  0  -0.139264  0  3.661972  0  0  -0.158848  0  3.908503  0  0  -0.165262  0  3.927688  0  0  -0.071666  -0.154187  0  3.895398  0
C  C48  1  0.55393729  0.14238146  0.92467878  1  0  -0.139311  0  3.662105  0  0  -0.158924  0  3.908626  0  0  -0.165334  0  3.9278  0  0  -0.071697  -0.15425  0  3.895485  0
C  C49  1  0.85761789  0.44606228  0.57531866  1  0  -0.139283  0  3.661982  0  0  -0.158887  0  3.908553  0  0  -0.165302  0  3.927737  0  0  -0.071651  -0.154218  0  3.895426  0
C  C50  1  0.35090500  0.84870104  0.96471942  1  0  0.173577  0  3.757652  0  0  0.176572  0  3.999041  0  0  0.183045  0  4.019946  0  0  0.126274  0.172414  0  3.984887  0
C  C51  1  0.15129857  0.64909325  0.53528215  1  0  0.173616  0  3.757552  0  0  0.176572  0  3.999047  0  0  0.183038  0  4.019949  0  0  0.126289  0.172405  0  3.98488  0
C  C52  1  0.64909466  0.15129915  0.03527921  1  0  0.173631  0  3.757664  0  0  0.176624  0  3.999051  0  0  0.18311  0  4.019965  0  0  0.126307  0.172465  0  3.984897  0
C  C53  1  0.84870108  0.35090693  0.46471730  1  0  0.173641  0  3.757654  0  0  0.176548  0  3.999141  0  0  0.183037  0  4.020059  0  0  0.126238  0.172374  0  3.984968  0
C  C54  1  0.34931698  0.74332650  0.85331702  1  0  0.213927  0  3.746696  0  0  0.214753  0  3.995193  0  0  0.223616  0  4.013815  0  0  0.132617  0.208765  0  3.982691  0
C  C55  1  0.25667198  0.65068010  0.64668388  1  0  0.214032  0  3.746633  0  0  0.214832  0  3.9952  0  0  0.223721  0  4.013784  0  0  0.132687  0.208852  0  3.982684  0
C  C56  1  0.65068052  0.25667368  0.14668200  1  0  0.213915  0  3.746641  0  0  0.214786  0  3.995089  0  0  0.223608  0  4.013768  0  0  0.132638  0.208795  0  3.982589  0
C  C57  1  0.74332794  0.34932118  0.35331667  1  0  0.213931  0  3.746722  0  0  0.214872  0  3.995112  0  0  0.223677  0  4.01382  0  0  0.132712  0.20892  0  3.982552  0
C  C58  1  0.44347558  0.64810472  0.85673413  1  0  -0.196233  0  3.651559  0  0  -0.224096  0  3.893335  0  0  -0.231289  0  3.910499  0  0  -0.077317  -0.219839  0  3.882299  0
C  C59  1  0.35189264  0.55652124  0.64326692  1  0  -0.196204  0  3.651532  0  0  -0.224072  0  3.893297  0  0  -0.231273  0  3.910453  0  0  -0.077305  -0.219808  0  3.882244  0
C  C60  1  0.55652165  0.35189435  0.14326462  1  0  -0.196267  0  3.651594  0  0  -0.224168  0  3.893366  0  0  -0.231345  0  3.910544  0  0  -0.077356  -0.21991  0  3.882327  0
C  C61  1  0.64810514  0.44348004  0.35673319  1  0  -0.196252  0  3.651588  0  0  -0.224158  0  3.893357  0  0  -0.23133  0  3.910542  0  0  -0.077346  -0.219904  0  3.882294  0
C  C62  1  0.44455799  0.55544123  0.75000167  1  0  0.206365  0  3.791804  0  0  0.213798  0  4.056746  0  0  0.222826  0  4.073401  0  0  0.038342  0.207697  0  4.045767  0
C  C63  1  0.55544111  0.44456114  0.25000057  1  0  0.206379  0  3.79172  0  0  0.213822  0  4.05667  0  0  0.222847  0  4.073328  0  0  0.038333  0.207721  0  4.045689  0
C  C64  1  0.73307607  0.85926577  0.57708236  1  0  0.644293  0  3.885074  0  0  0.606307  0  4.185385  0  0  0.642218  0  4.175603  0  0  0.220549  0.581716  0  4.191202  0
C  C65  1  0.14072749  0.26692577  0.92291625  1  0  0.644328  0  3.884949  0  0  0.606299  0  4.185308  0  0  0.64221  0  4.175531  0  0  0.220583  0.581709  0  4.191127  0
C  C66  1  0.26692409  0.14073220  0.42291757  1  0  0.644246  0  3.884972  0  0  0.606252  0  4.185315  0  0  0.642164  0  4.175536  0  0  0.220597  0.581659  0  4.191132  0
C  C67  1  0.85927322  0.73307441  0.07708424  1  0  0.644237  0  3.88493  0  0  0.606233  0  4.185266  0  0  0.642148  0  4.175486  0  0  0.220568  0.581642  0  4.191083  0
C  C68  1  0.61393341  0.93367733  0.53750030  1  0  -0.057279  0  3.741195  0  0  -0.034934  0  3.968174  0  0  -0.041513  0  3.989733  0  0  -0.013512  -0.030448  0  3.953413  0
C  C69  1  0.06632404  0.38606502  0.96249964  1  0  -0.057342  0  3.741435  0  0  -0.034957  0  3.968363  0  0  -0.041541  0  3.98993  0  0  -0.013481  -0.03047  0  3.953606  0
C  C70  1  0.38606701  0.06632173  0.46250154  1  0  -0.057118  0  3.741075  0  0  -0.034801  0  3.968072  0  0  -0.041383  0  3.989631  0  0  -0.013513  -0.030316  0  3.953314  0
C  C71  1  0.93367670  0.61393518  0.03749839  1  0  -0.057294  0  3.741376  0  0  -0.034925  0  3.968307  0  0  -0.041513  0  3.98987  0  0  -0.013508  -0.030436  0  3.953544  0
C  C72  1  0.46653043  0.84988454  0.49029099  1  0  -0.085607  0  3.758244  0  0  -0.111058  0  4.015306  0  0  -0.113027  0  4.037191  0  0  -0.090102  -0.110001  0  4.000716  0
C  C73  1  0.15011735  0.53346848  0.00971043  1  0  -0.085502  0  3.758095  0  0  -0.110966  0  4.015159  0  0  -0.112946  0  4.037041  0  0  -0.090081  -0.109907  0  4.000568  0
C  C74  1  0.53346813  0.15011562  0.50971070  1  0  -0.085689  0  3.758157  0  0  -0.111134  0  4.015238  0  0  -0.113101  0  4.037121  0  0  -0.090116  -0.110074  0  4.000644  0
C  C75  1  0.84988364  0.46653282  0.99028950  1  0  -0.085639  0  3.758142  0  0  -0.111089  0  4.015205  0  0  -0.113053  0  4.037087  0  0  -0.090095  -0.110031  0  4.000617  0
N  N76  1  0.25593437  0.93682551  0.95504211  1  0  -0.404323  0  3.226137  0  0  -0.374506  0  3.514986  0  0  -0.397412  0  3.539683  0  0  -0.357027  -0.358957  0  3.498079  0
N  N77  1  0.06317634  0.74406712  0.54496093  1  0  -0.40431  0  3.225968  0  0  -0.374522  0  3.514886  0  0  -0.397431  0  3.5396  0  0  -0.357031  -0.358968  0  3.497965  0
N  N78  1  0.74406663  0.06317579  0.04495783  1  0  -0.404258  0  3.226132  0  0  -0.374489  0  3.515043  0  0  -0.397391  0  3.539724  0  0  -0.357009  -0.358938  0  3.49813  0
N  N79  1  0.93682223  0.25593305  0.45503912  1  0  -0.404278  0  3.225971  0  0  -0.37447  0  3.514905  0  0  -0.397379  0  3.539607  0  0  -0.357001  -0.358914  0  3.497981  0
N  N80  1  0.25585748  0.74414101  0.74999946  1  0  -0.44221  0  3.171913  0  0  -0.421993  0  3.459532  0  0  -0.443565  0  3.482037  0  0  -0.350594  -0.40654  0  3.443754  0
N  N81  1  0.74414351  0.25586027  0.25000130  1  0  -0.442187  0  3.171856  0  0  -0.422024  0  3.459426  0  0  -0.443562  0  3.481982  0  0  -0.350604  -0.406582  0  3.443639  0
Cl  Cl82  1  0.56076934  0.43923463  0.74999991  1  0  -0.027492  0  1.337102  0  0  0.005433  0  1.543967  0  0  0.000388  0  1.539895  0  0  0.064575  0.008203  0  1.546443  0
Cl  Cl83  1  0.43923222  0.56076888  0.24999976  1  0  -0.027497  0  1.337122  0  0  0.005435  0  1.543976  0  0  0.000392  0  1.539907  0  0  0.064575  0.008197  0  1.546454  0
O  O84  1  0.95787423  0.79264537  0.79283937  1  0  -0.683748  0  1.575757  0  0  -0.689747  0  1.875711  0  0  -0.711396  0  1.864021  0  0  -0.763417  -0.676628  0  1.883934  0
O  O85  1  0.20736746  0.04213693  0.70716192  1  0  -0.683837  0  1.574865  0  0  -0.689878  0  1.874796  0  0  -0.711536  0  1.86312  0  0  -0.763242  -0.676739  0  1.882986  0
O  O86  1  0.04213076  0.20735480  0.20716360  1  0  -0.683834  0  1.57559  0  0  -0.689841  0  1.87555  0  0  -0.711496  0  1.863853  0  0  -0.763434  -0.676701  0  1.883734  0
O  O87  1  0.79263350  0.95785993  0.29283795  1  0  -0.683914  0  1.574987  0  0  -0.689948  0  1.874949  0  0  -0.71161  0  1.863261  0  0  -0.763317  -0.676816  0  1.883148  0
O  O88  1  0.86841843  0.94471988  0.62361463  1  0  -0.676533  0  2.041994  0  0  -0.666433  0  2.332731  0  0  -0.703455  0  2.327749  0  0  -0.405825  -0.639677  0  2.334806  0
O  O89  1  0.05528104  0.13158291  0.87638612  1  0  -0.676511  0  2.041928  0  0  -0.66641  0  2.3327  0  0  -0.703431  0  2.327715  0  0  -0.405828  -0.639656  0  2.334781  0
O  O90  1  0.13158145  0.05527697  0.37638585  1  0  -0.676494  0  2.041849  0  0  -0.666392  0  2.332603  0  0  -0.703415  0  2.327619  0  0  -0.405832  -0.639637  0  2.334679  0
O  O91  1  0.94472237  0.86841949  0.12361452  1  0  -0.67653  0  2.041855  0  0  -0.666435  0  2.332627  0  0  -0.703461  0  2.32764  0  0  -0.405855  -0.63968  0  2.334705  0
O  O92  1  0.70102012  0.72423608  0.56465826  1  0  -0.575823  0  1.948277  0  0  -0.54498  0  2.181633  0  0  -0.56815  0  2.173269  0  0  -0.293385  -0.528195  0  2.186729  0
O  O93  1  0.27576725  0.29897887  0.93534075  1  0  -0.575854  0  1.94802  0  0  -0.545013  0  2.181409  0  0  -0.568187  0  2.173048  0  0  -0.293423  -0.528226  0  2.186505  0
O  O94  1  0.29897817  0.27576298  0.43534152  1  0  -0.575847  0  1.94831  0  0  -0.545015  0  2.181684  0  0  -0.568186  0  2.173323  0  0  -0.293437  -0.528229  0  2.186779  0
O  O95  1  0.72423509  0.70102352  0.06466049  1  0  -0.575784  0  1.948078  0  0  -0.544934  0  2.181431  0  0  -0.568103  0  2.173062  0  0  -0.293388  -0.52815  0  2.186529  0
