# generated using pymatgen
data_Mn2MoH4C8(N4O)2
_symmetry_space_group_name_H-M   'P 1'
_cell_length_a   12.76186502
_cell_length_b   13.32946561
_cell_length_c   13.62740896
_cell_angle_alpha   114.92343224
_cell_angle_beta   112.86105280
_cell_angle_gamma   97.44433011
_symmetry_Int_Tables_number   1
_chemical_formula_structural   Mn2MoH4C8(N4O)2
_chemical_formula_sum   'Mn8 Mo4 H16 C32 N32 O8'
_cell_volume   1813.90263365
_cell_formula_units_Z   4
loop_
 _symmetry_equiv_pos_site_id
 _symmetry_equiv_pos_as_xyz
  1  'x, y, z'
loop_
 _atom_site_type_symbol
 _atom_site_label
 _atom_site_symmetry_multiplicity
 _atom_site_fract_x
 _atom_site_fract_y
 _atom_site_fract_z
 _atom_site_occupancy
 _atom_site_pbe_bader_charge
 _atom_site_pbe_bader_spin_density
 _atom_site_pbe_cm5_charge
 _atom_site_pbe_ddec_charge
 _atom_site_pbe_ddec_spin_density
 _atom_site_pbe_ddec_sum_bond_order
 _atom_site_pbe_magmom
Mn  Mn0  1  0.49878828  0.74773226  0.89145446  1  1.515292  4.42833  0.752706  0.95317  4.597882  2.60407  4.318
Mn  Mn1  1  0.87907409  0.45639128  0.64773889  1  1.529832  4.440858  0.742487  0.97749  4.617318  2.583155  4.345
Mn  Mn2  1  0.12095987  0.54363116  0.35226188  1  1.53002  4.440969  0.742378  0.977392  4.617674  2.583017  4.345
Mn  Mn3  1  0.50122774  0.25229877  0.10853750  1  1.515105  4.428351  0.752733  0.95305  4.597933  2.603902  4.318
Mn  Mn4  1  0.92243382  0.17163150  0.91188967  1  1.476213  4.357154  0.77966  0.912983  4.522511  2.766019  4.24
Mn  Mn5  1  0.27212694  0.19522863  0.64855052  1  1.529818  4.426195  0.749419  0.974905  4.599659  2.612406  4.331
Mn  Mn6  1  0.72788276  0.80477317  0.35143321  1  1.530009  4.42619  0.749529  0.974934  4.599618  2.611997  4.331
Mn  Mn7  1  0.07756482  0.82838078  0.08811270  1  1.476315  4.357208  0.779603  0.912985  4.522592  2.766021  4.24
Mo  Mo8  1  0.11337175  0.86958578  0.73289057  1  1.728883  0.052754  0.903716  0.52308  0.057821  5.626257  0.047
Mo  Mo9  1  0.71940038  0.46380195  0.94495573  1  1.731624  0.050034  0.901785  0.516939  0.054641  5.613777  0.044
Mo  Mo10  1  0.88663529  0.13043700  0.26712273  1  1.728585  0.052765  0.903655  0.523021  0.057832  5.626088  0.047
Mo  Mo11  1  0.28057779  0.53619160  0.05498550  1  1.7323  0.050006  0.90171  0.516518  0.05462  5.615174  0.044
H  H12  1  0.26145065  0.06328950  0.25511162  1  0.610083  0.001536  0.316085  0.383407  0.001725  0.927342  0.0
H  H13  1  0.73858592  0.93675276  0.74510726  1  0.609597  0.001534  0.316087  0.383404  0.001726  0.927017  0.0
H  H14  1  0.42706366  0.31007749  0.29850502  1  0.625907  0.000614  0.330846  0.404252  4.3e-05  0.878051  0.0
H  H15  1  0.63501357  0.37807925  0.42519765  1  0.631235  0.001775  0.297204  0.395219  0.001157  0.926654  0.002
H  H16  1  0.22195630  0.97202096  0.43075926  1  0.603743  0.00272  0.325836  0.401679  0.001879  0.88201  0.001
H  H17  1  0.64770286  0.00304110  0.73475829  1  0.633869  0.000123  0.326369  0.405522  0.000177  0.885675  0.0
H  H18  1  0.44572518  0.19807379  0.30340135  1  0.649764  0.001213  0.303903  0.398819  0.000544  0.912522  0.001
H  H19  1  0.35221364  0.99686459  0.26534692  1  0.633237  0.000124  0.32623  0.405561  0.00018  0.885282  0.0
H  H20  1  0.73201322  0.47788298  0.44124937  1  0.601684  0.002631  0.328482  0.403929  0.001988  0.877578  0.001
H  H21  1  0.26800272  0.52220435  0.55875950  1  0.600722  0.002631  0.328605  0.403981  0.00199  0.877586  0.001
H  H22  1  0.31774604  0.06307922  0.43586680  1  0.625082  0.001585  0.296701  0.381998  0.001013  0.940877  0.001
H  H23  1  0.57294499  0.68981809  0.70151676  1  0.625358  0.000616  0.330798  0.404367  4.2e-05  0.878287  0.0
H  H24  1  0.55441321  0.80187134  0.69664729  1  0.65  0.001212  0.303716  0.398814  0.000545  0.912623  0.001
H  H25  1  0.68218625  0.93674250  0.56413076  1  0.623867  0.001586  0.296732  0.382029  0.001011  0.940851  0.001
H  H26  1  0.36502656  0.62195123  0.57475868  1  0.630981  0.001782  0.297246  0.395214  0.001159  0.926627  0.002
H  H27  1  0.77804749  0.02784440  0.56938063  1  0.605712  0.00271  0.326023  0.402056  0.001877  0.881392  0.001
C  C28  1  0.74598204  0.43892825  0.79338493  1  0.781759  0.073466  0.046834  0.050737  0.065608  3.772494  0.056
C  C29  1  0.00900267  0.97286856  0.78140136  1  0.784524  0.081001  0.053237  0.059965  0.073973  3.726876  0.063
C  C30  1  0.88817071  0.13454200  0.11359922  1  0.801618  0.077885  0.056894  0.071777  0.070734  3.729927  0.06
C  C31  1  0.13759420  0.39009384  0.99975681  1  0.806709  0.081993  0.059539  0.074703  0.074987  3.735552  0.064
C  C32  1  0.86238937  0.60990927  0.00018288  1  0.806884  0.08198  0.059489  0.074632  0.074977  3.735251  0.064
C  C33  1  0.12449081  0.51537207  0.89840031  1  0.776601  0.047116  0.046129  0.032692  0.041494  3.705091  0.036
C  C34  1  0.24444875  0.69560898  0.12228543  1  0.80305  0.08187  0.059933  0.074316  0.076344  3.705631  0.064
C  C35  1  0.83720450  0.01489114  0.32424189  1  0.775899  0.067365  0.03958  0.023987  0.059866  3.750468  0.051
C  C36  1  0.71879253  0.60062454  0.10204360  1  0.786364  0.049653  0.047451  0.038045  0.04371  3.703815  0.038
C  C37  1  0.01305880  0.69682167  0.67724921  1  0.781721  0.06286  0.04263  0.032134  0.055522  3.757192  0.047
C  C38  1  0.98695396  0.30320710  0.32276342  1  0.781983  0.06283  0.042614  0.032079  0.055498  3.757375  0.047
C  C39  1  0.26224079  0.02598729  0.89044710  1  0.805553  0.070787  0.056788  0.062458  0.063164  3.710362  0.054
C  C40  1  0.73776591  0.97403461  0.10956572  1  0.80559  0.070807  0.056761  0.062294  0.063183  3.71065  0.054
C  C41  1  0.54657667  0.34325947  0.79312828  1  0.802522  0.076133  0.047648  0.052548  0.068661  3.772682  0.058
C  C42  1  0.26835800  0.81892212  0.78695906  1  0.781564  0.069556  0.044178  0.036128  0.0619  3.730659  0.052
C  C43  1  0.05579630  0.18352180  0.42484335  1  0.807211  0.071271  0.052265  0.062493  0.063551  3.770133  0.055
C  C44  1  0.12664844  0.76197442  0.57363379  1  0.80914  0.069652  0.058841  0.07027  0.062  3.747006  0.054
C  C45  1  0.62896749  0.37261721  0.00254685  1  0.778892  0.056455  0.04712  0.044567  0.050565  3.719446  0.044
C  C46  1  0.87548913  0.48462541  0.10157249  1  0.775889  0.047038  0.046133  0.0326  0.041415  3.704994  0.036
C  C47  1  0.38045843  0.44066100  0.11980121  1  0.790935  0.075709  0.055153  0.063537  0.06833  3.730048  0.057
C  C48  1  0.11188816  0.86548513  0.88642557  1  0.799674  0.077866  0.056937  0.071901  0.070687  3.730024  0.06
C  C49  1  0.99097821  0.02711715  0.21862425  1  0.784426  0.081047  0.053275  0.060163  0.074013  3.726838  0.063
C  C50  1  0.87335343  0.23803073  0.42637712  1  0.80966  0.069673  0.059045  0.070562  0.062027  3.746819  0.054
C  C51  1  0.75552555  0.30437233  0.87766046  1  0.803816  0.081937  0.059837  0.074024  0.076428  3.705034  0.064
C  C52  1  0.25400207  0.56109805  0.20655995  1  0.782622  0.073463  0.04722  0.051255  0.065615  3.772381  0.056
C  C53  1  0.28121412  0.39939395  0.89791571  1  0.787103  0.04968  0.047455  0.038151  0.043748  3.703495  0.038
C  C54  1  0.16276103  0.98515759  0.67579276  1  0.775585  0.067317  0.039865  0.02431  0.059821  3.750133  0.051
C  C55  1  0.73167334  0.18114148  0.21305084  1  0.7827  0.069536  0.044144  0.03578  0.0619  3.730819  0.052
C  C56  1  0.61952379  0.55934693  0.88016197  1  0.790627  0.075666  0.055103  0.063508  0.068295  3.7303  0.057
C  C57  1  0.94421891  0.81649162  0.57516028  1  0.807047  0.07126  0.052261  0.062509  0.063539  3.769894  0.055
C  C58  1  0.45340544  0.65674305  0.20676442  1  0.802253  0.076128  0.047307  0.052019  0.068667  3.773447  0.058
C  C59  1  0.37097313  0.62735879  0.99736943  1  0.779024  0.056457  0.047262  0.044877  0.050569  3.719389  0.044
N  N60  1  0.95748658  0.60303770  0.64955356  1  -1.380841  0.058548  -0.367072  -0.357188  0.028146  3.343578  -0.003
N  N61  1  0.34719048  0.10840361  0.97609419  1  -1.39784  0.061042  -0.362271  -0.358263  0.025383  3.345094  -0.007
N  N62  1  0.85248921  0.78762249  0.48653665  1  -1.388365  0.061927  -0.369686  -0.365943  0.02836  3.334428  -0.004
N  N63  1  0.06190031  0.30817598  0.97280263  1  -1.412442  0.065303  -0.387195  -0.36946  0.023563  3.395876  -0.012
N  N64  1  0.22447054  0.78434793  0.15838700  1  -1.431201  0.064199  -0.399658  -0.419979  0.026759  3.328252  -0.004
N  N65  1  0.64641330  0.20946355  0.18595965  1  -1.391306  0.057559  -0.374954  -0.362953  0.02324  3.380322  -0.008
N  N66  1  0.93807321  0.69183830  0.02714387  1  -1.412467  0.065343  -0.387196  -0.369451  0.023577  3.395803  -0.012
N  N67  1  0.77552624  0.21563824  0.84158798  1  -1.431808  0.064175  -0.399589  -0.419738  0.026703  3.3278  -0.004
N  N68  1  0.80651147  0.94800247  0.35083848  1  -1.381234  0.058149  -0.36906  -0.349805  0.025845  3.357361  -0.006
N  N69  1  0.23517667  0.56886343  0.28663863  1  -1.368578  0.057584  -0.373998  -0.362564  0.024902  3.314232  -0.006
N  N70  1  0.45018141  0.27551437  0.71088871  1  -1.390485  0.057406  -0.378062  -0.359907  0.023569  3.322202  -0.008
N  N71  1  0.12817448  0.69766698  0.48394848  1  -1.379845  0.060132  -0.366641  -0.361084  0.027098  3.322888  -0.005
N  N72  1  0.43233879  0.38583411  0.15536370  1  -1.393726  0.052312  -0.385826  -0.395243  0.01981  3.325673  -0.008
N  N73  1  0.04251704  0.39698125  0.35042981  1  -1.381062  0.058537  -0.367024  -0.35707  0.02815  3.343868  -0.002
N  N74  1  0.54980689  0.72448243  0.28899360  1  -1.390463  0.057407  -0.377769  -0.359328  0.023563  3.322862  -0.008
N  N75  1  0.10606294  0.86219677  0.96882008  1  -1.398616  0.063711  -0.382035  -0.376034  0.025037  3.387775  -0.009
N  N76  1  0.65282360  0.89160654  0.02392678  1  -1.397864  0.061016  -0.362216  -0.358052  0.025378  3.34554  -0.007
N  N77  1  0.72344535  0.67626310  0.19018184  1  -1.370367  0.059537  -0.346911  -0.34537  0.03325  3.291395  0.007
N  N78  1  0.19344054  0.05206574  0.64921463  1  -1.380864  0.058073  -0.369345  -0.35009  0.025864  3.357321  -0.006
N  N79  1  0.27660459  0.32376819  0.80979594  1  -1.371322  0.059536  -0.346838  -0.345303  0.033236  3.290944  0.007
N  N80  1  0.42163334  0.68086887  0.96947437  1  -1.367838  0.063982  -0.362121  -0.355659  0.033761  3.334188  0.007
N  N81  1  0.05190140  0.97242952  0.19438104  1  -1.434718  0.065612  -0.398659  -0.419528  0.02696  3.409645  -0.008
N  N82  1  0.94806343  0.02754144  0.80562625  1  -1.43478  0.065638  -0.398591  -0.419356  0.026989  3.409593  -0.008
N  N83  1  0.76480332  0.43116750  0.71330811  1  -1.367691  0.05755  -0.373632  -0.362082  0.024917  3.314303  -0.006
N  N84  1  0.14753251  0.21239686  0.51346289  1  -1.388649  0.061952  -0.369723  -0.365969  0.028379  3.334743  -0.004
N  N85  1  0.57830336  0.31909731  0.03042845  1  -1.367754  0.063987  -0.36203  -0.35551  0.033772  3.334664  0.007
N  N86  1  0.56764595  0.61417374  0.84460034  1  -1.393598  0.052369  -0.385806  -0.39527  0.019843  3.326223  -0.008
N  N87  1  0.35363540  0.79062074  0.81405090  1  -1.390092  0.057532  -0.374994  -0.363379  0.02325  3.380066  -0.008
N  N88  1  0.96165948  0.50102175  0.18873989  1  -1.366792  0.05996  -0.347725  -0.351751  0.034664  3.292242  0.009
N  N89  1  0.87179788  0.30233904  0.51604121  1  -1.380351  0.060173  -0.36676  -0.36113  0.027103  3.323035  -0.005
N  N90  1  0.89399750  0.13782134  0.03120089  1  -1.400213  0.06374  -0.381962  -0.375933  0.025023  3.387946  -0.009
N  N91  1  0.03832746  0.49899152  0.81123668  1  -1.367545  0.059985  -0.347802  -0.351851  0.034652  3.292534  0.009
O  O92  1  0.48173229  0.26530613  0.29896917  1  -1.257352  0.037533  -0.540299  -0.746075  0.027765  2.026741  0.02
O  O93  1  0.34621952  0.07476560  0.30584312  1  -1.216674  0.008999  -0.541524  -0.719047  0.005347  1.932936  0.005
O  O94  1  0.29182197  0.04513875  0.48770213  1  -1.21682  0.050923  -0.556016  -0.748547  0.037266  2.052293  0.029
O  O95  1  0.29066883  0.55104783  0.51247621  1  -1.219984  0.055283  -0.560122  -0.759765  0.040285  2.041153  0.031
O  O96  1  0.70812688  0.95477036  0.51235585  1  -1.217664  0.050891  -0.556187  -0.749042  0.037257  2.051118  0.029
O  O97  1  0.65379235  0.92517904  0.69432518  1  -1.216577  0.008993  -0.541574  -0.718866  0.005343  1.93372  0.005
O  O98  1  0.70932656  0.44901769  0.48750620  1  -1.220945  0.055189  -0.560072  -0.75985  0.04026  2.040641  0.031
O  O99  1  0.51833471  0.73464780  0.70106190  1  -1.257046  0.037552  -0.540234  -0.746309  0.027791  2.027004  0.02
