# generated using pymatgen
data_FeNiH6C12(N4Cl)2
_symmetry_space_group_name_H-M   'P 1'
_cell_length_a   6.72318894
_cell_length_b   7.13613139
_cell_length_c   8.85548021
_cell_angle_alpha   110.01103070
_cell_angle_beta   112.32139568
_cell_angle_gamma   89.99504927
_symmetry_Int_Tables_number   1
_chemical_formula_structural   FeNiH6C12(N4Cl)2
_chemical_formula_sum   'Fe1 Ni1 H6 C12 N8 Cl2'
_cell_volume   365.15392799
_cell_formula_units_Z   1
loop_
 _symmetry_equiv_pos_site_id
 _symmetry_equiv_pos_as_xyz
  1  'x, y, z'
loop_
 _atom_site_type_symbol
 _atom_site_label
 _atom_site_symmetry_multiplicity
 _atom_site_fract_x
 _atom_site_fract_y
 _atom_site_fract_z
 _atom_site_occupancy
 _atom_site_pbe_bader_spin_density
 _atom_site_pbe_cm5_charge
 _atom_site_pbe_ddec_charge
 _atom_site_pbe_ddec_spin_density
 _atom_site_pbe_ddec_sum_bond_order
 _atom_site_pbe_magmom
Fe  Fe0  1  0.99999824  0.00000104  0.99999953  1  0  0.898342  0.58242  0  3.938387  0
Ni  Ni1  1  0.50000283  0.50000168  0.00000242  1  0  0.391137  0.147083  0  3.952216  0
H  H2  1  0.88503184  0.56968188  0.77027827  1  0  0.13421  0.13107  0  0.987969  0
H  H3  1  0.11496809  0.43031828  0.22972123  1  0  0.134212  0.131076  0  0.987963  0
H  H4  1  0.67943920  0.91469940  0.35784531  1  0  0.10904  0.091854  0  1.026525  0
H  H5  1  0.32055888  0.08529926  0.64215211  1  0  0.109044  0.091813  0  1.026571  0
H  H6  1  0.84431509  0.11183368  0.68802707  1  0  0.122598  0.103602  0  1.023252  0
H  H7  1  0.15568163  0.88816649  0.31197037  1  0  0.122601  0.103594  0  1.023288  0
C  C8  1  0.69736759  0.69381008  0.01767930  1  0  0.022225  0.033015  0  3.764901  0
C  C9  1  0.67985408  0.30627289  0.98229459  1  0  0.021465  0.030669  0  3.768802  0
C  C10  1  0.30263355  0.30617800  0.98232060  1  0  0.022336  0.033093  0  3.76502  0
C  C11  1  0.32014044  0.69372423  0.01771038  1  0  0.021407  0.030548  0  3.768644  0
C  C12  1  0.83959624  0.64815818  0.67921682  1  0  0.049772  -0.030369  0  3.883688  0
C  C13  1  0.16040555  0.35184350  0.32078252  1  0  0.04975  -0.03042  0  3.883784  0
C  C14  1  0.74871171  0.54660725  0.49731879  1  0  0.144618  0.217804  0  4.124154  0
C  C15  1  0.25128983  0.45339291  0.50268006  1  0  0.144638  0.217831  0  4.124092  0
C  C16  1  0.72626238  0.83976346  0.45207119  1  0  0.046858  0.046935  0  3.990237  0
C  C17  1  0.27373595  0.16023670  0.54792672  1  0  0.046839  0.046941  0  3.990278  0
C  C18  1  0.81625886  0.94816160  0.63206127  1  0  0.042406  0.004253  0  3.914617  0
C  C19  1  0.18373761  0.05183705  0.36793680  1  0  0.042397  0.004246  0  3.914732  0
N  N20  1  0.87329590  0.85139310  0.74632923  1  0  -0.314683  -0.090063  0  3.630017  0
N  N21  1  0.12670267  0.14860857  0.25367029  1  0  -0.314641  -0.089967  0  3.629959  0
N  N22  1  0.81386085  0.81980247  0.02199715  1  0  -0.391677  -0.30856  0  3.597823  0
N  N23  1  0.79185540  0.18014370  0.97790992  1  0  -0.391258  -0.306631  0  3.598531  0
N  N24  1  0.18615000  0.18020524  0.97800313  1  0  -0.39175  -0.308569  0  3.598011  0
N  N25  1  0.20813991  0.81985795  0.02209203  1  0  -0.391205  -0.306528  0  3.598321  0
N  N26  1  0.69176733  0.63769948  0.38310531  1  0  -0.295252  -0.269226  0  3.412351  0
N  N27  1  0.30823099  0.36230068  0.61689372  1  0  -0.295269  -0.269246  0  3.412274  0
Cl  Cl28  1  0.70644005  0.28598789  0.41304352  1  0  0.05492  -0.019142  0  1.643731  0
Cl  Cl29  1  0.29356014  0.71401378  0.58695535  1  0  0.054925  -0.019127  0  1.643666  0
