# generated using pymatgen
data_DyH18C24NO7
_symmetry_space_group_name_H-M   'P 1'
_cell_length_a   8.69246131
_cell_length_b   10.78892151
_cell_length_c   12.11025135
_cell_angle_alpha   69.89024072
_cell_angle_beta   84.32155937
_cell_angle_gamma   77.92065886
_symmetry_Int_Tables_number   1
_chemical_formula_structural   DyH18C24NO7
_chemical_formula_sum   'Dy2 H36 C48 N2 O14'
_cell_volume   1042.42405959
_cell_formula_units_Z   2
loop_
 _symmetry_equiv_pos_site_id
 _symmetry_equiv_pos_as_xyz
  1  'x, y, z'
loop_
 _atom_site_type_symbol
 _atom_site_label
 _atom_site_symmetry_multiplicity
 _atom_site_fract_x
 _atom_site_fract_y
 _atom_site_fract_z
 _atom_site_occupancy
 _atom_site_hle17_bader_spin_density
 _atom_site_hle17_ddec_charge
 _atom_site_hle17_ddec_spin_density
 _atom_site_hle17_ddec_sum_bond_order
 _atom_site_hle17_magmom
 _atom_site_hse06_10hf_bader_spin_density
 _atom_site_hse06_10hf_ddec_charge
 _atom_site_hse06_10hf_ddec_spin_density
 _atom_site_hse06_10hf_ddec_sum_bond_order
 _atom_site_hse06_10hf_magmom
 _atom_site_hse06_bader_spin_density
 _atom_site_hse06_ddec_charge
 _atom_site_hse06_ddec_spin_density
 _atom_site_hse06_ddec_sum_bond_order
 _atom_site_hse06_magmom
 _atom_site_pbe_bader_spin_density
 _atom_site_pbe_cm5_charge
 _atom_site_pbe_ddec_charge
 _atom_site_pbe_ddec_spin_density
 _atom_site_pbe_ddec_sum_bond_order
 _atom_site_pbe_magmom
Dy  Dy0  1  0.28430008  0.02342692  0.55709950  1  0  2.303721  0  1.677993  0  0  2.236894  0  2.01189  0  0  2.28557  0  1.968022  0  0  1.546002  2.129628  0  2.176081  0
Dy  Dy1  1  0.71570116  0.97657411  0.44290517  1  0  2.303808  0  1.677898  0  0  2.236971  0  2.011798  0  0  2.285649  0  1.967925  0  0  1.546092  2.129736  0  2.175937  0
H  H2  1  0.77001794  0.36279628  0.23687130  1  0  0.108434  0  0.942978  0  0  0.117921  0  1.005477  0  0  0.121898  0  1.002478  0  0  0.106954  0.114848  0  1.008101  0
H  H3  1  0.22998337  0.63719961  0.76312839  1  0  0.108403  0  0.943002  0  0  0.117938  0  1.005447  0  0  0.121885  0  1.002483  0  0  0.106964  0.114865  0  1.00807  0
H  H4  1  0.00318976  0.70142149  0.14873724  1  0  0.076855  0  0.985652  0  0  0.088099  0  1.053083  0  0  0.09103  0  1.051066  0  0  0.094648  0.085967  0  1.054648  0
H  H5  1  0.99682073  0.29856929  0.85126269  1  0  0.076969  0  0.985503  0  0  0.088179  0  1.052978  0  0  0.091105  0  1.050958  0  0  0.094663  0.086047  0  1.054542  0
H  H6  1  0.14327592  0.35201488  0.44971033  1  0  0.115995  0  0.966447  0  0  0.120948  0  1.038194  0  0  0.125239  0  1.034463  0  0  0.112993  0.118438  0  1.039521  0
H  H7  1  0.85672765  0.64797595  0.55028917  1  0  0.115994  0  0.966279  0  0  0.120931  0  1.038053  0  0  0.125227  0  1.034314  0  0  0.11298  0.118411  0  1.039392  0
H  H8  1  0.03540883  0.78595761  0.30765696  1  0  0.112305  0  0.969497  0  0  0.120924  0  1.031474  0  0  0.124447  0  1.030104  0  0  0.107457  0.118208  0  1.032857  0
H  H9  1  0.96458528  0.21404024  0.69233675  1  0  0.112212  0  0.969554  0  0  0.120899  0  1.031473  0  0  0.124424  0  1.030096  0  0  0.107428  0.118179  0  1.032854  0
H  H10  1  0.22107128  0.90316951  0.35397387  1  0  0.1008  0  0.945853  0  0  0.107716  0  1.0118  0  0  0.111896  0  1.008034  0  0  0.114708  0.105795  0  1.012553  0
H  H11  1  0.77891551  0.09683546  0.64602049  1  0  0.100796  0  0.945849  0  0  0.10767  0  1.011836  0  0  0.111844  0  1.008072  0  0  0.11471  0.10574  0  1.012618  0
H  H12  1  0.59232696  0.55955017  0.38783083  1  0  0.102074  0  0.948827  0  0  0.112192  0  1.009489  0  0  0.114788  0  1.009073  0  0  0.104704  0.110132  0  1.0102  0
H  H13  1  0.40767269  0.44046479  0.61216292  1  0  0.102136  0  0.948742  0  0  0.112232  0  1.009417  0  0  0.114827  0  1.009003  0  0  0.104725  0.110172  0  1.010128  0
H  H14  1  0.40264238  0.43763678  0.34594889  1  0  0.105565  0  0.936492  0  0  0.118695  0  0.990012  0  0  0.121455  0  0.989523  0  0  0.106682  0.116694  0  0.990561  0
H  H15  1  0.59736541  0.56237215  0.65404877  1  0  0.105551  0  0.936492  0  0  0.118734  0  0.989944  0  0  0.121496  0  0.989453  0  0  0.106673  0.116731  0  0.990499  0
H  H16  1  0.00932472  0.67013872  0.97555017  1  0  0.081181  0  0.968521  0  0  0.090479  0  1.035497  0  0  0.093389  0  1.034057  0  0  0.095257  0.088412  0  1.03656  0
H  H17  1  0.99068188  0.32985410  0.02444935  1  0  0.081019  0  0.968526  0  0  0.090329  0  1.035528  0  0  0.093249  0  1.034064  0  0  0.095197  0.088259  0  1.036597  0
H  H18  1  0.88435715  0.79835668  0.78307479  1  0  0.105275  0  0.955658  0  0  0.116452  0  1.013704  0  0  0.119337  0  1.01224  0  0  0.108677  0.114157  0  1.015237  0
H  H19  1  0.11564832  0.20163614  0.21692397  1  0  0.105227  0  0.955746  0  0  0.116411  0  1.013771  0  0  0.119282  0  1.012326  0  0  0.108697  0.114118  0  1.015301  0
H  H20  1  0.44475541  0.68409662  0.92926113  1  0  0.093163  0  0.947225  0  0  0.105653  0  1.005383  0  0  0.108647  0  1.003605  0  0  0.101806  0.103412  0  1.006929  0
H  H21  1  0.55524898  0.31590038  0.07074463  1  0  0.093147  0  0.947218  0  0  0.105637  0  1.005383  0  0  0.108632  0  1.003604  0  0  0.101827  0.103396  0  1.006929  0
H  H22  1  0.56637450  0.56031152  0.12402197  1  0  0.093935  0  0.961819  0  0  0.103884  0  1.024895  0  0  0.10648  0  1.0248  0  0  0.1001  0.101971  0  1.025112  0
H  H23  1  0.43363799  0.43968033  0.87598165  1  0  0.093926  0  0.961753  0  0  0.103893  0  1.024817  0  0  0.106472  0  1.024736  0  0  0.10008  0.101984  0  1.025026  0
H  H24  1  0.09282595  0.86755320  0.88703748  1  0  0.027706  0  0.930115  0  0  0.039915  0  0.997864  0  0  0.040986  0  0.993151  0  0  0.120994  0.038812  0  1.001786  0
H  H25  1  0.90715615  0.13245694  0.11296130  1  0  0.027644  0  0.930119  0  0  0.039845  0  0.997897  0  0  0.040909  0  0.993188  0  0  0.120961  0.03876  0  1.0018  0
H  H26  1  0.45797683  0.03341116  0.87387270  1  0  0.09704  0  0.931991  0  0  0.118933  0  0.994606  0  0  0.1186  0  0.995788  0  0  0.104538  0.11895  0  0.994076  0
H  H27  1  0.54200938  0.96659084  0.12612428  1  0  0.097004  0  0.931981  0  0  0.118875  0  0.994617  0  0  0.11854  0  0.9958  0  0  0.104529  0.118871  0  0.994109  0
H  H28  1  0.32333789  0.12972939  0.94901313  1  0  0.091885  0  0.971218  0  0  0.110571  0  1.039292  0  0  0.109834  0  1.04194  0  0  0.099349  0.110948  0  1.037551  0
H  H29  1  0.67665161  0.87027357  0.05098253  1  0  0.091931  0  0.971174  0  0  0.110607  0  1.039239  0  0  0.109871  0  1.041885  0  0  0.099362  0.110985  0  1.037493  0
H  H30  1  0.29431311  0.15171504  0.79815613  1  0  0.128678  0  0.958169  0  0  0.143483  0  1.023779  0  0  0.145185  0  1.022842  0  0  0.116408  0.142064  0  1.024604  0
H  H31  1  0.70567799  0.84829098  0.20184178  1  0  0.128652  0  0.958039  0  0  0.143458  0  1.023652  0  0  0.145159  0  1.022716  0  0  0.116392  0.142039  0  1.024474  0
H  H32  1  0.17324858  0.81448350  0.06149481  1  0  0.093406  0  0.965853  0  0  0.111452  0  1.035515  0  0  0.111984  0  1.035259  0  0  0.104519  0.110931  0  1.035839  0
H  H33  1  0.82675139  0.18551934  0.93849862  1  0  0.093395  0  0.965861  0  0  0.111466  0  1.035485  0  0  0.111999  0  1.035228  0  0  0.104527  0.11094  0  1.035815  0
H  H34  1  0.20214948  0.95194446  0.10213915  1  0  0.099268  0  0.943781  0  0  0.117726  0  1.009498  0  0  0.118013  0  1.010281  0  0  0.102279  0.117419  0  1.009078  0
H  H35  1  0.79785304  0.04805139  0.89785883  1  0  0.099219  0  0.943772  0  0  0.117662  0  1.009506  0  0  0.117949  0  1.010288  0  0  0.10225  0.117352  0  1.009091  0
H  H36  1  0.36706785  0.84018581  0.06810511  1  0  0.10322  0  0.943336  0  0  0.124021  0  1.005669  0  0  0.124187  0  1.00728  0  0  0.105434  0.123817  0  1.004649  0
H  H37  1  0.63293351  0.15981686  0.93188004  1  0  0.103208  0  0.943427  0  0  0.123998  0  1.005764  0  0  0.124163  0  1.007376  0  0  0.105406  0.123794  0  1.004743  0
C  C38  1  0.93860645  0.20592432  0.42523346  1  0  0.732411  0  3.853806  0  0  0.686454  0  4.14718  0  0  0.722079  0  4.134684  0  0  0.239943  0.661374  0  4.151216  0
C  C39  1  0.06139538  0.79406950  0.57476355  1  0  0.732487  0  3.853426  0  0  0.686624  0  4.146685  0  0  0.722197  0  4.134278  0  0  0.240098  0.661547  0  4.150725  0
C  C40  1  0.95273382  0.34668940  0.35104311  1  0  -0.065741  0  3.747203  0  0  -0.039927  0  3.97739  0  0  -0.048419  0  4.000861  0  0  -0.012181  -0.035132  0  3.963785  0
C  C41  1  0.04727113  0.65330549  0.64895833  1  0  -0.065814  0  3.74728  0  0  -0.040067  0  3.977513  0  0  -0.048543  0  4.000986  0  0  -0.012249  -0.035285  0  3.963929  0
C  C42  1  0.85604119  0.41400684  0.25407611  1  0  -0.103243  0  3.679981  0  0  -0.134969  0  3.925754  0  0  -0.135152  0  3.944984  0  0  -0.078665  -0.134744  0  3.913612  0
C  C43  1  0.14396284  0.58598703  0.74592488  1  0  -0.103209  0  3.67988  0  0  -0.134955  0  3.925677  0  0  -0.135111  0  3.944911  0  0  -0.078679  -0.134727  0  3.913535  0
C  C44  1  0.87737691  0.54064012  0.17748804  1  0  0.044008  0  3.804035  0  0  0.060362  0  4.040967  0  0  0.058505  0  4.065595  0  0  -0.01111  0.061448  0  4.024193  0
C  C45  1  0.12263106  0.45935169  0.82251172  1  0  0.044024  0  3.803976  0  0  0.060346  0  4.040944  0  0  0.058493  0  4.06556  0  0  -0.011087  0.061432  0  4.024169  0
C  C46  1  0.99034353  0.60050663  0.20496194  1  0  -0.134029  0  3.698669  0  0  -0.162511  0  3.940652  0  0  -0.163547  0  3.959692  0  0  -0.083288  -0.161519  0  3.927717  0
C  C47  1  0.00966717  0.39948315  0.79503830  1  0  -0.134116  0  3.698587  0  0  -0.162571  0  3.940606  0  0  -0.163583  0  3.95966  0  0  -0.083335  -0.161588  0  3.927663  0
C  C48  1  0.08767808  0.53478920  0.30137367  1  0  0.055042  0  3.789665  0  0  0.074498  0  4.021993  0  0  0.072837  0  4.04561  0  0  -0.002976  0.075395  0  4.006161  0
C  C49  1  0.91232847  0.46520365  0.69862749  1  0  0.055051  0  3.789565  0  0  0.074464  0  4.021905  0  0  0.072744  0  4.045606  0  0  -0.003016  0.075388  0  4.006034  0
C  C50  1  0.06902894  0.40591140  0.37410525  1  0  -0.076153  0  3.646206  0  0  -0.113216  0  3.894996  0  0  -0.112144  0  3.91294  0  0  -0.068167  -0.113582  0  3.882942  0
C  C51  1  0.93097854  0.59408247  0.62589636  1  0  -0.076076  0  3.645997  0  0  -0.113097  0  3.894773  0  0  -0.112006  0  3.912732  0  0  -0.068089  -0.113459  0  3.88272  0
C  C52  1  0.20544232  0.60321802  0.32449640  1  0  0.066847  0  3.775825  0  0  0.080733  0  4.003774  0  0  0.082549  0  4.028068  0  0  -0.000762  0.079441  0  3.987629  0
C  C53  1  0.79456043  0.39677595  0.67550877  1  0  0.066788  0  3.77589  0  0  0.080741  0  4.003791  0  0  0.082575  0  4.028098  0  0  -0.000721  0.079442  0  3.987639  0
C  C54  1  0.15758435  0.73601600  0.32370929  1  0  -0.12241  0  3.723088  0  0  -0.1376  0  3.965838  0  0  -0.142889  0  3.987432  0  0  -0.090168  -0.134404  0  3.952563  0
C  C55  1  0.84241090  0.26398099  0.67629288  1  0  -0.122337  0  3.723074  0  0  -0.137611  0  3.965801  0  0  -0.142898  0  3.987387  0  0  -0.090159  -0.134408  0  3.952522  0
C  C56  1  0.26205626  0.80196377  0.35067377  1  0  -0.04658  0  3.728102  0  0  -0.070208  0  3.974529  0  0  -0.068204  0  3.993233  0  0  -0.077258  -0.071656  0  3.962405  0
C  C57  1  0.73793423  0.19803929  0.64932758  1  0  -0.04652  0  3.728187  0  0  -0.070119  0  3.974636  0  0  -0.068114  0  3.993349  0  0  -0.077272  -0.071568  0  3.962493  0
C  C58  1  0.41816856  0.73770150  0.37681970  1  0  -0.076748  0  3.754615  0  0  -0.051416  0  3.981543  0  0  -0.060719  0  4.005015  0  0  -0.018975  -0.04619  0  3.967714  0
C  C59  1  0.58182885  0.26230661  0.62318461  1  0  -0.076828  0  3.754571  0  0  -0.051415  0  3.98138  0  0  -0.060721  0  4.004854  0  0  -0.01898  -0.046186  0  3.967547  0
C  C60  1  0.46976664  0.60792150  0.37041688  1  0  -0.064452  0  3.7421  0  0  -0.088211  0  3.990917  0  0  -0.087232  0  4.011849  0  0  -0.081231  -0.088739  0  3.977388  0
C  C61  1  0.53023333  0.39208558  0.62958678  1  0  -0.064473  0  3.74207  0  0  -0.088245  0  3.990887  0  0  -0.087263  0  4.011819  0  0  -0.08121  -0.088773  0  3.977359  0
C  C62  1  0.36358921  0.54030554  0.34664743  1  0  -0.121659  0  3.722638  0  0  -0.139271  0  3.972602  0  0  -0.143884  0  3.993363  0  0  -0.088323  -0.136391  0  3.958789  0
C  C63  1  0.63641511  0.45969746  0.65335561  1  0  -0.121614  0  3.722793  0  0  -0.139278  0  3.972716  0  0  -0.143893  0  3.993474  0  0  -0.088307  -0.1364  0  3.958906  0
C  C64  1  0.52411169  0.80547718  0.41546029  1  0  0.684857  0  3.879368  0  0  0.63854  0  4.17667  0  0  0.67379  0  4.165391  0  0  0.212219  0.614741  0  4.175636  0
C  C65  1  0.47588153  0.19453490  0.58453887  1  0  0.685054  0  3.8792  0  0  0.638718  0  4.176527  0  0  0.67397  0  4.165248  0  0  0.212228  0.614919  0  4.175487  0
C  C66  1  0.79638236  0.60927746  0.06475362  1  0  0.061794  0  3.782721  0  0  0.076541  0  4.010221  0  0  0.078633  0  4.033844  0  0  -0.004416  0.075368  0  3.993962  0
C  C67  1  0.20362850  0.39071730  0.93524338  1  0  0.061709  0  3.782764  0  0  0.076472  0  4.010266  0  0  0.078562  0  4.033888  0  0  -0.004407  0.0753  0  3.994007  0
C  C68  1  0.88388939  0.67715507  0.96667977  1  0  -0.130601  0  3.771908  0  0  -0.149047  0  4.025132  0  0  -0.153868  0  4.047022  0  0  -0.096701  -0.14589  0  4.010247  0
C  C69  1  0.11611971  0.32283674  0.03332075  1  0  -0.13033  0  3.771685  0  0  -0.148793  0  4.024888  0  0  -0.153607  0  4.046778  0  0  -0.096616  -0.145638  0  4.010005  0
C  C70  1  0.81543007  0.74732808  0.85872048  1  0  -0.069926  0  3.764215  0  0  -0.093783  0  4.012714  0  0  -0.093079  0  4.033907  0  0  -0.087202  -0.094239  0  3.999256  0
C  C71  1  0.18457554  0.25266378  0.14128105  1  0  -0.069928  0  3.764296  0  0  -0.093789  0  4.012805  0  0  -0.093077  0  4.034002  0  0  -0.087255  -0.094245  0  3.99935  0
C  C72  1  0.65632973  0.75137679  0.84409196  1  0  -0.071332  0  3.73886  0  0  -0.049236  0  3.97052  0  0  -0.057083  0  3.992459  0  0  -0.020545  -0.044924  0  3.957725  0
C  C73  1  0.34367240  0.24862019  0.15591229  1  0  -0.071247  0  3.738951  0  0  -0.049145  0  3.970588  0  0  -0.05699  0  3.992529  0  0  -0.02049  -0.044833  0  3.957793  0
C  C74  1  0.56821891  0.68235132  0.94057287  1  0  -0.072576  0  3.755077  0  0  -0.095345  0  4.002516  0  0  -0.093944  0  4.021921  0  0  -0.0885  -0.096157  0  3.989897  0
C  C75  1  0.43178523  0.31764162  0.05943172  1  0  -0.072472  0  3.755025  0  0  -0.095244  0  4.002459  0  0  -0.093845  0  4.021863  0  0  -0.08849  -0.096058  0  3.98984  0
C  C76  1  0.63729297  0.61153961  0.04941906  1  0  -0.12971  0  3.741752  0  0  -0.145643  0  3.987343  0  0  -0.149919  0  4.007945  0  0  -0.093043  -0.14276  0  3.973214  0
C  C77  1  0.36271866  0.38845119  0.95058164  1  0  -0.12982  0  3.74176  0  0  -0.145772  0  3.987358  0  0  -0.150028  0  4.00797  0  0  -0.093094  -0.14289  0  3.973228  0
C  C78  1  0.58915936  0.82770339  0.72452349  1  0  0.708571  0  3.861151  0  0  0.664764  0  4.156896  0  0  0.700364  0  4.144382  0  0  0.225974  0.639807  0  4.160745  0
C  C79  1  0.41084051  0.17229866  0.27548094  1  0  0.708192  0  3.861247  0  0  0.664388  0  4.157001  0  0  0.699986  0  4.144492  0  0  0.225748  0.639433  0  4.160846  0
C  C80  1  0.15650351  0.95173338  0.84602302  1  0  0.436247  0  3.813055  0  0  0.361494  0  4.10593  0  0  0.391408  0  4.102862  0  0  0.190432  0.34088  0  4.105029  0
C  C81  1  0.84347957  0.04827264  0.15397205  1  0  0.436411  0  3.81275  0  0  0.3617  0  4.105575  0  0  0.391618  0  4.102501  0  0  0.190538  0.341076  0  4.104677  0
C  C82  1  0.33401150  0.07913114  0.88332237  1  0  -0.175894  0  3.62721  0  0  -0.276269  0  3.872818  0  0  -0.272264  0  3.882701  0  0  -0.136326  -0.278705  0  3.866456  0
C  C83  1  0.66597978  0.92087985  0.11667148  1  0  -0.175987  0  3.627221  0  0  -0.276315  0  3.872806  0  0  -0.27231  0  3.882686  0  0  -0.136363  -0.278731  0  3.866451  0
C  C84  1  0.24549170  0.89121201  0.04505882  1  0  -0.180615  0  3.689498  0  0  -0.285482  0  3.943092  0  0  -0.282235  0  3.955088  0  0  -0.132813  -0.287484  0  3.935058  0
C  C85  1  0.75450305  0.10878790  0.95493750  1  0  -0.180601  0  3.689659  0  0  -0.285448  0  3.943223  0  0  -0.282202  0  3.955219  0  0  -0.132781  -0.287446  0  3.935194  0
N  N86  1  0.23832850  0.97523782  0.92212605  1  0  -0.088701  0  3.505669  0  0  0.016244  0  3.73857  0  0  -0.004221  0  3.763238  0  0  -0.278012  0.029785  0  3.722167  0
N  N87  1  0.76165551  0.02476921  0.07786947  1  0  -0.088567  0  3.505779  0  0  0.016311  0  3.73864  0  0  -0.004148  0  3.7633  0  0  -0.277963  0.029849  0  3.722239  0
O  O88  1  0.04038486  0.13862691  0.50232069  1  0  -0.750653  0  2.103927  0  0  -0.715213  0  2.37669  0  0  -0.739165  0  2.361593  0  0  -0.41237  -0.686485  0  2.387578  0
O  O89  1  0.95962302  0.86137005  0.49768488  1  0  -0.75059  0  2.103955  0  0  -0.715195  0  2.376691  0  0  -0.739123  0  2.36162  0  0  -0.412365  -0.686473  0  2.387578  0
O  O90  1  0.82338900  0.16130622  0.40598312  1  0  -0.748974  0  2.080094  0  0  -0.712856  0  2.339334  0  0  -0.73786  0  2.326913  0  0  -0.415299  -0.684318  0  2.350392  0
O  O91  1  0.17662986  0.83868347  0.59401502  1  0  -0.749096  0  2.079644  0  0  -0.712995  0  2.338843  0  0  -0.737985  0  2.32645  0  0  -0.415395  -0.68445  0  2.349899  0
O  O92  1  0.67281755  0.77565626  0.40487893  1  0  -0.674736  0  1.951605  0  0  -0.639712  0  2.19159  0  0  -0.661494  0  2.179981  0  0  -0.356591  -0.61713  0  2.19944  0
O  O93  1  0.32717121  0.22436169  0.59510873  1  0  -0.674882  0  1.951547  0  0  -0.63991  0  2.191611  0  0  -0.661693  0  2.179999  0  0  -0.356638  -0.617324  0  2.199464  0
O  O94  1  0.46218079  0.89993552  0.45800117  1  0  -0.852123  0  2.237462  0  0  -0.80695  0  2.494731  0  0  -0.833814  0  2.484523  0  0  -0.448988  -0.770844  0  2.500512  0
O  O95  1  0.53781482  0.10006968  0.54200829  1  0  -0.852179  0  2.237224  0  0  -0.806986  0  2.494478  0  0  -0.833847  0  2.484268  0  0  -0.448955  -0.770884  0  2.500263  0
O  O96  1  0.68906884  0.84679453  0.63896147  1  0  -0.74005  0  2.097002  0  0  -0.702771  0  2.356919  0  0  -0.728761  0  2.34733  0  0  -0.39595  -0.673755  0  2.363152  0
O  O97  1  0.31092188  0.15321261  0.36104188  1  0  -0.739813  0  2.09684  0  0  -0.702532  0  2.35674  0  0  -0.728515  0  2.347142  0  0  -0.395771  -0.673514  0  2.362972  0
O  O98  1  0.44096124  0.86871108  0.71699032  1  0  -0.724329  0  2.006578  0  0  -0.687304  0  2.255236  0  0  -0.711788  0  2.244297  0  0  -0.382005  -0.660868  0  2.26433  0
O  O99  1  0.55903370  0.13129717  0.28301987  1  0  -0.724208  0  2.006751  0  0  -0.687162  0  2.25536  0  0  -0.711646  0  2.244426  0  0  -0.381933  -0.660732  0  2.264449  0
O  O100  1  0.14632659  0.01762086  0.73893574  1  0  -0.609111  0  2.140337  0  0  -0.568709  0  2.404416  0  0  -0.591517  0  2.395414  0  0  -0.360308  -0.542999  0  2.411699  0
O  O101  1  0.85365700  0.98238223  0.26106437  1  0  -0.609191  0  2.140086  0  0  -0.568791  0  2.404093  0  0  -0.591607  0  2.39511  0  0  -0.360363  -0.543086  0  2.411391  0
