# generated using pymatgen
data_Zn4H32C55O13
_symmetry_space_group_name_H-M   'P 1'
_cell_length_a   15.36208826
_cell_length_b   15.64748264
_cell_length_c   17.91457282
_cell_angle_alpha   67.34553307
_cell_angle_beta   88.80103866
_cell_angle_gamma   71.57066332
_symmetry_Int_Tables_number   1
_chemical_formula_structural   Zn4H32C55O13
_chemical_formula_sum   'Zn4 H32 C55 O13'
_cell_volume   3745.11426542
_cell_formula_units_Z   1
loop_
 _symmetry_equiv_pos_site_id
 _symmetry_equiv_pos_as_xyz
  1  'x, y, z'
loop_
 _atom_site_type_symbol
 _atom_site_label
 _atom_site_symmetry_multiplicity
 _atom_site_fract_x
 _atom_site_fract_y
 _atom_site_fract_z
 _atom_site_occupancy
 _atom_site_pbe_bader_charge
 _atom_site_pbe_bader_spin_density
 _atom_site_pbe_cm5_charge
 _atom_site_pbe_ddec_charge
 _atom_site_pbe_ddec_spin_density
 _atom_site_pbe_ddec_sum_bond_order
 _atom_site_pbe_magmom
Zn  Zn0  1  0.43245023  0.57191475  0.56499691  1  1.31391  0  0.670595  0.964548  0  2.357241  0
Zn  Zn1  1  0.52923980  0.59192551  0.40537396  1  1.316357  0  0.672528  0.961121  0  2.403362  0
Zn  Zn2  1  0.42738049  0.44216062  0.46139264  1  1.309323  0  0.67072  0.948117  0  2.414198  0
Zn  Zn3  1  0.61225243  0.38930889  0.57063271  1  1.31507  0  0.670804  0.973567  0  2.317565  0
H  H4  1  0.68829767  0.26737698  0.09237316  1  0.074506  0  0.104211  0.105726  0  0.991118  0
H  H5  1  0.41899092  0.20298964  0.31292703  1  0.074668  0  0.103369  0.105257  0  0.990827  0
H  H6  1  0.38023919  0.08030774  0.28243086  1  0.057897  0  0.103651  0.102543  0  0.992944  0
H  H7  1  0.51838147  0.82612338  0.55862749  1  0.047809  0  0.10475  0.106612  0  1.016206  0
H  H8  1  0.65562697  0.08450074  0.67317326  1  0.088184  0  0.107966  0.111973  0  0.990635  0
H  H9  1  0.58658748  0.86179467  0.62805942  1  0.042279  0  0.103796  0.103052  0  1.008558  0
H  H10  1  0.66492591  0.90904702  0.71602108  1  0.075753  0  0.103859  0.101391  0  0.990261  0
H  H11  1  0.48693956  0.25196520  0.40521452  1  0.108916  0  0.102497  0.114578  0  1.02448  0
H  H12  1  0.31076460  0.72571488  0.17900529  1  0.079593  0  0.107615  0.111984  0  0.986537  0
H  H13  1  0.31520023  0.73058097  0.91116071  1  0.068176  0  0.104385  0.105152  0  0.991707  0
H  H14  1  0.72809481  0.23273607  0.97121012  1  0.079663  0  0.103203  0.103481  0  0.993071  0
H  H15  1  0.28023356  0.76886892  0.03062057  1  0.07011  0  0.104246  0.104057  0  0.992329  0
H  H16  1  0.69632086  0.27517540  0.82267673  1  0.089684  0  0.107572  0.114495  0  0.994284  0
H  H17  1  0.46880762  0.52987832  0.80034513  1  0.085283  0  0.105943  0.108193  0  1.032518  0
H  H18  1  0.59107347  0.36920645  0.15702018  1  0.055184  0  0.103443  0.104431  0  1.009952  0
H  H19  1  0.40484610  0.62244898  0.84804316  1  0.083276  0  0.104567  0.106437  0  1.008398  0
H  H20  1  0.94067426  0.53767348  0.27142064  1  0.073692  0  0.102513  0.102342  0  0.995098  0
H  H21  1  0.34224930  0.43583667  0.84421806  1  0.01478  0  0.08334  0.112237  0  1.012639  0
H  H22  1  0.27552800  0.55890993  0.82548120  1  0.0123  0  0.081398  0.105012  0  1.017679  0
H  H23  1  0.25861410  0.46111104  0.90966063  1  0.037023  0  0.084634  0.110801  0  1.003182  0
H  H24  1  0.13153172  0.52793711  0.79583595  1  0.009257  0  0.086543  0.072559  0  0.981107  0
H  H25  1  0.19670927  0.40496447  0.81449301  1  0.013272  0  0.087336  0.075024  0  0.976373  0
H  H26  1  0.78855080  0.51710312  0.30835245  1  0.07619  0  0.106028  0.111547  0  0.993371  0
H  H27  1  0.29167020  0.46591180  0.70167498  1  0.05268  0  0.095033  0.09866  0  0.977958  0
H  H28  1  0.22431229  0.58672529  0.68158261  1  0.05525  0  0.098612  0.107952  0  0.966729  0
H  H29  1  0.05451691  0.48176858  0.72681405  1  0.059979  0  0.100442  0.097819  0  1.024605  0
H  H30  1  0.08384727  0.55561082  0.30569880  1  0.034324  0  0.102371  0.103311  0  0.993728  0
H  H31  1  0.86137557  0.46805485  0.55464439  1  0.071728  0  0.104956  0.108286  0  1.018064  0
H  H32  1  0.94743454  0.47548024  0.63299950  1  0.066346  0  0.103137  0.102794  0  1.006587  0
H  H33  1  0.19234069  0.55546483  0.40322449  1  0.059709  0  0.10145  0.108497  0  1.018735  0
H  H34  1  0.39147006  0.90574355  0.31976550  1  0.067539  0  0.107534  0.113014  0  0.988881  0
H  H35  1  0.50395476  0.44455092  0.20977440  1  0.070606  0  0.104765  0.107248  0  1.015248  0
C  C36  1  0.72604184  0.48248477  0.45519291  1  1.566426  0  0.227376  0.611624  0  4.151522  0
C  C37  1  0.41700183  0.59926358  0.91364140  1  -0.04053  0  -0.088382  -0.127289  0  4.021356  0
C  C38  1  0.36659699  0.66011313  0.94863936  1  -0.100928  0  -0.090181  -0.13572  0  4.024338  0
C  C39  1  0.26850104  0.52540072  0.53948410  1  1.545954  0  0.229773  0.618048  0  4.150399  0
C  C40  1  0.38037317  0.63386720  0.03401193  1  -0.011892  0  -0.007001  0.078902  0  4.018486  0
C  C41  1  0.44717304  0.54145014  0.08392098  1  0.016786  0  -0.00152  0.036783  0  3.942576  0
C  C42  1  0.33052174  0.69849012  0.06975417  1  -0.105843  0  -0.087688  -0.12995  0  4.002938  0
C  C43  1  0.34631308  0.67450043  0.15191718  1  0.008818  0  -0.088593  -0.107125  0  4.010767  0
C  C44  1  0.45673770  0.51570871  0.16889887  1  -0.066938  0  -0.082821  -0.147699  0  3.941889  0
C  C45  1  0.92236582  0.52397931  0.33317963  1  -0.041041  0  -0.090962  -0.136744  0  4.011484  0
C  C46  1  0.81791339  0.49135505  0.43424759  1  -0.025773  0  -0.021777  -0.038823  0  4.006125  0
C  C47  1  0.65409307  0.32104646  0.85176081  1  0.038949  0  -0.086984  -0.096601  0  4.005123  0
C  C48  1  0.15512946  0.50965937  0.64266162  1  0.048051  0  0.002433  0.117311  0  3.921525  0
C  C49  1  0.07140882  0.49314864  0.66513014  1  -0.083641  0  -0.096581  -0.147031  0  4.021613  0
C  C50  1  0.01047791  0.48946803  0.61159396  1  -0.02155  0  -0.086358  -0.115319  0  4.015752  0
C  C51  1  0.46448111  0.75300845  0.46199108  1  1.575677  0  0.229366  0.614388  0  4.153527  0
C  C52  1  0.02806584  0.50386220  0.53081776  1  -0.00217  0  -0.005099  0.02554  0  3.958876  0
C  C53  1  0.11218131  0.52090417  0.50610172  1  -0.028764  0  0.000916  0.071314  0  3.961278  0
C  C54  1  0.96401345  0.50260349  0.47279738  1  -0.003219  0  -0.000348  0.036506  0  3.943064  0
C  C55  1  0.98531436  0.52142870  0.39118261  1  -0.008719  0  -0.005504  0.082302  0  4.022915  0
C  C56  1  0.06910193  0.54021977  0.36854031  1  -0.03264  0  -0.092108  -0.137521  0  4.035602  0
C  C57  1  0.12956794  0.54021846  0.42313515  1  -0.011009  0  -0.09119  -0.120933  0  4.00929  0
C  C58  1  0.52530405  0.46598969  0.83954785  1  -0.010853  0  -0.077675  -0.13194  0  3.947305  0
C  C59  1  0.88030804  0.48489332  0.49295528  1  -0.035339  0  -0.079644  -0.13616  0  3.936995  0
C  C60  1  0.83880088  0.51181431  0.35332648  1  0.001049  0  -0.088132  -0.097598  0  4.013253  0
C  C61  1  0.17537999  0.52128500  0.56332042  1  -0.040073  0  -0.014775  -0.141816  0  3.884217  0
C  C62  1  0.41215238  0.02400032  0.34243417  1  -0.01515  0  -0.088231  -0.12982  0  4.003661  0
C  C63  1  0.55878009  0.23858848  0.54441660  1  1.56896  0  0.227923  0.608499  0  4.160281  0
C  C64  1  0.45578184  0.85724203  0.44198745  1  -0.032239  0  -0.019387  -0.032624  0  4.004817  0
C  C65  1  0.62288502  0.06230478  0.63370677  1  -0.01687  0  -0.083372  -0.091045  0  3.997511  0
C  C66  1  0.62743611  0.96432075  0.65759411  1  -0.072061  0  -0.093934  -0.091165  0  4.064395  0
C  C67  1  0.58315855  0.93806227  0.60769334  1  -0.042036  0  -0.083423  -0.117637  0  3.991501  0
C  C68  1  0.53525882  0.00741232  0.53092183  1  0.018949  0  -0.000293  0.031138  0  3.939065  0
C  C69  1  0.54182147  0.44523008  0.92284367  1  -0.007225  0  -0.001766  0.029718  0  3.94439  0
C  C70  1  0.53129411  0.10738644  0.50564369  1  -0.031937  0  0.002667  0.067227  0  3.934673  0
C  C71  1  0.49184167  0.97935662  0.47672954  1  0.018048  0  -0.000892  0.035171  0  3.941528  0
C  C72  1  0.45028672  0.05120481  0.39751440  1  -0.04346  0  -0.005426  0.079305  0  4.020134  0
C  C73  1  0.45018100  0.14930137  0.37400020  1  -0.028328  0  -0.090027  -0.134418  0  4.028173  0
C  C74  1  0.48845222  0.17651728  0.42546499  1  -0.040102  0  -0.091648  -0.123695  0  4.002607  0
C  C75  1  0.42822889  0.55663135  0.29063218  1  1.557511  0  0.22852  0.608038  0  4.161652  0
C  C76  1  0.49027295  0.88306909  0.49817476  1  -0.015612  0  -0.080946  -0.140079  0  3.941793  0
C  C77  1  0.41719947  0.92808603  0.36297495  1  -0.019785  0  -0.087384  -0.101162  0  4.010899  0
C  C78  1  0.57359834  0.13368201  0.56017578  1  -0.02196  0  -0.013751  -0.080638  0  3.928155  0
C  C79  1  0.55700208  0.43016648  0.71625730  1  1.551055  0  0.226214  0.60671  0  4.166398  0
C  C80  1  0.61571990  0.35814886  0.97104309  1  0.014289  0  -0.005057  0.085112  0  4.013046  0
C  C81  1  0.57934629  0.40533143  0.80433920  1  -0.057663  0  -0.02382  -0.045776  0  4.004178  0
C  C82  1  0.40878872  0.58125163  0.20211299  1  0.024095  0  -0.016125  -0.019893  0  3.995655  0
C  C83  1  0.67127201  0.29819612  0.93362175  1  -0.10557  0  -0.089785  -0.136094  0  3.99774  0
C  C84  1  0.22099383  0.51177655  0.70322004  1  -0.033081  0  -0.160858  -0.197461  0  3.950455  0
C  C85  1  0.19998736  0.48000931  0.79170577  1  0.000852  0  -0.16638  -0.091272  0  3.984768  0
C  C86  1  0.27296615  0.48392626  0.84587573  1  -0.063165  0  -0.245772  -0.352523  0  3.979103  0
C  C87  1  0.48653589  0.50790695  0.96065151  1  0.03548  0  -0.001006  0.036945  0  3.949744  0
C  C88  1  0.50289486  0.47921188  0.04595245  1  -0.023179  0  -0.003659  0.029752  0  3.957152  0
C  C89  1  0.57654664  0.39089620  0.09187731  1  -0.107762  0  -0.089907  -0.127237  0  4.023842  0
C  C90  1  0.63144148  0.33347539  0.05598836  1  -0.015492  0  -0.091356  -0.136515  0  4.024671  0
O  O91  1  0.50195080  0.49744929  0.50394063  1  -1.236259  0  -0.575359  -1.030679  0  2.548986  0
O  O92  1  0.45045325  0.61971247  0.30737188  1  -1.167077  0  -0.315408  -0.544989  0  2.31004  0
O  O93  1  0.61281670  0.37764159  0.68435806  1  -1.178785  0  -0.316656  -0.548875  0  2.321116  0
O  O94  1  0.42193213  0.47594359  0.34245598  1  -1.167968  0  -0.314411  -0.544095  0  2.290883  0
O  O95  1  0.48314245  0.50204725  0.68009439  1  -1.183475  0  -0.319299  -0.554246  0  2.355608  0
O  O96  1  0.44708369  0.70222739  0.53208672  1  -1.174003  0  -0.316951  -0.54688  0  2.293686  0
O  O97  1  0.62239816  0.25934587  0.57161814  1  -1.163109  0  -0.316864  -0.551816  0  2.292422  0
O  O98  1  0.65967193  0.53146115  0.39697251  1  -1.1971  0  -0.32528  -0.56292  0  2.319318  0
O  O99  1  0.30937188  0.46755955  0.50556286  1  -1.17206  0  -0.311799  -0.542268  0  2.374476  0
O  O100  1  0.71980576  0.42874596  0.52835243  1  -1.172752  0  -0.316024  -0.545729  0  2.302411  0
O  O101  1  0.30088337  0.58306143  0.55551957  1  -1.16516  0  -0.311641  -0.548722  0  2.327502  0
O  O102  1  0.48978659  0.72338698  0.40521084  1  -1.173657  0  -0.315724  -0.547198  0  2.33675  0
O  O103  1  0.48035669  0.29953511  0.50724956  1  -1.186262  0  -0.312054  -0.538408  0  2.397339  0
