# generated using pymatgen
data_CuH6C10IN3O
_symmetry_space_group_name_H-M   'P 1'
_cell_length_a   7.06717103
_cell_length_b   12.92133603
_cell_length_c   13.31051631
_cell_angle_alpha   119.05032112
_cell_angle_beta   91.47822155
_cell_angle_gamma   89.99566345
_symmetry_Int_Tables_number   1
_chemical_formula_structural   CuH6C10IN3O
_chemical_formula_sum   'Cu4 H24 C40 I4 N12 O4'
_cell_volume   1062.10363916
_cell_formula_units_Z   4
loop_
 _symmetry_equiv_pos_site_id
 _symmetry_equiv_pos_as_xyz
  1  'x, y, z'
loop_
 _atom_site_type_symbol
 _atom_site_label
 _atom_site_symmetry_multiplicity
 _atom_site_fract_x
 _atom_site_fract_y
 _atom_site_fract_z
 _atom_site_occupancy
 _atom_site_hle17_bader_spin_density
 _atom_site_hle17_ddec_charge
 _atom_site_hle17_ddec_spin_density
 _atom_site_hle17_ddec_sum_bond_order
 _atom_site_hle17_magmom
 _atom_site_hse06_10hf_bader_spin_density
 _atom_site_hse06_10hf_ddec_charge
 _atom_site_hse06_10hf_ddec_spin_density
 _atom_site_hse06_10hf_ddec_sum_bond_order
 _atom_site_hse06_10hf_magmom
 _atom_site_hse06_bader_spin_density
 _atom_site_hse06_ddec_charge
 _atom_site_hse06_ddec_spin_density
 _atom_site_hse06_ddec_sum_bond_order
 _atom_site_hse06_magmom
 _atom_site_pbe_bader_spin_density
 _atom_site_pbe_cm5_charge
 _atom_site_pbe_ddec_charge
 _atom_site_pbe_ddec_spin_density
 _atom_site_pbe_ddec_sum_bond_order
 _atom_site_pbe_magmom
Cu  Cu0  1  0.65116155  0.46688828  0.09275035  1  0  0.27391  0  2.152558  0  0  0.199108  0  2.630649  0  0  0.208758  0  2.577326  0  0  0.258611  0.194822  0  2.66517  0
Cu  Cu1  1  0.84868474  0.37403625  0.90711253  1  0  0.274058  0  2.152544  0  0  0.199388  0  2.630597  0  0  0.208952  0  2.577224  0  0  0.258711  0.195114  0  2.665045  0
Cu  Cu2  1  0.34883448  0.53310724  0.90724501  1  0  0.273913  0  2.152557  0  0  0.199121  0  2.630656  0  0  0.208709  0  2.577301  0  0  0.258597  0.194834  0  2.665133  0
Cu  Cu3  1  0.15131289  0.62596725  0.09289035  1  0  0.274032  0  2.152501  0  0  0.19938  0  2.630558  0  0  0.208946  0  2.577171  0  0  0.258714  0.195084  0  2.665036  0
H  H4  1  0.24986678  0.80482083  0.99962597  1  0  0.097353  0  0.966829  0  0  0.098687  0  1.044515  0  0  0.103129  0  1.041303  0  0  0.09307  0.095123  0  1.047281  0
H  H5  1  0.75013933  0.19518267  0.00037930  1  0  0.097374  0  0.966792  0  0  0.09872  0  1.04446  0  0  0.103161  0  1.041251  0  0  0.093075  0.095154  0  1.047226  0
H  H6  1  0.23685861  0.99427396  0.18416228  1  0  0.097342  0  0.943303  0  0  0.103439  0  1.010617  0  0  0.106854  0  1.007896  0  0  0.104878  0.10095  0  1.012585  0
H  H7  1  0.26299699  0.80975804  0.81511300  1  0  0.097198  0  0.9433  0  0  0.103523  0  1.010403  0  0  0.106943  0  1.00768  0  0  0.105109  0.101009  0  1.012424  0
H  H8  1  0.76314469  0.00572952  0.81583843  1  0  0.097383  0  0.943258  0  0  0.103479  0  1.010567  0  0  0.106897  0  1.007839  0  0  0.104881  0.100986  0  1.012535  0
H  H9  1  0.73700041  0.19023749  0.18488915  1  0  0.097223  0  0.94329  0  0  0.103521  0  1.010417  0  0  0.106942  0  1.007692  0  0  0.105089  0.101006  0  1.012439  0
H  H10  1  0.25004509  0.19050052  0.99977018  1  0  0.099156  0  1.007596  0  0  0.094116  0  1.095451  0  0  0.097838  0  1.091995  0  0  0.100698  0.091181  0  1.098172  0
H  H11  1  0.74993969  0.80949767  0.00022625  1  0  0.09914  0  1.007625  0  0  0.094119  0  1.095434  0  0  0.097803  0  1.092089  0  0  0.100656  0.091182  0  1.098158  0
H  H12  1  0.41191914  0.75671891  0.54870365  1  0  0.108914  0  0.978331  0  0  0.118121  0  1.03961  0  0  0.121224  0  1.038043  0  0  0.10266  0.11595  0  1.040786  0
H  H13  1  0.08787241  0.20837925  0.45133357  1  0  0.109032  0  0.977933  0  0  0.118107  0  1.039393  0  0  0.121214  0  1.037809  0  0  0.102596  0.115946  0  1.040564  0
H  H14  1  0.58808275  0.24328277  0.45128793  1  0  0.108978  0  0.978178  0  0  0.11811  0  1.039555  0  0  0.121213  0  1.037988  0  0  0.102639  0.115945  0  1.04073  0
H  H15  1  0.91213363  0.79162158  0.54866969  1  0  0.109015  0  0.977995  0  0  0.118086  0  1.039461  0  0  0.121192  0  1.03788  0  0  0.102581  0.115921  0  1.040631  0
H  H16  1  0.20205545  0.63574710  0.59603148  1  0  0.095427  0  0.936952  0  0  0.107821  0  0.993617  0  0  0.110404  0  0.992388  0  0  0.104316  0.105938  0  0.994621  0
H  H17  1  0.29805346  0.04018368  0.40388520  1  0  0.095754  0  0.936239  0  0  0.108169  0  0.992767  0  0  0.110963  0  0.991274  0  0  0.104361  0.106141  0  0.993949  0
H  H18  1  0.79795073  0.36425725  0.40396593  1  0  0.095519  0  0.936854  0  0  0.107894  0  0.993543  0  0  0.110478  0  0.992309  0  0  0.104322  0.106012  0  0.99455  0
H  H19  1  0.70194250  0.95981098  0.59611727  1  0  0.095776  0  0.936368  0  0  0.108181  0  0.992907  0  0  0.110976  0  0.991412  0  0  0.104367  0.106153  0  0.994081  0
H  H20  1  0.14801611  0.42010621  0.46040955  1  0  0.116116  0  0.962181  0  0  0.123156  0  1.026109  0  0  0.126435  0  1.024644  0  0  0.108694  0.120794  0  1.02727  0
H  H21  1  0.35224250  0.95992296  0.53924429  1  0  0.116248  0  0.96222  0  0  0.123358  0  1.025957  0  0  0.126697  0  1.024422  0  0  0.108832  0.121007  0  1.027102  0
H  H22  1  0.85199280  0.57989550  0.53959192  1  0  0.116075  0  0.962229  0  0  0.123121  0  1.02615  0  0  0.126421  0  1.024662  0  0  0.108672  0.120758  0  1.027312  0
H  H23  1  0.64774491  0.04006995  0.46075948  1  0  0.116226  0  0.962211  0  0  0.123297  0  1.025991  0  0  0.126635  0  1.02446  0  0  0.108819  0.120949  0  1.027135  0
H  H24  1  0.57334804  0.66812542  0.35882198  1  0  0.109095  0  0.96874  0  0  0.116611  0  1.034059  0  0  0.119609  0  1.03295  0  0  0.099104  0.114294  0  1.035147  0
H  H25  1  0.92621016  0.30937942  0.64122888  1  0  0.10898  0  0.968832  0  0  0.116516  0  1.034185  0  0  0.119474  0  1.033118  0  0  0.099034  0.114153  0  1.035331  0
H  H26  1  0.42665509  0.33187008  0.64117047  1  0  0.109157  0  0.968623  0  0  0.116645  0  1.03397  0  0  0.119641  0  1.032856  0  0  0.099115  0.114329  0  1.035057  0
H  H27  1  0.07380301  0.69062318  0.35877458  1  0  0.108983  0  0.968758  0  0  0.116533  0  1.034092  0  0  0.119482  0  1.033034  0  0  0.099032  0.114169  0  1.035238  0
C  C28  1  0.24995053  0.88911040  0.99962702  1  0  -0.060973  0  3.733836  0  0  -0.072797  0  3.993359  0  0  -0.079058  0  4.015317  0  0  -0.085332  -0.068983  0  3.979283  0
C  C29  1  0.75004843  0.11089044  0.00037614  1  0  -0.061094  0  3.733676  0  0  -0.072942  0  3.99323  0  0  -0.079205  0  4.015192  0  0  -0.085408  -0.069128  0  3.979153  0
C  C30  1  0.24279719  0.99478927  0.10276177  1  0  -0.031426  0  3.684792  0  0  -0.062445  0  3.93979  0  0  -0.05917  0  3.958638  0  0  -0.068411  -0.064397  0  3.927201  0
C  C31  1  0.25714388  0.89166818  0.89653702  1  0  -0.03151  0  3.684033  0  0  -0.062855  0  3.939374  0  0  -0.059535  0  3.958168  0  0  -0.068487  -0.064835  0  3.926767  0
C  C32  1  0.75719885  0.00520714  0.89723626  1  0  -0.031384  0  3.684635  0  0  -0.062406  0  3.93956  0  0  -0.05913  0  3.958405  0  0  -0.068358  -0.064357  0  3.926968  0
C  C33  1  0.74285363  0.10833090  0.10346529  1  0  -0.031505  0  3.684107  0  0  -0.062827  0  3.939422  0  0  -0.05951  0  3.958216  0  0  -0.068423  -0.064809  0  3.926817  0
C  C34  1  0.24637871  0.10376388  0.10342715  1  0  -0.066139  0  3.773276  0  0  -0.044345  0  4.009438  0  0  -0.055128  0  4.034392  0  0  -0.014247  -0.037327  0  3.99301  0
C  C35  1  0.25370551  0.00006184  0.89598957  1  0  -0.065562  0  3.773178  0  0  -0.044196  0  4.00912  0  0  -0.055031  0  4.034242  0  0  -0.014416  -0.037039  0  3.99253  0
C  C36  1  0.75361320  0.89623696  0.89657214  1  0  -0.06625  0  3.77344  0  0  -0.044303  0  4.0096  0  0  -0.05508  0  4.034543  0  0  -0.014287  -0.037281  0  3.993167  0
C  C37  1  0.74628490  0.99993636  0.10401147  1  0  -0.065624  0  3.773228  0  0  -0.044222  0  4.009173  0  0  -0.05505  0  4.034285  0  0  -0.014465  -0.037073  0  3.992568  0
C  C38  1  0.25006739  0.10659164  0.99972311  1  0  -0.060599  0  3.701202  0  0  -0.099171  0  3.956648  0  0  -0.095824  0  3.976336  0  0  -0.068055  -0.101306  0  3.943817  0
C  C39  1  0.74992451  0.89340921  0.00027844  1  0  -0.060499  0  3.701065  0  0  -0.099086  0  3.95644  0  0  -0.095746  0  3.9761  0  0  -0.067993  -0.101228  0  3.943625  0
C  C40  1  0.23085623  0.21132884  0.21678102  1  0  0.516399  0  3.740773  0  0  0.469858  0  4.022501  0  0  0.500367  0  4.018504  0  0  0.268943  0.448596  0  4.025648  0
C  C41  1  0.26914414  0.99439469  0.78272797  1  0  0.515186  0  3.738505  0  0  0.470362  0  4.018213  0  0  0.500712  0  4.014454  0  0  0.268756  0.448981  0  4.02151  0
C  C42  1  0.76912723  0.78867468  0.78322391  1  0  0.51667  0  3.739907  0  0  0.469772  0  4.022158  0  0  0.500279  0  4.018177  0  0  0.269125  0.448506  0  4.025293  0
C  C43  1  0.73084924  0.00560971  0.21727828  1  0  0.515331  0  3.738898  0  0  0.470401  0  4.018719  0  0  0.500751  0  4.014954  0  0  0.268892  0.449061  0  4.021962  0
C  C44  1  0.32826335  0.42627523  0.33354517  1  0  0.119425  0  3.784335  0  0  0.102971  0  4.031134  0  0  0.10877  0  4.053781  0  0  0.102325  0.099158  0  4.015784  0
C  C45  1  0.17176186  0.09281513  0.66618856  1  0  0.119376  0  3.782955  0  0  0.10361  0  4.028962  0  0  0.109383  0  4.051627  0  0  0.102975  0.099804  0  4.01361  0
C  C46  1  0.67174129  0.57372471  0.66645314  1  0  0.119491  0  3.784285  0  0  0.103023  0  4.031073  0  0  0.10882  0  4.053726  0  0  0.102373  0.099211  0  4.015724  0
C  C47  1  0.82823575  0.90718838  0.33381658  1  0  0.119264  0  3.78307  0  0  0.103465  0  4.029159  0  0  0.109236  0  4.051831  0  0  0.102911  0.099658  0  4.013811  0
C  C48  1  0.39072917  0.66366742  0.48588045  1  0  -0.070758  0  3.732012  0  0  -0.088007  0  3.986117  0  0  -0.092046  0  4.00813  0  0  -0.089358  -0.085178  0  3.97118  0
C  C49  1  0.10909260  0.17807468  0.51408156  1  0  -0.070991  0  3.731802  0  0  -0.088309  0  3.986116  0  0  -0.092359  0  4.00818  0  0  -0.089474  -0.085456  0  3.971091  0
C  C50  1  0.60927412  0.33633428  0.51411416  1  0  -0.070686  0  3.73175  0  0  -0.087886  0  3.985858  0  0  -0.091924  0  4.007871  0  0  -0.089352  -0.085059  0  3.970926  0
C  C51  1  0.89091055  0.82192350  0.48591967  1  0  -0.070867  0  3.731723  0  0  -0.088165  0  3.985999  0  0  -0.092217  0  4.00807  0  0  -0.089427  -0.085306  0  3.970957  0
C  C52  1  0.27075739  0.59403230  0.51327249  1  0  -0.03938  0  3.724352  0  0  -0.058283  0  3.981889  0  0  -0.058148  0  4.002892  0  0  -0.081434  -0.058299  0  3.96761  0
C  C53  1  0.22921073  0.08107017  0.48658352  1  0  -0.039176  0  3.724543  0  0  -0.058103  0  3.98203  0  0  -0.058086  0  4.003016  0  0  -0.081471  -0.058044  0  3.967795  0
C  C54  1  0.72924873  0.40596939  0.48672291  1  0  -0.039559  0  3.724158  0  0  -0.058436  0  3.981678  0  0  -0.058306  0  4.002685  0  0  -0.081431  -0.058453  0  3.967404  0
C  C55  1  0.77078673  0.91892803  0.51342063  1  0  -0.039387  0  3.724732  0  0  -0.058322  0  3.982207  0  0  -0.058307  0  4.003195  0  0  -0.081551  -0.058258  0  3.967968  0
C  C56  1  0.23759006  0.47402911  0.43857757  1  0  -0.13603  0  3.739096  0  0  -0.155491  0  3.994856  0  0  -0.15985  0  4.014892  0  0  -0.086472  -0.152587  0  3.981374  0
C  C57  1  0.26258321  0.03569860  0.56118030  1  0  -0.136265  0  3.739372  0  0  -0.155988  0  3.994974  0  0  -0.160439  0  4.015123  0  0  -0.086679  -0.153073  0  3.981433  0
C  C58  1  0.76242023  0.52596993  0.56141892  1  0  -0.135993  0  3.73906  0  0  -0.155459  0  3.994821  0  0  -0.159835  0  4.014843  0  0  -0.086466  -0.152556  0  3.981343  0
C  C59  1  0.73741425  0.96429960  0.43882460  1  0  -0.136011  0  3.739305  0  0  -0.155656  0  3.994866  0  0  -0.160108  0  4.015019  0  0  -0.086546  -0.152745  0  3.981324  0
C  C60  1  0.48087129  0.61575547  0.38148015  1  0  -0.106067  0  3.71651  0  0  -0.124157  0  3.962284  0  0  -0.124309  0  3.981265  0  0  -0.081913  -0.124368  0  3.950206  0
C  C61  1  0.01886727  0.23440256  0.61846871  1  0  -0.105437  0  3.715653  0  0  -0.123809  0  3.961194  0  0  -0.123929  0  3.980217  0  0  -0.081447  -0.12399  0  3.94915  0
C  C62  1  0.51913469  0.38424091  0.61851351  1  0  -0.106131  0  3.716301  0  0  -0.124217  0  3.962083  0  0  -0.124364  0  3.981059  0  0  -0.08186  -0.124426  0  3.950007  0
C  C63  1  0.98113598  0.76559915  0.38153192  1  0  -0.105526  0  3.715466  0  0  -0.123876  0  3.96107  0  0  -0.123987  0  3.980097  0  0  -0.081463  -0.124056  0  3.949022  0
C  C64  1  0.44663347  0.49566193  0.30540464  1  0  0.101675  0  3.801309  0  0  0.100589  0  4.047961  0  0  0.098462  0  4.070126  0  0  0.08899  0.101762  0  4.033762  0
C  C65  1  0.05314706  0.19029268  0.69443593  1  0  0.099973  0  3.801966  0  0  0.09963  0  4.04746  0  0  0.097459  0  4.069602  0  0  0.088176  0.100797  0  4.033252  0
C  C66  1  0.55336969  0.50433534  0.69459091  1  0  0.101566  0  3.801016  0  0  0.100538  0  4.047597  0  0  0.098406  0  4.069759  0  0  0.088915  0.101709  0  4.033399  0
C  C67  1  0.94685626  0.80971169  0.30556670  1  0  0.100056  0  3.801904  0  0  0.099616  0  4.047569  0  0  0.097447  0  4.069707  0  0  0.08815  0.100779  0  4.033367  0
I  I68  1  0.01065633  0.45158829  0.12116359  1  0  -0.368213  0  1.764264  0  0  -0.327393  0  2.232501  0  0  -0.346626  0  2.192708  0  0  -0.186961  -0.312369  0  2.25795  0
I  I69  1  0.48923381  0.33030176  0.87871721  1  0  -0.367998  0  1.764558  0  0  -0.327108  0  2.232698  0  0  -0.346336  0  2.192903  0  0  -0.186946  -0.31209  0  2.258146  0
I  I70  1  0.98933846  0.54841611  0.87884343  1  0  -0.36825  0  1.764401  0  0  -0.327437  0  2.232659  0  0  -0.346647  0  2.192847  0  0  -0.186963  -0.312409  0  2.258089  0
I  I71  1  0.51076373  0.66969729  0.12127908  1  0  -0.368046  0  1.764553  0  0  -0.327175  0  2.232704  0  0  -0.346398  0  2.19291  0  0  -0.186987  -0.31215  0  2.258159  0
N  N72  1  0.33257606  0.31461926  0.23769231  1  0  -0.108656  0  3.474542  0  0  -0.031664  0  3.700441  0  0  -0.050102  0  3.721357  0  0  -0.117297  -0.019347  0  3.68639  0
N  N73  1  0.16745070  0.07683845  0.76192186  1  0  -0.107087  0  3.473019  0  0  -0.031756  0  3.699578  0  0  -0.050041  0  3.720357  0  0  -0.117506  -0.019443  0  3.685594  0
N  N74  1  0.66742427  0.68537891  0.76230662  1  0  -0.108658  0  3.474543  0  0  -0.031568  0  3.700533  0  0  -0.050004  0  3.721451  0  0  -0.117285  -0.019256  0  3.686482  0
N  N75  1  0.83254827  0.92316239  0.23808130  1  0  -0.10704  0  3.473067  0  0  -0.031639  0  3.699614  0  0  -0.049924  0  3.720393  0  0  -0.117472  -0.019335  0  3.685625  0
N  N76  1  0.44774684  0.31611645  0.15651337  1  0  -0.020673  0  2.855016  0  0  -0.019124  0  3.134249  0  0  -0.010596  0  3.141875  0  0  -0.05899  -0.024999  0  3.129782  0
N  N77  1  0.05214183  0.15940849  0.84314667  1  0  -0.021022  0  2.854342  0  0  -0.018918  0  3.133717  0  0  -0.010438  0  3.141298  0  0  -0.058499  -0.024803  0  3.129225  0
N  N78  1  0.55225350  0.68388173  0.84348481  1  0  -0.02058  0  2.854986  0  0  -0.019036  0  3.134218  0  0  -0.010497  0  3.141831  0  0  -0.05894  -0.024908  0  3.129742  0
N  N79  1  0.94785435  0.84059412  0.15685652  1  0  -0.021188  0  2.854784  0  0  -0.019098  0  3.134175  0  0  -0.010608  0  3.141758  0  0  -0.058582  -0.024984  0  3.129692  0
N  N80  1  0.51325656  0.42297181  0.19582019  1  0  -0.153097  0  3.267527  0  0  -0.10633  0  3.579427  0  0  -0.106127  0  3.577437  0  0  -0.222466  -0.107784  0  3.581705  0
N  N81  1  0.98654233  0.22704340  0.80397392  1  0  -0.152405  0  3.268062  0  0  -0.106256  0  3.580127  0  0  -0.105944  0  3.578024  0  0  -0.222708  -0.10768  0  3.582323  0
N  N82  1  0.48674231  0.57702459  0.80417713  1  0  -0.153124  0  3.267428  0  0  -0.106379  0  3.579346  0  0  -0.106155  0  3.577307  0  0  -0.22248  -0.107831  0  3.581595  0
N  N83  1  0.01346386  0.77296273  0.19602883  1  0  -0.152344  0  3.268085  0  0  -0.10617  0  3.580183  0  0  -0.105864  0  3.578078  0  0  -0.222666  -0.107585  0  3.582392  0
O  O84  1  0.13450116  0.21506560  0.29404248  1  0  -0.475601  0  1.936182  0  0  -0.434974  0  2.151141  0  0  -0.45193  0  2.144026  0  0  -0.251098  -0.423736  0  2.156249  0
O  O85  1  0.36555626  0.92090846  0.70536210  1  0  -0.475503  0  1.933608  0  0  -0.435608  0  2.148007  0  0  -0.452524  0  2.140997  0  0  -0.251155  -0.424332  0  2.153166  0
O  O86  1  0.86549933  0.78493608  0.70594682  1  0  -0.475923  0  1.935315  0  0  -0.435171  0  2.150483  0  0  -0.45213  0  2.143373  0  0  -0.251327  -0.423934  0  2.155586  0
O  O87  1  0.63444976  0.07908969  0.29463315  1  0  -0.475551  0  1.934182  0  0  -0.435598  0  2.148604  0  0  -0.452509  0  2.14159  0  0  -0.251205  -0.424337  0  2.153748  0
