# generated using pymatgen
data_CdH8C12(SN4)2
_symmetry_space_group_name_H-M   'P 1'
_cell_length_a   5.53180142
_cell_length_b   7.19195206
_cell_length_c   9.51035523
_cell_angle_alpha   94.40306794
_cell_angle_beta   104.18316851
_cell_angle_gamma   95.38014012
_symmetry_Int_Tables_number   1
_chemical_formula_structural   CdH8C12(SN4)2
_chemical_formula_sum   'Cd1 H8 C12 S2 N8'
_cell_volume   363.25941005
_cell_formula_units_Z   1
loop_
 _symmetry_equiv_pos_site_id
 _symmetry_equiv_pos_as_xyz
  1  'x, y, z'
loop_
 _atom_site_type_symbol
 _atom_site_label
 _atom_site_symmetry_multiplicity
 _atom_site_fract_x
 _atom_site_fract_y
 _atom_site_fract_z
 _atom_site_occupancy
 _atom_site_pbe_bader_spin_density
 _atom_site_pbe_cm5_charge
 _atom_site_pbe_ddec_charge
 _atom_site_pbe_ddec_spin_density
 _atom_site_pbe_ddec_sum_bond_order
 _atom_site_pbe_magmom
Cd  Cd0  1  0.99999691  0.49999368  0.49999532  1  0  0.745121  0.759296  0  2.468156  0
H  H1  1  0.82410819  0.73399116  0.95933779  1  0  0.142677  0.124595  0  0.974755  0
H  H2  1  0.17589052  0.26602968  0.04066558  1  0  0.142686  0.124554  0  0.9748  0
H  H3  1  0.43962495  0.70656102  0.32030539  1  0  0.132862  0.107441  0  1.047323  0
H  H4  1  0.56036923  0.29341897  0.67968581  1  0  0.132898  0.10745  0  1.047282  0
H  H5  1  0.59644311  0.98687176  0.26808155  1  0  0.101678  0.11255  0  1.039564  0
H  H6  1  0.40356624  0.01313359  0.73191939  1  0  0.101604  0.112483  0  1.039412  0
H  H7  1  0.13779042  0.79800279  0.83281203  1  0  0.100316  0.11141  0  1.049748  0
H  H8  1  0.86221289  0.20199975  0.16718791  1  0  0.100355  0.111516  0  1.04993  0
C  C9  1  0.42997012  0.27239981  0.40828818  1  0  0.139971  0.242004  0  4.327242  0
C  C10  1  0.57001236  0.72758873  0.59171020  1  0  0.14002  0.242096  0  4.327319  0
C  C11  1  0.93477439  0.70107724  0.06338645  1  0  0.151184  0.086351  0  3.909299  0
C  C12  1  0.06521991  0.29893927  0.93660765  1  0  0.151221  0.086378  0  3.909444  0
C  C13  1  0.25098267  0.68981713  0.24987383  1  0  0.160404  0.105058  0  3.885218  0
C  C14  1  0.74902260  0.31017414  0.75012267  1  0  0.160466  0.105178  0  3.88541  0
C  C15  1  0.34698588  0.87943478  0.05762369  1  0  0.094649  0.160998  0  4.006182  0
C  C16  1  0.65301206  0.12056915  0.94237450  1  0  0.094655  0.161134  0  4.006095  0
C  C17  1  0.55324647  0.99156754  0.15048121  1  0  -0.085942  -0.141238  0  3.973592  0
C  C18  1  0.44675666  0.00843374  0.84952916  1  0  -0.08587  -0.141294  0  3.973781  0
C  C19  1  0.29422173  0.88711350  0.90703130  1  0  -0.087885  -0.148247  0  3.979617  0
C  C20  1  0.70579223  0.11289751  0.09297373  1  0  -0.087897  -0.148435  0  3.979605  0
S  S21  1  0.18213705  0.15684545  0.43726194  1  0  -0.13739  -0.27002  0  2.485872  0
S  S22  1  0.81786354  0.84315156  0.56274364  1  0  -0.137453  -0.270139  0  2.485514  0
N  N23  1  0.60958326  0.35784104  0.38777991  1  0  -0.397669  -0.452492  0  3.17836  0
N  N24  1  0.39042451  0.64215436  0.61221190  1  0  -0.397676  -0.452463  0  3.178669  0
N  N25  1  0.04985042  0.59716593  0.27405098  1  0  -0.24095  -0.198978  0  3.450844  0
N  N26  1  0.95013762  0.40282247  0.72593871  1  0  -0.241159  -0.199261  0  3.451225  0
N  N27  1  0.84811186  0.60392590  0.15593962  1  0  -0.231613  -0.201182  0  3.19292  0
N  N28  1  0.15187860  0.39607798  0.84405330  1  0  -0.231526  -0.200948  0  3.192861  0
N  N29  1  0.18769672  0.75955313  0.11782689  1  0  -0.21484  -0.017821  0  3.761719  0
N  N30  1  0.81230166  0.24045364  0.88217361  1  0  -0.214897  -0.017974  0  3.761799  0
