# generated using pymatgen
data_CoH12(C8O3)2
_symmetry_space_group_name_H-M   'P 1'
_cell_length_a   7.33805256
_cell_length_b   8.50555548
_cell_length_c   12.45362948
_cell_angle_alpha   109.96060155
_cell_angle_beta   98.78733959
_cell_angle_gamma   90.00955665
_symmetry_Int_Tables_number   1
_chemical_formula_structural   CoH12(C8O3)2
_chemical_formula_sum   'Co2 H24 C32 O12'
_cell_volume   720.86853463
_cell_formula_units_Z   2
loop_
 _symmetry_equiv_pos_site_id
 _symmetry_equiv_pos_as_xyz
  1  'x, y, z'
loop_
 _atom_site_type_symbol
 _atom_site_label
 _atom_site_symmetry_multiplicity
 _atom_site_fract_x
 _atom_site_fract_y
 _atom_site_fract_z
 _atom_site_occupancy
 _atom_site_hle17_ddec_charge
 _atom_site_hle17_ddec_spin_density
 _atom_site_hle17_ddec_sum_bond_order
 _atom_site_hle17_magmom
 _atom_site_hse06_10hf_ddec_charge
 _atom_site_hse06_10hf_ddec_spin_density
 _atom_site_hse06_10hf_ddec_sum_bond_order
 _atom_site_hse06_10hf_magmom
 _atom_site_hse06_ddec_charge
 _atom_site_hse06_ddec_spin_density
 _atom_site_hse06_ddec_sum_bond_order
 _atom_site_hse06_magmom
 _atom_site_pbe_cm5_charge
 _atom_site_pbe_ddec_charge
 _atom_site_pbe_ddec_spin_density
 _atom_site_pbe_ddec_sum_bond_order
 _atom_site_pbe_magmom
Co  Co0  1  0.74995424  0.09163902  0.99996909  1  1.107575  2.834665  1.877909  2.57  1.074274  2.816293  2.295216  2.631  1.154198  2.874344  2.221126  2.716  0.671683  1.009629  2.752635  2.350673  2.54
Co  Co1  1  0.25004557  0.90836148  0.00003138  1  1.107574  -2.834664  1.877841  -2.57  1.074292  -2.816295  2.29515  -2.631  1.154217  -2.874347  2.221063  -2.716  0.671701  1.009647  -2.75264  2.350605  -2.54
H  H2  1  0.15050446  0.95681150  0.66937451  1  0.103389  -0.000206  0.967038  0.0  0.112801  -9.5e-05  1.030238  0.0  0.116541  -4e-05  1.027318  0.0  0.104352  0.109994  -0.000153  1.032495  0.0
H  H3  1  0.34954003  0.28745384  0.33059169  1  0.103615  -0.000206  0.96757  0.0  0.112969  -9.2e-05  1.03066  0.0  0.116793  -3.8e-05  1.027646  0.0  0.104454  0.110147  -0.000148  1.032896  0.0
H  H4  1  0.84949802  0.04318775  0.33062511  1  0.103389  0.000206  0.967052  0.0  0.112779  9.4e-05  1.030278  0.0  0.116517  4e-05  1.027356  0.0  0.104353  0.109974  0.000153  1.032534  0.0
H  H5  1  0.65045832  0.71254540  0.66940917  1  0.103634  0.000202  0.967564  0.0  0.112984  9.2e-05  1.030659  0.0  0.116808  3.7e-05  1.027646  0.0  0.104462  0.11016  0.000148  1.032899  0.0
H  H6  1  0.55966103  0.22601466  0.62929734  1  0.104974  -5e-05  0.980937  0.0  0.114291  -5.7e-05  1.045345  0.0  0.116737  -3.9e-05  1.046106  0.0  0.102147  0.112529  -8.3e-05  1.044947  0.0
H  H7  1  0.94041213  0.59674137  0.37067241  1  0.104559  -5.7e-05  0.981289  0.0  0.114264  -5.8e-05  1.045273  0.0  0.116695  -3.9e-05  1.046041  0.0  0.102223  0.112595  -8.3e-05  1.044759  0.0
H  H8  1  0.44034291  0.77398584  0.37070271  1  0.104946  5.1e-05  0.98094  0.0  0.114265  5.7e-05  1.045347  0.0  0.11671  3.9e-05  1.046108  0.0  0.102136  0.112501  8.3e-05  1.044954  0.0
H  H9  1  0.05958491  0.40325913  0.62932782  1  0.104522  5.2e-05  0.981312  0.0  0.114243  5.7e-05  1.045281  0.0  0.116675  3.9e-05  1.046049  0.0  0.102205  0.112572  8.3e-05  1.044772  0.0
H  H10  1  0.71497421  0.12121380  0.46314437  1  0.092749  -4.3e-05  0.954839  0.0  0.105642  2.6e-05  1.011715  0.0  0.108356  1.7e-05  1.010056  0.0  0.102033  0.103579  4.5e-05  1.013148  0.0
H  H11  1  0.78501210  0.65810907  0.53678070  1  0.092474  -3.6e-05  0.954102  0.0  0.10548  2.4e-05  1.010947  0.0  0.108165  1.6e-05  1.009349  0.0  0.101885  0.103491  4e-05  1.012229  0.0
H  H12  1  0.28502835  0.87878670  0.53685635  1  0.092745  4.1e-05  0.954871  0.0  0.105634  -2.6e-05  1.011754  0.0  0.108348  -1.7e-05  1.010095  0.0  0.102029  0.10357  -4.5e-05  1.013184  0.0
H  H13  1  0.21498502  0.34189268  0.46321982  1  0.092503  3.7e-05  0.954085  0.0  0.105508  -2.5e-05  1.010926  0.0  0.108192  -1.6e-05  1.009328  0.0  0.101903  0.103517  -4e-05  1.012211  0.0
H  H14  1  0.53109042  0.40588896  0.80379402  1  0.077632  0.00011  0.973594  0.0  0.092581  7.2e-05  1.043225  0.0  0.091922  4.9e-05  1.044859  0.0  0.094208  0.093059  0.000101  1.042136  0.0
H  H15  1  0.96897598  0.60216794  0.19618456  1  0.077681  0.000106  0.973574  0.0  0.092738  7.2e-05  1.042926  0.0  0.092077  4.9e-05  1.04456  0.0  0.094135  0.093247  0.0001  1.041817  0.0
H  H16  1  0.46891076  0.59411154  0.19620577  1  0.077603  -0.000109  0.973633  0.0  0.092555  -7.2e-05  1.043276  0.0  0.091895  -4.9e-05  1.04491  0.0  0.094186  0.093034  -0.000101  1.042187  0.0
H  H17  1  0.03102245  0.39783256  0.80381499  1  0.077662  -0.000105  0.973583  0.0  0.092711  -7.3e-05  1.042947  0.0  0.092049  -5e-05  1.044582  0.0  0.09413  0.09322  -0.0001  1.041839  0.0
H  H18  1  0.47652792  0.33925322  0.91855346  1  0.12036  -0.000145  0.931482  0.0  0.136773  -0.000136  0.990309  0.0  0.138646  -0.000146  0.988564  0.0  0.111885  0.135171  -0.000117  0.991809  0.0
H  H19  1  0.02359001  0.42077285  0.08141564  1  0.120447  -0.000147  0.931523  0.0  0.137199  -0.000134  0.989714  0.0  0.139083  -0.000145  0.987958  0.0  0.111966  0.135609  -0.000114  0.991202  0.0
H  H20  1  0.52347189  0.66074729  0.08144460  1  0.120356  0.000148  0.931429  0.0  0.136757  0.000136  0.990278  0.0  0.138629  0.000146  0.988534  0.0  0.111881  0.135155  0.000117  0.991777  0.0
H  H21  1  0.97640834  0.57922640  0.91858361  1  0.120414  0.000148  0.931478  0.0  0.137145  0.000134  0.989704  0.0  0.13903  0.000145  0.987946  0.0  0.111943  0.135555  0.000114  0.991193  0.0
H  H22  1  0.40790923  0.20765757  0.77080659  1  0.086323  1e-05  0.92947  0.0  0.106364  1e-06  0.991673  0.0  0.106265  -3e-06  0.9918  0.0  0.099939  0.10638  6e-06  0.991656  0.0
H  H23  1  0.09214028  0.43693838  0.22916853  1  0.086941  4e-06  0.928421  0.0  0.105416  -0.0  0.992363  0.0  0.105295  -4e-06  0.992492  0.0  0.099752  0.105495  5e-06  0.992283  0.0
H  H24  1  0.59209066  0.79234419  0.22919178  1  0.086308  -8e-06  0.929474  0.0  0.106374  -1e-06  0.991651  0.0  0.106275  3e-06  0.991777  0.0  0.09996  0.106391  -6e-06  0.991636  0.0
H  H25  1  0.90785961  0.56306337  0.77083144  1  0.086915  -3e-06  0.928426  0.0  0.10539  0.0  0.992371  0.0  0.105269  4e-06  0.992499  0.0  0.099752  0.105468  -5e-06  0.992292  0.0
C  C26  1  0.95069530  0.03132771  0.55024034  1  0.0215  -0.001125  3.816427  -0.002  0.035319  -0.00032  4.055312  -0.001  0.032381  -0.000391  4.080712  -0.001  -0.022793  0.037226  -0.000234  4.038358  0.0
C  C27  1  0.54929049  0.48115147  0.44973751  1  0.022708  -0.000996  3.813332  -0.002  0.036446  -0.000263  4.052542  0.0  0.033499  -0.000349  4.07802  -0.001  -0.022723  0.038388  -0.000159  4.03537  0.0
C  C28  1  0.04930297  0.96867028  0.44975942  1  0.021458  0.001118  3.816448  0.002  0.035302  0.00032  4.05531  0.001  0.032364  0.00039  4.08071  0.001  -0.022804  0.037212  0.000234  4.038354  0.0
C  C29  1  0.45071046  0.51884527  0.55026379  1  0.022825  0.000995  3.81318  0.002  0.036516  0.000263  4.052418  0.0  0.03357  0.000347  4.077893  0.001  -0.022667  0.038456  0.000159  4.035245  0.0
C  C30  1  0.02235811  0.01771586  0.65742946  1  -0.09771  0.002064  3.725963  0.003  -0.129728  0.001044  3.977018  0.001  -0.126854  0.000901  3.994118  0.001  -0.085713  -0.13188  0.001233  3.966066  0.002
C  C31  1  0.47767328  0.36035115  0.34255492  1  -0.09936  0.002097  3.727056  0.003  -0.131101  0.001022  3.977976  0.001  -0.128281  0.000858  3.995049  0.001  -0.085699  -0.133147  0.001283  3.966903  0.002
C  C32  1  0.97764291  0.98228214  0.34256973  1  -0.097696  -0.002054  3.726009  -0.003  -0.12973  -0.001044  3.977037  -0.001  -0.126851  -0.000901  3.994134  -0.001  -0.085728  -0.131883  -0.001233  3.966087  -0.002
C  C33  1  0.52232645  0.63964809  0.65744606  1  -0.099397  -0.002074  3.726975  -0.003  -0.131145  -0.001021  3.977919  -0.001  -0.128325  -0.000855  3.994991  -0.001  -0.085732  -0.133193  -0.001283  3.966847  -0.002
C  C34  1  0.93769382  0.08085394  0.75581982  1  -0.173956  -0.004475  3.751966  -0.006  -0.160536  -0.002328  3.996288  -0.003  -0.171564  -0.001923  4.013798  -0.003  -0.028951  -0.153583  -0.002679  3.986067  -0.004
C  C35  1  0.56235326  0.32508665  0.24415304  1  -0.173532  -0.004393  3.751311  -0.006  -0.159817  -0.002279  3.994952  -0.003  -0.17089  -0.001886  4.01254  -0.003  -0.02865  -0.152796  -0.002622  3.984576  -0.004
C  C36  1  0.06230867  0.91914531  0.24418060  1  -0.173988  0.004463  3.751983  0.006  -0.160481  0.002328  3.996176  0.003  -0.171507  0.001923  4.013685  0.003  -0.028943  -0.153526  0.002679  3.985958  0.004
C  C37  1  0.43764524  0.67491510  0.75584761  1  -0.173566  0.004384  3.751399  0.006  -0.159841  0.002279  3.995015  0.003  -0.170914  0.001885  4.0126  0.003  -0.028649  -0.152819  0.002622  3.984634  0.004
C  C38  1  0.76797480  0.15861094  0.74682575  1  0.278141  0.001829  3.759253  0.003  0.260577  0.000951  4.014624  0.001  0.275405  0.000656  4.028937  0.001  0.095963  0.250045  0.001423  4.005428  0.002
C  C39  1  0.73209600  0.41180034  0.25307762  1  0.279206  0.001548  3.756798  0.002  0.261943  0.000825  4.012043  0.001  0.276792  0.00059  4.026329  0.001  0.096469  0.251425  0.001194  4.002828  0.002
C  C40  1  0.23202769  0.84138830  0.25317468  1  0.278153  -0.00182  3.759221  -0.003  0.260583  -0.000951  4.01454  -0.001  0.275408  -0.000656  4.028855  -0.001  0.095973  0.250051  -0.001423  4.005347  -0.002
C  C41  1  0.26789982  0.58820266  0.74692308  1  0.2791  -0.001556  3.756878  -0.002  0.261827  -0.000825  4.012107  -0.001  0.276679  -0.00059  4.026386  -0.001  0.096417  0.251311  -0.001194  4.002883  -0.002
C  C42  1  0.69049655  0.16830157  0.63918897  1  -0.208214  -0.001295  3.775143  -0.002  -0.226491  -0.000385  4.028102  -0.001  -0.234286  -0.000397  4.049046  -0.001  -0.110578  -0.221346  -0.000406  4.014246  -0.001
C  C43  1  0.80947970  0.52919037  0.36070913  1  -0.208392  -0.001133  3.772984  -0.002  -0.227056  -0.000341  4.026102  -0.001  -0.234863  -0.000367  4.047098  -0.001  -0.110852  -0.221883  -0.000338  4.01206  -0.001
C  C44  1  0.30950609  0.83170018  0.36081205  1  -0.208173  0.001282  3.775089  0.002  -0.226458  0.000385  4.028044  0.001  -0.234252  0.000397  4.048988  0.001  -0.11058  -0.221311  0.000406  4.014191  0.001
C  C45  1  0.19051612  0.47081263  0.63929158  1  -0.208254  0.001161  3.773022  0.002  -0.226935  0.000341  4.026112  0.001  -0.234744  0.000367  4.047107  0.001  -0.110777  -0.221763  0.000338  4.012069  0.001
C  C46  1  0.78075223  0.10734479  0.54379772  1  -0.068725  0.002783  3.738  0.003  -0.089398  0.00152  3.984905  0.002  -0.087361  0.001119  4.003612  0.001  -0.084783  -0.090898  0.002164  3.972437  0.003
C  C47  1  0.71919143  0.56366195  0.45611274  1  -0.0687  0.002473  3.736094  0.003  -0.08963  0.00141  3.983639  0.002  -0.087696  0.00107  4.002494  0.001  -0.084333  -0.090923  0.001937  3.970858  0.002
C  C48  1  0.21924603  0.89265320  0.45620203  1  -0.068724  -0.002769  3.738006  -0.003  -0.089403  -0.00152  3.984906  -0.002  -0.087367  -0.001119  4.003615  -0.001  -0.084767  -0.090899  -0.002164  3.972431  -0.003
C  C49  1  0.28080699  0.43633854  0.54388841  1  -0.068818  -0.002495  3.736189  -0.003  -0.089728  -0.001409  3.983744  -0.002  -0.087797  -0.001068  4.002605  -0.001  -0.084407  -0.091023  -0.001937  3.970964  -0.002
C  C50  1  0.03367444  0.06341704  0.86505903  1  0.681754  0.007757  3.835324  0.011  0.639177  0.006318  4.132711  0.009  0.680963  0.004646  4.120879  0.007  0.218403  0.607579  0.008293  4.141179  0.012
C  C51  1  0.46623199  0.19844631  0.13497400  1  0.682174  0.007669  3.833889  0.011  0.639466  0.006239  4.131834  0.009  0.681229  0.004594  4.120043  0.007  0.218848  0.607958  0.008183  4.14015  0.012
C  C52  1  0.96632521  0.93658095  0.13494004  1  0.681776  -0.007758  3.835306  -0.011  0.639154  -0.006318  4.1327  -0.009  0.680939  -0.004646  4.120869  -0.007  0.218421  0.607556  -0.008294  4.141169  -0.012
C  C53  1  0.53376789  0.80155545  0.86502597  1  0.68227  -0.007675  3.833812  -0.011  0.63953  -0.006239  4.131752  -0.009  0.681291  -0.004592  4.119963  -0.007  0.218855  0.60802  -0.008182  4.140063  -0.012
C  C54  1  0.51443638  0.29880707  0.83215409  1  -0.064385  -5.1e-05  3.582408  0.0  -0.160634  9.6e-05  3.842812  0.0  -0.15299  6e-06  3.845611  0.0  -0.139685  -0.165731  0.000206  3.840981  0.0
C  C55  1  0.98566789  0.46675041  0.16780337  1  -0.065081  -1.6e-05  3.581646  0.0  -0.160164  0.000112  3.841901  0.0  -0.152482  1.7e-05  3.844693  0.0  -0.139477  -0.165337  0.000228  3.840062  0.0
C  C56  1  0.48556350  0.70119468  0.16784508  1  -0.064314  3.8e-05  3.582259  0.0  -0.160587  -9.6e-05  3.842686  0.0  -0.152943  -6e-06  3.845487  0.0  -0.139672  -0.165683  -0.000206  3.840855  0.0
C  C57  1  0.01433330  0.53325009  0.83219643  1  -0.064991  1.1e-05  3.581645  0.0  -0.16006  -0.000112  3.841894  0.0  -0.152379  -1.6e-05  3.844684  0.0  -0.139452  -0.165231  -0.000228  3.840048  0.0
O  O58  1  0.16602007  0.96514279  0.85768409  1  -0.601336  -0.035929  2.087989  -0.061  -0.570164  -0.024158  2.357833  -0.036  -0.609228  -0.019449  2.346518  -0.028  -0.30124  -0.539025  -0.028286  2.364261  -0.043
O  O59  1  0.33377474  0.10764449  0.14233660  1  -0.600721  -0.035563  2.08711  -0.06  -0.57024  -0.023853  2.357656  -0.036  -0.609311  -0.019236  2.346448  -0.028  -0.301515  -0.539099  -0.027866  2.363994  -0.043
O  O60  1  0.83397820  0.03485520  0.14231566  1  -0.601334  0.035926  2.087992  0.061  -0.570165  0.024158  2.357869  0.036  -0.609222  0.019449  2.346545  0.028  -0.301236  -0.539034  0.028285  2.364317  0.043
O  O61  1  0.66622798  0.89235851  0.85766393  1  -0.600817  0.035567  2.087015  0.06  -0.570233  0.023854  2.357483  0.036  -0.609306  0.019236  2.346286  0.028  -0.301495  -0.539091  0.027868  2.363819  0.043
O  O62  1  0.98721927  0.14590223  0.96335682  1  -0.651553  0.03506  2.142494  0.053  -0.625699  0.02436  2.431891  0.031  -0.662598  0.018435  2.415953  0.021  -0.322733  -0.595568  0.031117  2.441605  0.042
O  O63  1  0.51275493  0.18261850  0.03667032  1  -0.65233  0.034851  2.14043  0.053  -0.626042  0.024131  2.429614  0.03  -0.662962  0.018292  2.413663  0.02  -0.3229  -0.595841  0.030757  2.439271  0.041
O  O64  1  0.01278314  0.85409576  0.03664411  1  -0.651591  -0.035059  2.142566  -0.053  -0.625694  -0.024361  2.431933  -0.031  -0.662595  -0.018436  2.415995  -0.021  -0.322738  -0.595562  -0.031117  2.441647  -0.042
O  O65  1  0.48724610  0.81737949  0.96332807  1  -0.652314  -0.034845  2.140402  -0.053  -0.626022  -0.024129  2.429571  -0.03  -0.662941  -0.018291  2.413618  -0.02  -0.322882  -0.595825  -0.030756  2.439228  -0.041
O  O66  1  0.68749545  0.22203931  0.84324273  1  -0.255369  0.005697  2.417432  0.009  -0.178467  0.007016  2.661816  0.01  -0.199761  0.006023  2.663438  0.008  -0.168908  -0.163224  0.008053  2.660326  0.011
O  O67  1  0.81262192  0.37879698  0.15669677  1  -0.254832  0.005595  2.416866  0.008  -0.178599  0.006946  2.661396  0.01  -0.199963  0.005983  2.663086  0.008  -0.168857  -0.163303  0.00793  2.659891  0.011
O  O68  1  0.31250306  0.77796244  0.15675712  1  -0.255394  -0.005696  2.417356  -0.009  -0.17849  -0.007017  2.66174  -0.01  -0.199783  -0.006023  2.663359  -0.008  -0.168908  -0.163245  -0.008053  2.660249  -0.011
O  O69  1  0.18737520  0.62120477  0.84330375  1  -0.254787  -0.005594  2.41694  -0.008  -0.178532  -0.006946  2.661446  -0.01  -0.19989  -0.005982  2.663124  -0.008  -0.168826  -0.163239  -0.00793  2.659941  -0.011
