# generated using pymatgen
data_CuH10C14SN4
_symmetry_space_group_name_H-M   'P 1'
_cell_length_a   10.15158856
_cell_length_b   18.06353026
_cell_length_c   18.79344293
_cell_angle_alpha   118.72290481
_cell_angle_beta   105.68781180
_cell_angle_gamma   90.00087663
_symmetry_Int_Tables_number   1
_chemical_formula_structural   CuH10C14SN4
_chemical_formula_sum   'Cu8 H80 C112 S8 N32'
_cell_volume   2874.92154720
_cell_formula_units_Z   8
loop_
 _symmetry_equiv_pos_site_id
 _symmetry_equiv_pos_as_xyz
  1  'x, y, z'
loop_
 _atom_site_type_symbol
 _atom_site_label
 _atom_site_symmetry_multiplicity
 _atom_site_fract_x
 _atom_site_fract_y
 _atom_site_fract_z
 _atom_site_occupancy
 _atom_site_pbe_bader_charge
 _atom_site_pbe_bader_spin_density
 _atom_site_pbe_cm5_charge
 _atom_site_pbe_ddec_charge
 _atom_site_pbe_ddec_spin_density
 _atom_site_pbe_ddec_sum_bond_order
 _atom_site_pbe_magmom
Cu  Cu0  1  0.77198863  0.41682180  0.93675693  1  0.640589  0  0.482901  0.316345  0  2.762377  0
Cu  Cu1  1  0.83490725  0.58320001  0.06332325  1  0.641092  0  0.482097  0.316025  0  2.759922  0
Cu  Cu2  1  0.33483760  0.48013045  0.06334703  1  0.64242  0  0.482072  0.315972  0  2.759768  0
Cu  Cu3  1  0.27202456  0.51985764  0.93671278  1  0.63949  0  0.482842  0.316403  0  2.762202  0
Cu  Cu4  1  0.59278527  0.02413094  0.93949959  1  0.638369  0  0.481193  0.315198  0  2.736483  0
Cu  Cu5  1  0.65328334  0.97574166  0.06060972  1  0.639783  0  0.481348  0.314899  0  2.736687  0
Cu  Cu6  1  0.15327007  0.08488036  0.06064120  1  0.64109  0  0.481312  0.314884  0  2.736349  0
Cu  Cu7  1  0.09277959  0.91536925  0.93951660  1  0.637301  0  0.481206  0.315277  0  2.736169  0
H  H8  1  0.90476600  0.28385893  0.95936257  1  0.050612  0  0.10861  0.074789  0  1.023907  0
H  H9  1  0.94537962  0.71584824  0.04035721  1  0.081119  0  0.108639  0.074528  0  1.024033  0
H  H10  1  0.44530044  0.32454514  0.04040349  1  0.09198  0  0.108605  0.074394  0  1.02388  0
H  H11  1  0.40485682  0.67535991  0.95933665  1  0.078103  0  0.108651  0.074889  0  1.023827  0
H  H12  1  0.03095080  0.16663330  0.88674660  1  0.116159  0  0.09468  0.108047  0  1.066974  0
H  H13  1  0.14400626  0.83326982  0.11307366  1  0.070847  0  0.0948  0.108132  0  1.066335  0
H  H14  1  0.64394150  0.27982667  0.11309656  1  0.079217  0  0.094794  0.108153  0  1.066489  0
H  H15  1  0.53097900  0.72002511  0.88672969  1  0.118288  0  0.094702  0.107794  0  1.067429  0
H  H16  1  0.01100356  0.25808413  0.70980226  1  0.089061  0  0.114401  0.132506  0  0.991554  0
H  H17  1  0.30105347  0.74218897  0.29033619  1  0.078433  0  0.11404  0.131865  0  0.992433  0
H  H18  1  0.80107682  0.54817009  0.29030221  1  0.132447  0  0.1141  0.131949  0  0.992362  0
H  H19  1  0.51100923  0.45166299  0.70970490  1  0.091865  0  0.114402  0.132535  0  0.991654  0
H  H20  1  0.88056497  0.36886280  0.78814617  1  0.101962  0  0.113083  0.083015  0  0.99757  0
H  H21  1  0.09229487  0.63129503  0.21200060  1  0.088039  0  0.113094  0.083486  0  0.997269  0
H  H22  1  0.59228892  0.58073562  0.21201006  1  0.105665  0  0.113257  0.083899  0  0.997016  0
H  H23  1  0.38062207  0.41916973  0.78803267  1  0.100585  0  0.113026  0.083341  0  0.997207  0
H  H24  1  0.27335602  0.23245591  0.91585121  1  0.115419  0  0.098861  0.115604  0  1.056609  0
H  H25  1  0.35727496  0.76762641  0.08423726  1  0.13501  0  0.099303  0.116064  0  1.055781  0
H  H26  1  0.85717228  0.31656309  0.08420562  1  0.10061  0  0.099219  0.116067  0  1.05561  0
H  H27  1  0.77334745  0.68335775  0.91582032  1  0.094344  0  0.098826  0.115525  0  1.056641  0
H  H28  1  0.45604357  0.17788481  0.98790992  1  0.092924  0  0.106896  0.074783  0  1.035428  0
H  H29  1  0.46799683  0.82216667  0.01222275  1  0.060028  0  0.107334  0.075582  0  1.035419  0
H  H30  1  0.96780986  0.18997565  0.01219633  1  0.096928  0  0.107322  0.075558  0  1.03581  0
H  H31  1  0.95601260  0.80999986  0.98790453  1  0.09842  0  0.106927  0.074832  0  1.035282  0
H  H32  1  0.36748330  0.93814171  0.77277577  1  0.098862  0  0.106425  0.073713  0  1.044034  0
H  H33  1  0.59461714  0.06198259  0.22731805  1  0.106444  0  0.106736  0.074269  0  1.043222  0
H  H34  1  0.09464300  0.16540398  0.22737314  1  0.094161  0  0.106746  0.074367  0  1.043211  0
H  H35  1  0.86743614  0.83466388  0.77279451  1  0.101895  0  0.106471  0.073798  0  1.043948  0
H  H36  1  0.18526857  0.98291488  0.69002141  1  0.111314  0  0.111987  0.12926  0  0.999581  0
H  H37  1  0.49495221  0.01722133  0.30999038  1  0.105542  0  0.111966  0.128643  0  1.000432  0
H  H38  1  0.99503387  0.29284687  0.31003201  1  0.099956  0  0.111886  0.128609  0  1.000358  0
H  H39  1  0.68528667  0.70711421  0.69001380  1  0.106654  0  0.112016  0.129213  0  0.999627  0
H  H40  1  0.87810525  0.08194247  0.61743775  1  0.100958  0  0.103145  0.115108  0  1.029201  0
H  H41  1  0.26051849  0.91811317  0.38253197  1  0.119029  0  0.103115  0.115621  0  1.029147  0
H  H42  1  0.76048967  0.46450209  0.38253579  1  0.117705  0  0.103148  0.115567  0  1.02911  0
H  H43  1  0.37814316  0.53550896  0.61740561  1  0.103683  0  0.103109  0.114934  0  1.029016  0
H  H44  1  0.86587340  0.04009872  0.46954347  1  0.072855  0  0.106996  0.11403  0  1.002856  0
H  H45  1  0.39628623  0.95973196  0.53038522  1  0.074908  0  0.10755  0.11499  0  1.002978  0
H  H46  1  0.89627405  0.57074272  0.53038896  1  0.066677  0  0.107489  0.114828  0  1.003069  0
H  H47  1  0.36592201  0.42945176  0.46951878  1  0.068696  0  0.106946  0.113776  0  1.003148  0
H  H48  1  0.31052882  0.09757807  0.54509357  1  0.085287  0  0.109396  0.120778  0  0.991797  0
H  H49  1  0.76530951  0.90228020  0.45487912  1  0.10123  0  0.10932  0.121303  0  0.992402  0
H  H50  1  0.26529987  0.55260642  0.45487563  1  0.100851  0  0.109303  0.121237  0  0.992534  0
H  H51  1  0.81056242  0.44753143  0.54507275  1  0.100132  0  0.109393  0.120638  0  0.992073  0
H  H52  1  0.32358541  0.14003702  0.69366483  1  0.095301  0  0.100366  0.108051  0  1.031588  0
H  H53  1  0.62973314  0.86004391  0.30635302  1  0.092814  0  0.100752  0.10762  0  1.032643  0
H  H54  1  0.12970725  0.44631268  0.30635645  1  0.091092  0  0.100705  0.107582  0  1.033012  0
H  H55  1  0.82360690  0.55362473  0.69365140  1  0.093847  0  0.100309  0.107819  0  1.031766  0
H  H56  1  0.18837345  0.00473483  0.28357185  1  0.102799  0  0.100355  0.118018  0  1.02531  0
H  H57  1  0.90488275  0.99523739  0.71642005  1  0.106644  0  0.100409  0.11782  0  1.025591  0
H  H58  1  0.40494658  0.72117961  0.71640053  1  0.104962  0  0.100294  0.117698  0  1.025684  0
H  H59  1  0.68835440  0.27880690  0.28351202  1  0.104199  0  0.100417  0.117913  0  1.025681  0
H  H60  1  0.32062213  0.11141050  0.27143543  1  0.073626  0  0.098985  0.094738  0  1.016622  0
H  H61  1  0.04924762  0.88861237  0.72871143  1  0.08207  0  0.099861  0.095737  0  1.018693  0
H  H62  1  0.54931324  0.84008874  0.72868030  1  0.078369  0  0.099883  0.095831  0  1.018258  0
H  H63  1  0.82056122  0.15999268  0.27139318  1  0.064517  0  0.098989  0.094832  0  1.016758  0
H  H64  1  0.35989508  0.26723931  0.38517613  1  0.091344  0  0.098458  0.102923  0  1.053348  0
H  H65  1  0.97476567  0.73276475  0.61506548  1  0.081418  0  0.09826  0.102819  0  1.0539  0
H  H66  1  0.47476525  0.88233334  0.61506898  1  0.077749  0  0.098299  0.102835  0  1.053895  0
H  H67  1  0.85986893  0.11795071  0.38516717  1  0.088678  0  0.098455  0.102976  0  1.05342  0
H  H68  1  0.25703294  0.30729870  0.50350814  1  0.09992  0  0.110398  0.079434  0  0.979025  0
H  H69  1  0.75370035  0.69261802  0.49654994  1  0.088652  0  0.11047  0.079933  0  0.979427  0
H  H70  1  0.25361649  0.80401523  0.49659875  1  0.074722  0  0.110416  0.079871  0  0.979167  0
H  H71  1  0.75707053  0.19626499  0.50351507  1  0.070299  0  0.110345  0.079267  0  0.979572  0
H  H72  1  0.92736945  0.01330453  0.25483952  1  0.087434  0  0.103965  0.121657  0  1.019503  0
H  H73  1  0.67311591  0.98670261  0.74518820  1  0.082989  0  0.104156  0.121511  0  1.019667  0
H  H74  1  0.17302127  0.75849455  0.74514463  1  0.060074  0  0.104053  0.121484  0  1.019439  0
H  H75  1  0.42744433  0.24153371  0.25489931  1  0.107764  0  0.103888  0.121657  0  1.019294  0
H  H76  1  0.77713732  0.87702286  0.14280300  1  0.101824  0  0.099745  0.097447  0  1.022832  0
H  H77  1  0.63510449  0.12299347  0.85719564  1  0.106557  0  0.099494  0.097123  0  1.022866  0
H  H78  1  0.13513008  0.73423133  0.85719770  1  0.100784  0  0.099476  0.096994  0  1.023265  0
H  H79  1  0.27701714  0.26569864  0.14283526  1  0.117851  0  0.099658  0.097266  0  1.023406  0
H  H80  1  0.76163143  0.75519127  0.17287018  1  0.112172  0  0.097111  0.109872  0  1.059274  0
H  H81  1  0.58902215  0.24472162  0.82700134  1  0.11983  0  0.097604  0.11067  0  1.057588  0
H  H82  1  0.08920164  0.58231795  0.82705834  1  0.107419  0  0.097433  0.110515  0  1.05741  0
H  H83  1  0.26131345  0.41757074  0.17287288  1  0.112346  0  0.097436  0.110407  0  1.058743  0
H  H84  1  0.90457998  0.77826250  0.31515813  1  0.050807  0  0.112055  0.07942  0  0.966395  0
H  H85  1  0.58903031  0.22147901  0.68457393  1  0.054427  0  0.112079  0.079477  0  0.966435  0
H  H86  1  0.08923034  0.46311957  0.68464688  1  0.051949  0  0.112004  0.079436  0  0.966248  0
H  H87  1  0.40433534  0.53682134  0.31508285  1  0.052218  0  0.112127  0.079292  0  0.966491  0
C  C88  1  0.93062305  0.27580717  0.90367277  1  0.456199  0  0.036409  0.103761  0  3.967656  0
C  C89  1  0.02681609  0.72406928  0.09618070  1  0.504398  0  0.035437  0.103683  0  3.968762  0
C  C90  1  0.52676096  0.37214287  0.09621043  1  0.458644  0  0.035453  0.104191  0  3.968014  0
C  C91  1  0.43068077  0.62774523  0.90362851  1  0.506853  0  0.036427  0.103935  0  3.968568  0
C  C92  1  0.00212480  0.21110858  0.86354818  1  0.019044  0  -0.098539  -0.223992  0  3.962348  0
C  C93  1  0.13834509  0.78886239  0.13633167  1  -0.011396  0  -0.098356  -0.223951  0  3.96312  0
C  C94  1  0.63828898  0.34748757  0.13634439  1  -0.00378  0  -0.098315  -0.224191  0  3.962806  0
C  C95  1  0.50215471  0.65235487  0.86352215  1  -0.049779  0  -0.098174  -0.22337  0  3.963133  0
C  C96  1  0.03517108  0.20313316  0.79243273  1  0.329154  0  0.112821  0.228188  0  4.009082  0
C  C97  1  0.24245245  0.79697546  0.20756225  1  0.342553  0  0.111921  0.22749  0  4.012749  0
C  C98  1  0.74242825  0.41061563  0.20756060  1  0.319218  0  0.111976  0.227784  0  4.011865  0
C  C99  1  0.53521663  0.58924138  0.79239827  1  0.305755  0  0.112475  0.22798  0  4.00987  0
C  C100  1  0.98852981  0.26068281  0.76429963  1  0.058318  0  -0.092576  -0.219966  0  3.961017  0
C  C101  1  0.22403398  0.73947666  0.23575759  1  -0.010319  0  -0.09233  -0.219032  0  3.961393  0
C  C102  1  0.72403663  0.49630902  0.23574872  1  0.017189  0  -0.092484  -0.219342  0  3.961243  0
C  C103  1  0.48859157  0.50355094  0.76424243  1  0.028365  0  -0.092775  -0.220129  0  3.961378  0
C  C104  1  0.91599529  0.32282567  0.80813411  1  0.435504  0  0.042133  0.107014  0  3.957764  0
C  C105  1  0.10768329  0.67727926  0.19193006  1  0.506772  0  0.041362  0.105586  0  3.958848  0
C  C106  1  0.60766734  0.51468806  0.19195220  1  0.471098  0  0.041249  0.105464  0  3.958595  0
C  C107  1  0.41604944  0.48520950  0.80805773  1  0.474496  0  0.042424  0.107024  0  3.957663  0
C  C108  1  0.21150555  0.11178372  0.79651370  1  0.329326  0  0.114427  0.226327  0  4.008942  0
C  C109  1  0.41468594  0.88833946  0.20351005  1  0.317182  0  0.112655  0.223923  0  4.012944  0
C  C110  1  0.91467504  0.31519329  0.20351600  1  0.329039  0  0.112839  0.224124  0  4.01225  0
C  C111  1  0.71151173  0.68471091  0.79649384  1  0.306642  0  0.114322  0.226249  0  4.008939  0
C  C112  1  0.28939585  0.16625529  0.88217710  1  -0.040332  0  -0.09409  -0.219027  0  3.958616  0
C  C113  1  0.40690803  0.83386076  0.11788179  1  -0.010492  0  -0.094822  -0.219788  0  3.961529  0
C  C114  1  0.90683327  0.28400249  0.11786769  1  -0.032471  0  -0.094772  -0.219838  0  3.961108  0
C  C115  1  0.78938155  0.71589891  0.88215548  1  -0.003826  0  -0.094026  -0.218904  0  3.958553  0
C  C116  1  0.39188105  0.13621566  0.92220638  1  0.498429  0  0.034934  0.101318  0  3.957045  0
C  C117  1  0.46942579  0.86387376  0.07788650  1  0.479543  0  0.035538  0.101124  0  3.95936  0
C  C118  1  0.96931147  0.21397011  0.07787206  1  0.494461  0  0.03535  0.100956  0  3.959096  0
C  C119  1  0.89186601  0.78596948  0.92219911  1  0.481698  0  0.034873  0.101241  0  3.956803  0
C  C120  1  0.34435341  0.00317200  0.80226669  1  0.465456  0  0.037266  0.101636  0  3.951972  0
C  C121  1  0.54192808  0.99695450  0.19781096  1  0.473708  0  0.037025  0.101031  0  3.949781  0
C  C122  1  0.04192316  0.20089814  0.19783933  1  0.535008  0  0.036909  0.100676  0  3.950477  0
C  C123  1  0.84432888  0.79910947  0.80227883  1  0.483999  0  0.0371  0.101232  0  3.952099  0
C  C124  1  0.24158116  0.02812956  0.75641782  1  -0.006277  0  -0.091503  -0.223459  0  3.958034  0
C  C125  1  0.48487851  0.97200577  0.24361357  1  -0.00899  0  -0.090842  -0.221597  0  3.958191  0
C  C126  1  0.98490963  0.27166031  0.24363856  1  -0.047946  0  -0.091051  -0.221747  0  3.958461  0
C  C127  1  0.74159601  0.72828850  0.75640920  1  -0.007443  0  -0.091585  -0.223329  0  3.958132  0
C  C128  1  0.10206265  0.11303380  0.66489665  1  0.269326  0  0.080919  0.154968  0  4.034615  0
C  C129  1  0.43697199  0.88706538  0.33510275  1  0.324944  0  0.081028  0.154291  0  4.034483  0
C  C130  1  0.93694988  0.44807507  0.33510199  1  0.318907  0  0.081127  0.154172  0  4.03484  0
C  C131  1  0.60208972  0.55185135  0.66486251  1  0.259549  0  0.080884  0.155053  0  4.034957  0
C  C132  1  0.97320988  0.08436217  0.60164283  1  0.02471  0  -0.092092  -0.152522  0  3.98147  0
C  C133  1  0.37141605  0.91564092  0.39832544  1  -0.074477  0  -0.091547  -0.152011  0  3.980909  0
C  C134  1  0.87139918  0.48274523  0.39832396  1  -0.056294  0  -0.091505  -0.151731  0  3.980828  0
C  C135  1  0.47324408  0.51728157  0.60161120  1  -0.011427  0  -0.091847  -0.152276  0  3.981561  0
C  C136  1  0.96631972  0.06171157  0.51861649  1  -0.050855  0  -0.088771  -0.148963  0  3.981176  0
C  C137  1  0.44760494  0.93816608  0.48132806  1  0.052665  0  -0.08959  -0.151137  0  3.980443  0
C  C138  1  0.94758868  0.54322511  0.48132918  1  0.027497  0  -0.089591  -0.151151  0  3.980547  0
C  C139  1  0.46635943  0.45690624  0.51858767  1  0.034964  0  -0.08868  -0.148513  0  3.981301  0
C  C140  1  0.08731352  0.06615482  0.49771310  1  0.318545  0  0.096451  0.191305  0  4.029476  0
C  C141  1  0.58952345  0.93371401  0.50223693  1  0.306144  0  0.097703  0.194335  0  4.028481  0
C  C142  1  0.08951815  0.56856166  0.50224434  1  0.337578  0  0.097753  0.19453  0  4.028775  0
C  C143  1  0.58736996  0.43157601  0.49770126  1  0.307148  0  0.09629  0.191201  0  4.029744  0
C  C144  1  0.21609809  0.09361429  0.56095103  1  0.02636  0  -0.087787  -0.143979  0  3.976058  0
C  C145  1  0.65503777  0.90634051  0.43902990  1  -0.025034  0  -0.089527  -0.147711  0  3.977089  0
C  C146  1  0.15502309  0.53271730  0.43903238  1  -0.08447  0  -0.089538  -0.14783  0  3.977447  0
C  C147  1  0.71614151  0.46735284  0.56092996  1  -0.058463  0  -0.087843  -0.144019  0  3.976326  0
C  C148  1  0.22336438  0.11754838  0.64424435  1  -0.044201  0  -0.092211  -0.151551  0  3.986631  0
C  C149  1  0.57896252  0.88253989  0.35576382  1  -0.037896  0  -0.092941  -0.150193  0  3.986777  0
C  C150  1  0.07895083  0.47324779  0.35577069  1  0.003846  0  -0.093041  -0.150215  0  3.987115  0
C  C151  1  0.72340239  0.52670081  0.64422749  1  0.016542  0  -0.091978  -0.150906  0  3.986566  0
C  C152  1  0.15198214  0.10120327  0.40034463  1  0.912947  0  0.215904  0.314293  0  4.052313  0
C  C153  1  0.75168155  0.89867664  0.59963453  1  0.868423  0  0.216131  0.315277  0  4.049981  0
C  C154  1  0.25168808  0.70098095  0.59964725  1  0.894448  0  0.216285  0.315518  0  4.049949  0
C  C155  1  0.65202363  0.29916476  0.40032828  1  0.88468  0  0.215674  0.314159  0  4.052462  0
C  C156  1  0.20447873  0.07231258  0.33091624  1  -0.037434  0  -0.098647  -0.224266  0  3.965542  0
C  C157  1  0.87360333  0.92764489  0.66913015  1  -0.055365  0  -0.09943  -0.224799  0  3.965627  0
C  C158  1  0.37365444  0.74149324  0.66911807  1  -0.060693  0  -0.099288  -0.224618  0  3.965269  0
C  C159  1  0.70448054  0.25859690  0.33088111  1  -0.036  0  -0.098437  -0.22386  0  3.96544  0
C  C160  1  0.27916786  0.13242004  0.32482022  1  -0.052225  0  -0.081713  -0.032453  0  4.022175  0
C  C161  1  0.95438511  0.86756844  0.67530977  1  -0.035112  0  -0.082423  -0.033447  0  4.025873  0
C  C162  1  0.45443902  0.80773627  0.67528351  1  -0.036816  0  -0.082616  -0.033885  0  4.025983  0
C  C163  1  0.77912740  0.19237503  0.32478315  1  -0.06027  0  -0.081738  -0.032643  0  4.022307  0
C  C164  1  0.30045516  0.21860985  0.38721312  1  -0.083194  0  -0.10412  -0.160538  0  4.003149  0
C  C165  1  0.91328261  0.78136071  0.61295140  1  -0.078688  0  -0.102835  -0.158941  0  4.003548  0
C  C166  1  0.41329097  0.83160565  0.61294311  1  -0.020922  0  -0.102795  -0.158712  0  4.003668  0
C  C167  1  0.80044673  0.16861674  0.38720395  1  -0.026439  0  -0.104069  -0.16043  0  4.003487  0
C  C168  1  0.24374863  0.24066288  0.45329579  1  0.503212  0  0.041511  0.106785  0  4.017191  0
C  C169  1  0.79055589  0.75925777  0.54676946  1  0.522634  0  0.039861  0.103376  0  4.018663  0
C  C170  1  0.29051119  0.78756527  0.54679584  1  0.491535  0  0.039684  0.103177  0  4.018101  0
C  C171  1  0.74377963  0.21267568  0.45330202  1  0.484657  0  0.041493  0.106837  0  4.018066  0
C  C172  1  0.99574749  0.96699946  0.34465870  1  0.824776  0  0.21245  0.304734  0  4.070019  0
C  C173  1  0.65117232  0.03286494  0.65525368  1  0.884344  0  0.211501  0.30417  0  4.071272  0
C  C174  1  0.15119638  0.62240019  0.65525799  1  0.876114  0  0.211656  0.304258  0  4.071274  0
C  C175  1  0.49573190  0.37766571  0.34464971  1  0.831526  0  0.212386  0.304806  0  4.069811  0
C  C176  1  0.92065010  0.96012178  0.26645363  1  0.040408  0  -0.099688  -0.226689  0  3.969814  0
C  C177  1  0.65459189  0.03983923  0.73352499  1  -0.022312  0  -0.099412  -0.225428  0  3.968887  0
C  C178  1  0.15457582  0.69369824  0.73351482  1  0.022022  0  -0.099181  -0.225185  0  3.968946  0
C  C179  1  0.42066075  0.30631343  0.26646095  1  -0.029288  0  -0.099612  -0.227004  0  3.969796  0
C  C180  1  0.83589759  0.88342022  0.20382648  1  -0.108573  0  -0.078357  -0.015201  0  3.991449  0
C  C181  1  0.63254019  0.11656263  0.79612502  1  -0.100916  0  -0.078966  -0.016286  0  3.991229  0
C  C182  1  0.13257960  0.67959197  0.79613283  1  -0.102294  0  -0.079031  -0.016277  0  3.991731  0
C  C183  1  0.33580540  0.32034486  0.20383192  1  -0.061395  0  -0.078237  -0.014685  0  3.991508  0
C  C184  1  0.82654063  0.81635091  0.22034458  1  -0.04094  0  -0.102792  -0.158905  0  3.99301  0
C  C185  1  0.60636800  0.18356063  0.77952970  1  -0.055974  0  -0.102551  -0.158783  0  3.991762  0
C  C186  1  0.10649450  0.59599443  0.77956076  1  -0.0582  0  -0.102457  -0.158716  0  3.991912  0
C  C187  1  0.32632674  0.40391726  0.22034074  1  -0.06285  0  -0.102996  -0.159712  0  3.993626  0
C  C188  1  0.90650410  0.82928929  0.29962648  1  0.502363  0  0.039928  0.103331  0  4.019079  0
C  C189  1  0.60671006  0.17051928  0.70017321  1  0.507795  0  0.039782  0.103142  0  4.019589  0
C  C190  1  0.10684804  0.52967826  0.70021831  1  0.520446  0  0.040017  0.103219  0  4.019873  0
C  C191  1  0.40632560  0.47028187  0.29958824  1  0.516748  0  0.039448  0.10351  0  4.019192  0
C  C192  1  0.46639942  0.38452255  0.91762125  1  0.558863  0  0.139348  0.255884  0  4.239691  0
C  C193  1  0.54846394  0.61553714  0.08249551  1  0.579134  0  0.139916  0.257064  0  4.238187  0
C  C194  1  0.04840432  0.46693849  0.08252092  1  0.587386  0  0.139644  0.256647  0  4.238057  0
C  C195  1  0.96646657  0.53305700  0.91759835  1  0.564846  0  0.139052  0.255568  0  4.238672  0
C  C196  1  0.87543283  0.02605961  0.91202717  1  0.587236  0  0.141784  0.257804  0  4.227383  0
C  C197  1  0.96342266  0.97396474  0.08795753  1  0.600586  0  0.142618  0.257607  0  4.224253  0
C  C198  1  0.46340631  0.11396002  0.08792221  1  0.604727  0  0.142498  0.257571  0  4.224212  0
C  C199  1  0.37543188  0.88597432  0.91203911  1  0.586381  0  0.141825  0.2579  0  4.227453  0
S  S200  1  0.30270170  0.38184096  0.91357359  1  0.031766  0  -0.170726  -0.283647  0  3.056868  0
S  S201  1  0.38884575  0.61824301  0.08657028  1  0.01737  0  -0.171163  -0.284496  0  3.055657  0
S  S202  1  0.88880562  0.46833577  0.08661650  1  0.013514  0  -0.171174  -0.28435  0  3.056169  0
S  S203  1  0.80276720  0.53167130  0.91356274  1  0.027649  0  -0.170582  -0.283447  0  3.056389  0
S  S204  1  0.03655562  0.02749517  0.91034031  1  0.006859  0  -0.164389  -0.276945  0  3.021221  0
S  S205  1  0.12626258  0.97266296  0.08972006  1  -0.000226  0  -0.164388  -0.276499  0  3.022307  0
S  S206  1  0.62625967  0.11703836  0.08969867  1  -0.001459  0  -0.164312  -0.276479  0  3.022148  0
S  S207  1  0.53653742  0.88282863  0.91032077  1  0.006685  0  -0.164374  -0.276855  0  3.021187  0
N  N208  1  0.88702317  0.33191489  0.87764331  1  -1.217634  0  -0.370418  -0.22772  0  3.664272  0
N  N209  1  0.00922636  0.66807165  0.12233301  1  -1.219026  0  -0.368612  -0.226652  0  3.665532  0
N  N210  1  0.50917986  0.45430167  0.12237563  1  -1.227058  0  -0.368533  -0.226995  0  3.665458  0
N  N211  1  0.38707485  0.54560333  0.87756880  1  -1.218968  0  -0.370421  -0.228187  0  3.665009  0
N  N212  1  0.11089715  0.14008119  0.75141513  1  -1.224238  0  -0.244991  -0.146598  0  3.662313  0
N  N213  1  0.35919418  0.86005571  0.24859607  1  -1.226043  0  -0.243395  -0.144801  0  3.662502  0
N  N214  1  0.85918056  0.38856913  0.24859542  1  -1.250332  0  -0.243372  -0.144764  0  3.662386  0
N  N215  1  0.61091521  0.61130782  0.75138539  1  -1.234661  0  -0.245066  -0.147207  0  3.663081  0
N  N216  1  0.42155478  0.05596898  0.88405063  1  -1.23832  0  -0.368971  -0.226354  0  3.652072  0
N  N217  1  0.53735909  0.94410567  0.11604276  1  -1.235199  0  -0.368789  -0.225586  0  3.652443  0
N  N218  1  0.03729583  0.17192489  0.11605682  1  -1.242859  0  -0.368451  -0.225257  0  3.651954  0
N  N219  1  0.92153396  0.82808403  0.88406745  1  -1.236686  0  -0.368807  -0.226096  0  3.651501  0
N  N220  1  0.07928432  0.04404988  0.41279927  1  -1.223904  0  -0.247329  -0.211462  0  3.661485  0
N  N221  1  0.66647213  0.95579934  0.58714355  1  -1.251076  0  -0.246441  -0.21267  0  3.661482  0
N  N222  1  0.16649167  0.63136506  0.58714929  1  -1.224141  0  -0.246441  -0.212612  0  3.661606  0
N  N223  1  0.57935520  0.36878369  0.41279281  1  -1.200995  0  -0.247178  -0.21146  0  3.661229  0
N  N224  1  0.17036858  0.18398312  0.45996379  1  -1.218064  0  -0.32988  -0.345206  0  3.324551  0
N  N225  1  0.71048810  0.81589890  0.54001932  1  -1.186543  0  -0.32942  -0.343532  0  3.322988  0
N  N226  1  0.21045557  0.72417436  0.54005825  1  -1.219523  0  -0.329286  -0.343539  0  3.322957  0
N  N227  1  0.67041350  0.27601455  0.45995437  1  -1.206635  0  -0.329863  -0.345199  0  3.32523  0
N  N228  1  0.99016678  0.90235613  0.36070647  1  -1.187443  0  -0.333509  -0.355337  0  3.328225  0
N  N229  1  0.62925268  0.09744307  0.63911803  1  -1.1893  0  -0.333127  -0.355032  0  3.328549  0
N  N230  1  0.12931017  0.54169305  0.63913749  1  -1.191254  0  -0.333451  -0.355155  0  3.328344  0
N  N231  1  0.49006224  0.45834367  0.36068051  1  -1.199587  0  -0.33326  -0.35527  0  3.327512  0
N  N232  1  0.58407076  0.38780234  0.92047102  1  -1.278395  0  -0.438966  -0.435048  0  3.507167  0
N  N233  1  0.66328735  0.61229347  0.07961670  1  -1.285416  0  -0.438577  -0.435014  0  3.505398  0
N  N234  1  0.16322835  0.46729753  0.07963232  1  -1.289886  0  -0.438382  -0.434729  0  3.50444  0
N  N235  1  0.08411709  0.53262505  0.92041245  1  -1.280293  0  -0.439011  -0.435053  0  3.506345  0
N  N236  1  0.76093923  0.02628643  0.91544973  1  -1.277888  0  -0.434305  -0.432595  0  3.496504  0
N  N237  1  0.84548511  0.97365236  0.08448383  1  -1.284686  0  -0.435294  -0.432565  0  3.493216  0
N  N238  1  0.34548233  0.11080435  0.08446639  1  -1.287784  0  -0.435143  -0.432412  0  3.492914  0
N  N239  1  0.26094363  0.88917613  0.91547515  1  -1.275766  0  -0.434357  -0.43274  0  3.49654  0
