# generated using pymatgen
data_CdH13C17N3O5
_symmetry_space_group_name_H-M   'P 1'
_cell_length_a   11.34679288
_cell_length_b   12.06603589
_cell_length_c   14.66188737
_cell_angle_alpha   103.67703198
_cell_angle_beta   112.78150009
_cell_angle_gamma   90.01948190
_symmetry_Int_Tables_number   1
_chemical_formula_structural   CdH13C17N3O5
_chemical_formula_sum   'Cd4 H52 C68 N12 O20'
_cell_volume   1788.80505350
_cell_formula_units_Z   4
loop_
 _symmetry_equiv_pos_site_id
 _symmetry_equiv_pos_as_xyz
  1  'x, y, z'
loop_
 _atom_site_type_symbol
 _atom_site_label
 _atom_site_symmetry_multiplicity
 _atom_site_fract_x
 _atom_site_fract_y
 _atom_site_fract_z
 _atom_site_occupancy
 _atom_site_pbe_bader_charge
 _atom_site_pbe_bader_spin_density
 _atom_site_pbe_cm5_charge
 _atom_site_pbe_ddec_charge
 _atom_site_pbe_ddec_spin_density
 _atom_site_pbe_ddec_sum_bond_order
 _atom_site_pbe_magmom
Cd  Cd0  1  0.28041196  0.47715649  0.39217405  1  1.318257  0  0.79246  0.949495  0  2.190747  0
Cd  Cd1  1  0.88816451  0.02269862  0.60770416  1  1.318205  0  0.792684  0.948955  0  2.191987  0
Cd  Cd2  1  0.71958880  0.52284330  0.60782630  1  1.3182  0  0.792464  0.949535  0  2.190753  0
Cd  Cd3  1  0.11183413  0.97730031  0.39229589  1  1.318177  0  0.792662  0.948908  0  2.191977  0
H  H4  1  0.19895200  0.26049647  0.23295707  1  0.665487  0  0.282037  0.381655  0  0.9643  0
H  H5  1  0.96595682  0.23941761  0.76700489  1  0.65807  0  0.281952  0.381349  0  0.964671  0
H  H6  1  0.80104944  0.73950334  0.76704397  1  0.665487  0  0.282063  0.381665  0  0.964291  0
H  H7  1  0.03404384  0.76058133  0.23299528  1  0.658075  0  0.281943  0.381331  0  0.964697  0
H  H8  1  0.12742183  0.35943104  0.18464596  1  0.588261  0  0.31522  0.388995  0  0.896953  0
H  H9  1  0.94276377  0.14050638  0.81531624  1  0.587667  0  0.315498  0.388996  0  0.896608  0
H  H10  1  0.87257903  0.64056962  0.81535459  1  0.588261  0  0.315227  0.389007  0  0.896939  0
H  H11  1  0.05723641  0.85949428  0.18468555  1  0.587712  0  0.315477  0.388936  0  0.896654  0
H  H12  1  0.27418888  0.77116144  0.44834676  1  0.125412  0  0.119999  0.103626  0  1.004182  0
H  H13  1  0.82604501  0.72884844  0.55136555  1  0.13272  0  0.11998  0.103861  0  1.004263  0
H  H14  1  0.72581131  0.22883921  0.55165407  1  0.125411  0  0.119977  0.103556  0  1.004171  0
H  H15  1  0.17395586  0.27115222  0.44863596  1  0.13273  0  0.119982  0.103814  0  1.004306  0
H  H16  1  0.37111802  0.12155047  0.57072999  1  0.11603  0  0.117179  0.092889  0  1.000086  0
H  H17  1  0.80065338  0.37835390  0.42966713  1  0.111184  0  0.116819  0.092999  0  1.001696  0
H  H18  1  0.62888351  0.87845019  0.42927125  1  0.116026  0  0.117175  0.092893  0  1.000073  0
H  H19  1  0.19934468  0.62164590  0.57033339  1  0.111222  0  0.116816  0.093014  0  1.001737  0
H  H20  1  0.59444294  0.09367930  0.68292501  1  0.108337  0  0.107472  0.117873  0  1.010361  0
H  H21  1  0.91150494  0.40597979  0.31727837  1  0.105938  0  0.107437  0.117933  0  1.009778  0
H  H22  1  0.40555909  0.90631966  0.31707750  1  0.10835  0  0.107447  0.117816  0  1.010447  0
H  H23  1  0.08849167  0.59401914  0.68272058  1  0.105956  0  0.107431  0.117921  0  1.009788  0
H  H24  1  0.55595824  0.52665026  0.38402013  1  0.132173  0  0.112282  0.084868  0  1.058104  0
H  H25  1  0.17142798  0.97362685  0.61598622  1  0.137869  0  0.11184  0.084076  0  1.059041  0
H  H26  1  0.44404204  0.47335124  0.61597992  1  0.132438  0  0.112306  0.084916  0  1.05809  0
H  H27  1  0.82857017  0.02637379  0.38401256  1  0.137913  0  0.111843  0.084032  0  1.059097  0
H  H28  1  0.65950772  0.65002682  0.31601596  1  0.065618  0  0.104812  0.109913  0  1.041931  0
H  H29  1  0.34306761  0.85025061  0.68380700  1  0.094093  0  0.105057  0.109859  0  1.041955  0
H  H30  1  0.34049304  0.34997297  0.68398343  1  0.065605  0  0.104817  0.109956  0  1.041899  0
H  H31  1  0.65692957  0.14974745  0.31618955  1  0.094063  0  0.105082  0.109894  0  1.041938  0
H  H32  1  0.27865722  0.70831577  0.12254346  1  0.079649  0  0.107234  0.110498  0  1.002052  0
H  H33  1  0.15612674  0.79159071  0.87737956  1  0.077627  0  0.107176  0.110271  0  1.002828  0
H  H34  1  0.72134352  0.29168400  0.87745400  1  0.079652  0  0.107232  0.11049  0  1.002075  0
H  H35  1  0.84387412  0.20840993  0.12262002  1  0.077621  0  0.107162  0.110266  0  1.002802  0
H  H36  1  0.19243883  0.59455953  0.20776112  1  0.101719  0  0.112702  0.087677  0  1.028303  0
H  H37  1  0.98462729  0.90538318  0.79239429  1  0.110788  0  0.11318  0.088464  0  1.026993  0
H  H38  1  0.80756144  0.40544197  0.79223796  1  0.101706  0  0.112698  0.087681  0  1.028322  0
H  H39  1  0.01537366  0.09461833  0.20760645  1  0.110786  0  0.113177  0.088474  0  1.026976  0
H  H40  1  0.71622641  0.69195324  0.19802548  1  0.119574  0  0.103706  0.116065  0  1.037658  0
H  H41  1  0.51802618  0.80804826  0.80169053  1  0.111631  0  0.104  0.116609  0  1.037891  0
H  H42  1  0.28377512  0.30804740  0.80197382  1  0.11957  0  0.103702  0.116062  0  1.037649  0
H  H43  1  0.48197255  0.19195153  0.19830874  1  0.111624  0  0.103993  0.116607  0  1.037899  0
H  H44  1  0.79482979  0.81933348  0.12225266  1  0.079454  0  0.107017  0.071901  0  0.991232  0
H  H45  1  0.67234452  0.68067692  0.87740695  1  0.080639  0  0.107253  0.071824  0  0.99095  0
H  H46  1  0.20517280  0.18066459  0.87774550  1  0.079524  0  0.106988  0.071906  0  0.991321  0
H  H47  1  0.32765422  0.31932287  0.12259329  1  0.08061  0  0.107263  0.071827  0  0.990915  0
H  H48  1  0.46497113  0.98803797  0.05676756  1  0.098786  0  0.107996  0.075178  0  1.033108  0
H  H49  1  0.40808771  0.51199655  0.94308700  1  0.089071  0  0.108545  0.075641  0  1.03349  0
H  H50  1  0.53503398  0.01196442  0.94323555  1  0.098902  0  0.107991  0.075163  0  1.033094  0
H  H51  1  0.59191055  0.48800498  0.05691487  1  0.088995  0  0.108553  0.075668  0  1.033537  0
H  H52  1  0.37129976  0.86902762  0.13158886  1  0.064265  0  0.103711  0.107347  0  1.010975  0
H  H53  1  0.23951208  0.63086203  0.86812432  1  0.076696  0  0.103752  0.107856  0  1.011342  0
H  H54  1  0.62870457  0.13097390  0.86841241  1  0.064205  0  0.103706  0.107403  0  1.010891  0
H  H55  1  0.76048684  0.36913948  0.13187629  1  0.076722  0  0.10377  0.107876  0  1.011323  0
C  C56  1  0.49786619  0.69413123  0.55465570  1  1.616647  0  0.211104  0.598194  0  4.230458  0
C  C57  1  0.94297541  0.80572557  0.44499018  1  1.627997  0  0.210736  0.597395  0  4.232186  0
C  C58  1  0.50213110  0.30586771  0.44534491  1  1.616656  0  0.211124  0.598207  0  4.230386  0
C  C59  1  0.05702457  0.19427336  0.55500930  1  1.627996  0  0.210734  0.59738  0  4.23227  0
C  C60  1  0.46925582  0.81671425  0.56204591  1  -0.112368  0  -0.011725  -0.106879  0  3.945049  0
C  C61  1  0.90698419  0.68308234  0.43750887  1  -0.04278  0  -0.011021  -0.107073  0  3.945099  0
C  C62  1  0.53074291  0.18328554  0.43795336  1  -0.112345  0  -0.011745  -0.106928  0  3.945012  0
C  C63  1  0.09301513  0.31691660  0.56249186  1  -0.042742  0  -0.011058  -0.107148  0  3.945169  0
C  C64  1  0.34793194  0.84069705  0.50090481  1  0.557372  0  0.052149  0.07317  0  3.916037  0
C  C65  1  0.84704885  0.65921611  0.49883463  1  0.475744  0  0.052117  0.073613  0  3.915432  0
C  C66  1  0.65206747  0.15930274  0.49909515  1  0.557402  0  0.052225  0.073321  0  3.915925  0
C  C67  1  0.15295134  0.34078455  0.50116621  1  0.475762  0  0.052107  0.07363  0  3.915568  0
C  C68  1  0.40273067  0.03611382  0.56962228  1  0.513814  0  0.048658  0.100322  0  3.940355  0
C  C69  1  0.83325268  0.46376198  0.43057915  1  0.450119  0  0.048736  0.099181  0  3.943129  0
C  C70  1  0.59727009  0.96388599  0.43037905  1  0.513786  0  0.048629  0.100258  0  3.940249  0
C  C71  1  0.16674538  0.53623782  0.56942040  1  0.45006  0  0.048725  0.099042  0  3.943168  0
C  C72  1  0.52596063  0.01982359  0.63259684  1  -0.066508  0  -0.083729  -0.158586  0  3.968342  0
C  C73  1  0.89337083  0.47991345  0.36748291  1  -0.001882  0  -0.083288  -0.157394  0  3.966635  0
C  C74  1  0.47404072  0.98017536  0.36740497  1  -0.066526  0  -0.083701  -0.158501  0  3.96828  0
C  C75  1  0.10662723  0.52008634  0.63251664  1  -0.001888  0  -0.083298  -0.157368  0  3.966489  0
C  C76  1  0.56180611  0.90844577  0.62908464  1  3.5e-05  0  0.014538  0.008683  0  3.90169  0
C  C77  1  0.93252096  0.59123941  0.37063266  1  0.011193  0  0.013468  0.007958  0  3.90167  0
C  C78  1  0.43819243  0.09155230  0.37091425  1  0.000114  0  0.014543  0.008661  0  3.901655  0
C  C79  1  0.06747826  0.40875867  0.62936788  1  0.010785  0  0.013514  0.008087  0  3.90148  0
C  C80  1  0.69504156  0.88735025  0.69678924  1  1.631708  0  0.208154  0.598448  0  4.239684  0
C  C81  1  0.99794847  0.61225425  0.30282424  1  1.64779  0  0.208352  0.598435  0  4.240033  0
C  C82  1  0.30495891  0.11264698  0.30321055  1  1.631657  0  0.208269  0.598622  0  4.239502  0
C  C83  1  0.00205220  0.38774470  0.69717689  1  1.648658  0  0.208329  0.598444  0  4.240002  0
C  C84  1  0.49858576  0.57054754  0.32733022  1  0.513442  0  0.042918  0.105348  0  3.934589  0
C  C85  1  0.17084100  0.92963782  0.67264605  1  0.498754  0  0.043674  0.106013  0  3.936545  0
C  C86  1  0.50141317  0.42945396  0.67266943  1  0.513176  0  0.042921  0.105356  0  3.934531  0
C  C87  1  0.82915715  0.07036282  0.32735273  1  0.49881  0  0.043684  0.106038  0  3.936613  0
C  C88  1  0.55526301  0.63823957  0.28773769  1  -0.004399  0  -0.081237  -0.159344  0  3.905698  0
C  C89  1  0.26715723  0.86194129  0.71213061  1  -0.06908  0  -0.080619  -0.159088  0  3.905859  0
C  C90  1  0.44473919  0.36176108  0.71226229  1  -0.004398  0  -0.081265  -0.159414  0  3.905677  0
C  C91  1  0.73284005  0.13805763  0.28786709  1  -0.069065  0  -0.080653  -0.159097  0  3.905925  0
C  C92  1  0.47829270  0.69231008  0.21367949  1  0.014973  0  0.016897  0.108715  0  3.971439  0
C  C93  1  0.26437078  0.80771175  0.78611923  1  0.017087  0  0.01649  0.109183  0  3.970764  0
C  C94  1  0.52170950  0.30769056  0.78631953  1  0.015062  0  0.016889  0.108668  0  3.971564  0
C  C95  1  0.73562862  0.19228803  0.21387976  1  0.017105  0  0.016472  0.109115  0  3.970901  0
C  C96  1  0.34484008  0.67229177  0.18198558  1  -0.054094  0  -0.081883  -0.168624  0  3.954475  0
C  C97  1  0.16274316  0.82767157  0.81793231  1  -0.072797  0  -0.081724  -0.168677  0  3.956292  0
C  C98  1  0.65516213  0.32770887  0.81801344  1  -0.054093  0  -0.081895  -0.168618  0  3.954521  0
C  C99  1  0.83725712  0.17232993  0.18206775  1  -0.072825  0  -0.081679  -0.168598  0  3.956301  0
C  C100  1  0.29520645  0.60600563  0.22677628  1  0.4902  0  0.040457  0.094492  0  3.966381  0
C  C101  1  0.06826688  0.89397271  0.77326241  1  0.500304  0  0.040426  0.093827  0  3.966842  0
C  C102  1  0.70479382  0.39399587  0.77322281  1  0.490174  0  0.04045  0.094498  0  3.96645  0
C  C103  1  0.93173416  0.10602966  0.22673852  1  0.500319  0  0.040402  0.093782  0  3.96682  0
C  C104  1  0.53384203  0.76745722  0.17116914  1  -0.051597  0  0.004731  0.089629  0  3.98859  0
C  C105  1  0.36244030  0.73248299  0.82849410  1  0.010093  0  0.003946  0.089176  0  3.987767  0
C  C106  1  0.46615814  0.23254343  0.82883072  1  -0.05161  0  0.004707  0.089611  0  3.98848  0
C  C107  1  0.63755775  0.26751679  0.17150448  1  0.010163  0  0.003909  0.089152  0  3.987833  0
C  C108  1  0.65585992  0.75654113  0.16913881  1  -0.009368  0  -0.082101  -0.158517  0  3.901063  0
C  C109  1  0.48652101  0.74343707  0.83055820  1  0.023459  0  -0.081838  -0.159409  0  3.902459  0
C  C110  1  0.34413948  0.24345866  0.83086018  1  -0.009416  0  -0.082107  -0.158505  0  3.901045  0
C  C111  1  0.51347694  0.25656186  0.16944019  1  0.023405  0  -0.081834  -0.159473  0  3.902487  0
C  C112  1  0.70065550  0.82877764  0.12544004  1  0.497729  0  0.042537  0.102462  0  3.994966  0
C  C113  1  0.57498981  0.67118580  0.87423150  1  0.443134  0  0.042399  0.103276  0  3.994759  0
C  C114  1  0.29934507  0.17122043  0.87455800  1  0.49764  0  0.042614  0.102491  0  3.995144  0
C  C115  1  0.42500835  0.32881485  0.12576824  1  0.443237  0  0.042359  0.103272  0  3.994751  0
C  C116  1  0.51882872  0.92157129  0.08897431  1  0.479856  0  0.03723  0.088194  0  3.99615  0
C  C117  1  0.42963870  0.57838693  0.91074606  1  0.526417  0  0.036547  0.088358  0  3.995212  0
C  C118  1  0.48117503  0.07843109  0.91102743  1  0.480014  0  0.037321  0.088285  0  3.996053  0
C  C119  1  0.57035888  0.42161457  0.08925415  1  0.526378  0  0.036576  0.088327  0  3.995196  0
C  C120  1  0.46534259  0.85343446  0.13036777  1  -0.040582  0  -0.091938  -0.183399  0  3.971868  0
C  C121  1  0.33475070  0.64646282  0.86928919  1  -0.121163  0  -0.091091  -0.183764  0  3.972342  0
C  C122  1  0.53466116  0.14656791  0.86963397  1  -0.040564  0  -0.091958  -0.18347  0  3.971693  0
C  C123  1  0.66524678  0.35353782  0.13070986  1  -0.121179  0  -0.091079  -0.183716  0  3.972217  0
N  N124  1  0.31540879  0.94804975  0.50374974  1  -1.234105  0  -0.331767  -0.245658  0  3.515482  0
N  N125  1  0.81182280  0.55192640  0.49630092  1  -1.234152  0  -0.331405  -0.245913  0  3.516022  0
N  N126  1  0.68459275  0.05195091  0.49625150  1  -1.234146  0  -0.331793  -0.245685  0  3.515317  0
N  N127  1  0.18817594  0.44807339  0.50369932  1  -1.234144  0  -0.331369  -0.245787  0  3.516039  0
N  N128  1  0.37032680  0.55620852  0.29921638  1  -1.265515  0  -0.329696  -0.264941  0  3.502917  0
N  N129  1  0.07081350  0.94386303  0.70085101  1  -1.227766  0  -0.330631  -0.264607  0  3.506436  0
N  N130  1  0.62967483  0.44379299  0.70078408  1  -1.265538  0  -0.329686  -0.264964  0  3.503029  0
N  N131  1  0.92918678  0.05613848  0.29915002  1  -1.227815  0  -0.330623  -0.264591  0  3.506388  0
N  N132  1  0.63471520  0.90985233  0.08503875  1  -1.197111  0  -0.328638  -0.285404  0  3.340317  0
N  N133  1  0.54947293  0.59015175  0.91468044  1  -1.19224  0  -0.329129  -0.286407  0  3.341247  0
N  N134  1  0.36528922  0.09015004  0.91496271  1  -1.197221  0  -0.328718  -0.28548  0  3.340316  0
N  N135  1  0.45052591  0.40984891  0.08531998  1  -1.192358  0  -0.329133  -0.286382  0  3.341356  0
O  O136  1  0.40664673  0.62105804  0.53788113  1  -1.19295  0  -0.332487  -0.589226  0  2.312063  0
O  O137  1  0.86858270  0.87874575  0.46185422  1  -1.196941  0  -0.332762  -0.58953  0  2.311194  0
O  O138  1  0.59335152  0.37894346  0.46211881  1  -1.192916  0  -0.332516  -0.589266  0  2.311866  0
O  O139  1  0.13141806  0.12125405  0.53814614  1  -1.196956  0  -0.332745  -0.589526  0  2.311192  0
O  O140  1  0.61215562  0.67520929  0.56626999  1  -1.15702  0  -0.318248  -0.552446  0  2.328874  0
O  O141  1  0.04575628  0.82478163  0.43355370  1  -1.162068  0  -0.318009  -0.55169  0  2.330736  0
O  O142  1  0.38784516  0.32479053  0.43373327  1  -1.157085  0  -0.318246  -0.552418  0  2.329043  0
O  O143  1  0.95424226  0.17521644  0.56644519  1  -1.162091  0  -0.31804  -0.551701  0  2.330793  0
O  O144  1  0.70355130  0.84031019  0.76728176  1  -1.17389  0  -0.327295  -0.563082  0  2.146362  0
O  O145  1  0.93605818  0.65968864  0.23260535  1  -1.178655  0  -0.327678  -0.563246  0  2.146051  0
O  O146  1  0.29644947  0.15968961  0.23271956  1  -1.173896  0  -0.3273  -0.563112  0  2.146328  0
O  O147  1  0.06394239  0.34030944  0.76739462  1  -1.178721  0  -0.327655  -0.563268  0  2.146081  0
O  O148  1  0.78841277  0.91928066  0.67866341  1  -1.18344  0  -0.334314  -0.579051  0  2.299506  0
O  O149  1  0.10924736  0.57994333  0.32066379  1  -1.195573  0  -0.333834  -0.578724  0  2.300243  0
O  O150  1  0.21158654  0.08071226  0.32133280  1  -1.18346  0  -0.334413  -0.579147  0  2.299354  0
O  O151  1  0.89075486  0.42005734  0.67933909  1  -1.195995  0  -0.33383  -0.578736  0  2.300201  0
O  O152  1  0.14814216  0.32801510  0.24360610  1  -1.236462  0  -0.578478  -0.75019  0  2.039327  0
O  O153  1  0.90443300  0.17190754  0.75635177  1  -1.228492  0  -0.578654  -0.749849  0  2.038571  0
O  O154  1  0.85185879  0.67198642  0.75639464  1  -1.236474  0  -0.578518  -0.75022  0  2.039345  0
O  O155  1  0.09556632  0.82809139  0.24364799  1  -1.228524  0  -0.578635  -0.749774  0  2.038596  0
