# generated using pymatgen
data_MnH6C8(NO)4
_symmetry_space_group_name_H-M   'P 1'
_cell_length_a   7.48834187
_cell_length_b   7.70776465
_cell_length_c   9.10929400
_cell_angle_alpha   108.44076553
_cell_angle_beta   93.46605790
_cell_angle_gamma   106.06917899
_symmetry_Int_Tables_number   1
_chemical_formula_structural   MnH6C8(NO)4
_chemical_formula_sum   'Mn2 H12 C16 N8 O8'
_cell_volume   472.92748732
_cell_formula_units_Z   2
loop_
 _symmetry_equiv_pos_site_id
 _symmetry_equiv_pos_as_xyz
  1  'x, y, z'
loop_
 _atom_site_type_symbol
 _atom_site_label
 _atom_site_symmetry_multiplicity
 _atom_site_fract_x
 _atom_site_fract_y
 _atom_site_fract_z
 _atom_site_occupancy
 _atom_site_pbe_cm5_charge
 _atom_site_pbe_ddec_charge
 _atom_site_pbe_ddec_spin_density
 _atom_site_pbe_ddec_sum_bond_order
 _atom_site_pbe_magmom
Mn  Mn0  1  0.49999662  0.99999899  0.49999926  1  0.611864  1.011991  4.64457  2.316764  4.443
Mn  Mn1  1  0.50000098  0.50000466  0.49999840  1  0.616754  1.01519  4.599613  2.419919  4.409
H  H2  1  0.89557262  0.17117207  0.15425195  1  0.12599  0.136779  0.00083  0.998299  0.001
H  H3  1  0.10442208  0.82882715  0.84575270  1  0.125986  0.13675  0.00083  0.998265  0.001
H  H4  1  0.05906780  0.37134057  0.30626949  1  0.128232  0.143708  0.000256  0.995326  0.001
H  H5  1  0.94092645  0.62865721  0.69373475  1  0.128223  0.143667  0.000256  0.995304  0.001
H  H6  1  0.74495702  0.21357500  0.96423944  1  0.128971  0.109302  0.001241  1.069264  0.0
H  H7  1  0.25505157  0.78642563  0.03575979  1  0.128953  0.109284  0.001242  1.069277  0.0
H  H8  1  0.99252930  0.67832578  0.37717971  1  0.136808  0.117271  -0.000382  1.003094  0.0
H  H9  1  0.00746813  0.32167345  0.62282070  1  0.136792  0.11723  -0.000382  1.003139  0.0
H  H10  1  0.88392359  0.90220254  0.27220954  1  0.118453  0.133597  -0.000316  1.01404  0.0
H  H11  1  0.11607295  0.09779813  0.72779121  1  0.118471  0.133622  -0.000316  1.014038  0.0
H  H12  1  0.71342147  0.77432350  0.99407009  1  0.113227  0.116907  0.000908  1.03449  0.0
H  H13  1  0.28658404  0.22567571  0.00592529  1  0.11324  0.116942  0.000908  1.034494  0.0
C  C14  1  0.78853712  0.28346748  0.37293475  1  0.22966  0.626912  0.021944  4.146199  0.02
C  C15  1  0.21145940  0.71654184  0.62706941  1  0.229605  0.626857  0.021944  4.146364  0.02
C  C16  1  0.91204337  0.30836894  0.24668673  1  -0.054389  -0.251829  0.003518  3.793449  0.002
C  C17  1  0.08795227  0.69162884  0.75331429  1  -0.054374  -0.251722  0.003518  3.793316  0.002
C  C18  1  0.77141194  0.36690517  0.02672896  1  0.068211  0.027071  0.008645  3.794758  0.007
C  C19  1  0.22859222  0.63309405  0.97326744  1  0.068185  0.027042  0.008645  3.794781  0.007
C  C20  1  0.91105252  0.63011548  0.26117562  1  0.076359  0.066097  0.007272  3.796962  0.006
C  C21  1  0.08894493  0.36988376  0.73882260  1  0.076368  0.066142  0.007274  3.796869  0.006
C  C22  1  0.85415196  0.75218766  0.19948654  1  -0.062629  -0.090037  -0.001376  3.931213  -0.001
C  C23  1  0.14584681  0.24781156  0.80051395  1  -0.06265  -0.090114  -0.001376  3.931268  -0.001
C  C24  1  0.75571101  0.68026647  0.04704434  1  -0.046511  -0.025549  0.009814  3.876276  0.007
C  C25  1  0.24429314  0.31973275  0.95295315  1  -0.046521  -0.025516  0.009815  3.876364  0.007
C  C26  1  0.71671156  0.48529199  0.95816598  1  -0.009754  -0.082026  0.002805  3.972785  0.002
C  C27  1  0.28329123  0.51470722  0.04183254  1  -0.009725  -0.082128  0.002805  3.972842  0.002
C  C28  1  0.61948720  0.39956076  0.78949542  1  0.225378  0.589066  0.018205  4.205712  0.017
C  C29  1  0.38051651  0.60043701  0.21050057  1  0.225494  0.58924  0.018208  4.205589  0.017
N  N30  1  0.86702361  0.44012387  0.17489512  1  -0.205724  0.125918  0.001896  3.752583  0.002
N  N31  1  0.13297693  0.55987679  0.82510585  1  -0.205707  0.125974  0.001896  3.752501  0.002
N  N32  1  0.35170847  0.17809197  0.41452338  1  -0.287017  -0.561016  0.037274  3.00703  0.002
N  N33  1  0.64828543  0.82190441  0.58547277  1  -0.287157  -0.561248  0.037297  3.006588  0.003
N  N34  1  0.27458024  0.10836242  0.27973803  1  0.091594  0.431958  0.020115  4.473616  0.021
N  N35  1  0.72542422  0.89163818  0.72027083  1  0.091687  0.432075  0.020122  4.473702  0.021
N  N36  1  0.19897220  0.04150424  0.14925036  1  -0.193959  -0.401631  0.076642  2.721052  0.07
N  N37  1  0.80102707  0.95848779  0.85074274  1  -0.193879  -0.401506  0.076628  2.721709  0.07
O  O38  1  0.74143284  0.11955197  0.38660943  1  -0.28813  -0.536684  0.040848  2.260121  0.028
O  O39  1  0.25856233  0.88045303  0.61339460  1  -0.288123  -0.536668  0.040849  2.260292  0.028
O  O40  1  0.75372124  0.43333013  0.45578608  1  -0.305769  -0.578209  0.03926  2.384243  0.021
O  O41  1  0.24627625  0.56667344  0.54421001  1  -0.305732  -0.578177  0.03926  2.384087  0.021
O  O42  1  0.61396239  0.22752345  0.71658647  1  -0.300486  -0.554492  0.045371  2.356962  0.029
O  O43  1  0.38604084  0.77247287  0.28341239  1  -0.300552  -0.55458  0.045373  2.356833  0.029
O  O44  1  0.55528770  0.50766775  0.73626578  1  -0.302835  -0.556719  0.043123  2.340621  0.028
O  O45  1  0.44471865  0.49233000  0.26373364  1  -0.302884  -0.556741  0.043124  2.340551  0.028
