# generated using pymatgen
data_RbH(CO)4
_symmetry_space_group_name_H-M   'P 1'
_cell_length_a   4.18735410
_cell_length_b   8.06406960
_cell_length_c   16.04807203
_cell_angle_alpha   89.99991678
_cell_angle_beta   90.00010447
_cell_angle_gamma   96.64178521
_symmetry_Int_Tables_number   1
_chemical_formula_structural   RbH(CO)4
_chemical_formula_sum   'Rb4 H4 C16 O16'
_cell_volume   538.26024597
_cell_formula_units_Z   4
loop_
 _symmetry_equiv_pos_site_id
 _symmetry_equiv_pos_as_xyz
  1  'x, y, z'
loop_
 _atom_site_type_symbol
 _atom_site_label
 _atom_site_symmetry_multiplicity
 _atom_site_fract_x
 _atom_site_fract_y
 _atom_site_fract_z
 _atom_site_occupancy
 _atom_site_hle17_bader_spin_density
 _atom_site_hle17_ddec_charge
 _atom_site_hle17_ddec_spin_density
 _atom_site_hle17_ddec_sum_bond_order
 _atom_site_hle17_magmom
 _atom_site_hse06_10hf_bader_spin_density
 _atom_site_hse06_10hf_ddec_charge
 _atom_site_hse06_10hf_ddec_spin_density
 _atom_site_hse06_10hf_ddec_sum_bond_order
 _atom_site_hse06_10hf_magmom
 _atom_site_hse06_bader_spin_density
 _atom_site_hse06_ddec_charge
 _atom_site_hse06_ddec_spin_density
 _atom_site_hse06_ddec_sum_bond_order
 _atom_site_hse06_magmom
 _atom_site_pbe_bader_spin_density
 _atom_site_pbe_cm5_charge
 _atom_site_pbe_ddec_charge
 _atom_site_pbe_ddec_spin_density
 _atom_site_pbe_ddec_sum_bond_order
 _atom_site_pbe_magmom
Rb  Rb0  1  0.28449221  0.23865745  0.56666244  1  0  0.936509  0  0.478686  0  0  0.879855  0  0.692357  0  0  0.895924  0  0.669046  0  0  0.791947  0.867954  0  0.708962  0
Rb  Rb1  1  0.71550301  0.26134249  0.06666229  1  0  0.936497  0  0.478735  0  0  0.87987  0  0.692373  0  0  0.895936  0  0.669064  0  0  0.791971  0.867957  0  0.708978  0
Rb  Rb2  1  0.71550593  0.76134181  0.43333792  1  0  0.936508  0  0.478691  0  0  0.879854  0  0.692356  0  0  0.895923  0  0.669047  0  0  0.79196  0.867961  0  0.708965  0
Rb  Rb3  1  0.28449512  0.73865678  0.93333683  1  0  0.936506  0  0.47872  0  0  0.879873  0  0.692366  0  0  0.89594  0  0.669055  0  0  0.791976  0.867969  0  0.708973  0
H  H4  1  0.50812867  0.48334157  0.76270215  1  0  0.377556  0  0.920935  0  0  0.347855  0  0.997215  0  0  0.360244  0  0.9865  0  0  0.298631  0.3392  0  1.004591  0
H  H5  1  0.49186992  0.01665665  0.26269958  1  0  0.377492  0  0.920982  0  0  0.34779  0  0.997289  0  0  0.360178  0  0.986579  0  0  0.298638  0.339138  0  1.004655  0
H  H6  1  0.49186973  0.51665894  0.23729759  1  0  0.377541  0  0.920942  0  0  0.347846  0  0.99722  0  0  0.360236  0  0.986505  0  0  0.298624  0.339194  0  1.00459  0
H  H7  1  0.50813087  0.98334386  0.73730016  1  0  0.377481  0  0.921009  0  0  0.347782  0  0.997309  0  0  0.360168  0  0.986602  0  0  0.29863  0.339129  0  1.004675  0
C  C8  1  0.14559959  0.30067995  0.78974962  1  0  0.171244  0  3.796134  0  0  0.149193  0  4.076615  0  0  0.157638  0  4.089724  0  0  0.094152  0.143089  0  4.067943  0
C  C9  1  0.85440026  0.19932320  0.28974708  1  0  0.171188  0  3.796001  0  0  0.149146  0  4.076457  0  0  0.157594  0  4.089556  0  0  0.094166  0.143031  0  4.067799  0
C  C10  1  0.85439936  0.69932306  0.21025012  1  0  0.171134  0  3.796243  0  0  0.14914  0  4.076687  0  0  0.157586  0  4.089791  0  0  0.094131  0.14303  0  4.06802  0
C  C11  1  0.14560265  0.80067608  0.71025328  1  0  0.171176  0  3.795967  0  0  0.149128  0  4.076427  0  0  0.157577  0  4.089526  0  0  0.09416  0.143014  0  4.067766  0
C  C12  1  0.89653108  0.16480179  0.77785185  1  0  0.197276  0  3.842806  0  0  0.173996  0  4.126985  0  0  0.186653  0  4.138062  0  0  0.100198  0.165343  0  4.119465  0
C  C13  1  0.10346337  0.33519888  0.27784885  1  0  0.197341  0  3.842941  0  0  0.174022  0  4.127106  0  0  0.186681  0  4.138178  0  0  0.100184  0.165365  0  4.119597  0
C  C14  1  0.10346254  0.83519872  0.22214789  1  0  0.197278  0  3.842919  0  0  0.173977  0  4.127089  0  0  0.186636  0  4.138164  0  0  0.100202  0.165322  0  4.119577  0
C  C15  1  0.89653954  0.66480039  0.72215089  1  0  0.197302  0  3.842906  0  0  0.173989  0  4.127057  0  0  0.186647  0  4.13813  0  0  0.100175  0.165339  0  4.119544  0
C  C16  1  0.88471238  0.13433809  0.86938123  1  0  0.218124  0  3.87755  0  0  0.198548  0  4.160338  0  0  0.214008  0  4.167399  0  0  0.108402  0.188104  0  4.155368  0
C  C17  1  0.11527735  0.36565985  0.36937510  1  0  0.217976  0  3.877518  0  0  0.198425  0  4.160294  0  0  0.213883  0  4.167353  0  0  0.108335  0.18797  0  4.155339  0
C  C18  1  0.11528363  0.86566242  0.13061976  1  0  0.218076  0  3.877624  0  0  0.19852  0  4.160366  0  0  0.213978  0  4.167424  0  0  0.108376  0.188067  0  4.1554  0
C  C19  1  0.88472556  0.63433942  0.63062464  1  0  0.218031  0  3.877485  0  0  0.198485  0  4.160247  0  0  0.213943  0  4.167306  0  0  0.108347  0.188025  0  4.155294  0
C  C20  1  0.13090245  0.28440581  0.88038668  1  0  0.207264  0  3.917974  0  0  0.191022  0  4.196202  0  0  0.20545  0  4.205732  0  0  0.10015  0.181308  0  4.189566  0
C  C21  1  0.86909826  0.21559837  0.38038040  1  0  0.20741  0  3.917533  0  0  0.191165  0  4.195785  0  0  0.205594  0  4.205312  0  0  0.100224  0.181457  0  4.189146  0
C  C22  1  0.86909623  0.71559595  0.11961431  1  0  0.207334  0  3.917922  0  0  0.19107  0  4.196146  0  0  0.2055  0  4.205673  0  0  0.100176  0.18136  0  4.189501  0
C  C23  1  0.13090465  0.78440091  0.61961872  1  0  0.207414  0  3.917478  0  0  0.191167  0  4.195722  0  0  0.205596  0  4.20525  0  0  0.100254  0.181466  0  4.189079  0
O  O24  1  0.31398936  0.39437392  0.73612885  1  0  -0.479946  0  2.262399  0  0  -0.428646  0  2.495708  0  0  -0.451121  0  2.492979  0  0  -0.349685  -0.412943  0  2.497363  0
O  O25  1  0.68600853  0.10562187  0.23612506  1  0  -0.47988  0  2.262299  0  0  -0.428622  0  2.495558  0  0  -0.451096  0  2.492823  0  0  -0.349733  -0.412913  0  2.497207  0
O  O26  1  0.68600851  0.60562410  0.26387151  1  0  -0.479915  0  2.262394  0  0  -0.428616  0  2.495654  0  0  -0.45109  0  2.49292  0  0  -0.349676  -0.412914  0  2.497311  0
O  O27  1  0.31399199  0.89437739  0.76387468  1  0  -0.479869  0  2.262343  0  0  -0.428607  0  2.495602  0  0  -0.451081  0  2.492869  0  0  -0.349743  -0.412899  0  2.497256  0
O  O28  1  0.75079294  0.10008898  0.71365783  1  0  -0.521868  0  2.113896  0  0  -0.477251  0  2.342924  0  0  -0.498942  0  2.340356  0  0  -0.324696  -0.46213  0  2.344331  0
O  O29  1  0.24921039  0.39991062  0.21365361  1  0  -0.521851  0  2.114028  0  0  -0.477298  0  2.343041  0  0  -0.498992  0  2.340473  0  0  -0.324666  -0.462157  0  2.344428  0
O  O30  1  0.24920519  0.89991028  0.28634253  1  0  -0.521832  0  2.113897  0  0  -0.477214  0  2.342926  0  0  -0.498906  0  2.340358  0  0  -0.324676  -0.46208  0  2.344314  0
O  O31  1  0.75079225  0.60008741  0.78634613  1  0  -0.52183  0  2.114005  0  0  -0.477267  0  2.34302  0  0  -0.498961  0  2.340451  0  0  -0.324655  -0.462131  0  2.344417  0
O  O32  1  0.74334054  0.03008278  0.91745118  1  0  -0.530378  0  2.054622  0  0  -0.496717  0  2.289005  0  0  -0.513548  0  2.284928  0  0  -0.394667  -0.484989  0  2.291593  0
O  O33  1  0.25666252  0.46992006  0.41744754  1  0  -0.530328  0  2.054377  0  0  -0.496613  0  2.288747  0  0  -0.513452  0  2.284688  0  0  -0.394605  -0.484881  0  2.291336  0
O  O34  1  0.25666025  0.96991773  0.08254980  1  0  -0.530347  0  2.054616  0  0  -0.496707  0  2.288939  0  0  -0.513546  0  2.284879  0  0  -0.394676  -0.484972  0  2.291523  0
O  O35  1  0.74334039  0.53007921  0.58255158  1  0  -0.530389  0  2.054349  0  0  -0.496674  0  2.288724  0  0  -0.513511  0  2.284659  0  0  -0.394628  -0.484939  0  2.291315  0
O  O36  1  0.25989772  0.36165362  0.94140958  1  0  -0.575748  0  2.044853  0  0  -0.53784  0  2.274936  0  0  -0.556284  0  2.271091  0  0  -0.424456  -0.524932  0  2.277313  0
O  O37  1  0.74010018  0.13834666  0.44140766  1  0  -0.575876  0  2.044329  0  0  -0.537907  0  2.274451  0  0  -0.556353  0  2.270606  0  0  -0.424497  -0.524998  0  2.276821  0
O  O38  1  0.74010068  0.63834689  0.05859015  1  0  -0.575747  0  2.044801  0  0  -0.537842  0  2.274888  0  0  -0.556286  0  2.271041  0  0  -0.424454  -0.524929  0  2.277254  0
O  O39  1  0.25990273  0.86165261  0.55859207  1  0  -0.575856  0  2.044338  0  0  -0.537896  0  2.274455  0  0  -0.556341  0  2.270609  0  0  -0.424499  -0.524988  0  2.276826  0
