# generated using pymatgen
data_AgH7C11SN3O2F3
_symmetry_space_group_name_H-M   'P 1'
_cell_length_a   8.37469981
_cell_length_b   8.98388825
_cell_length_c   10.53536922
_cell_angle_alpha   93.36218688
_cell_angle_beta   112.41006752
_cell_angle_gamma   114.36989852
_symmetry_Int_Tables_number   1
_chemical_formula_structural   AgH7C11SN3O2F3
_chemical_formula_sum   'Ag2 H14 C22 S2 N6 O4 F6'
_cell_volume   645.17829771
_cell_formula_units_Z   2
loop_
 _symmetry_equiv_pos_site_id
 _symmetry_equiv_pos_as_xyz
  1  'x, y, z'
loop_
 _atom_site_type_symbol
 _atom_site_label
 _atom_site_symmetry_multiplicity
 _atom_site_fract_x
 _atom_site_fract_y
 _atom_site_fract_z
 _atom_site_occupancy
 _atom_site_hle17_bader_spin_density
 _atom_site_hle17_ddec_charge
 _atom_site_hle17_ddec_spin_density
 _atom_site_hle17_ddec_sum_bond_order
 _atom_site_hle17_magmom
 _atom_site_hse06_10hf_bader_spin_density
 _atom_site_hse06_10hf_ddec_charge
 _atom_site_hse06_10hf_ddec_spin_density
 _atom_site_hse06_10hf_ddec_sum_bond_order
 _atom_site_hse06_10hf_magmom
 _atom_site_hse06_bader_spin_density
 _atom_site_hse06_ddec_charge
 _atom_site_hse06_ddec_spin_density
 _atom_site_hse06_ddec_sum_bond_order
 _atom_site_hse06_magmom
 _atom_site_pbe_bader_spin_density
 _atom_site_pbe_cm5_charge
 _atom_site_pbe_ddec_charge
 _atom_site_pbe_ddec_spin_density
 _atom_site_pbe_ddec_sum_bond_order
 _atom_site_pbe_magmom
Ag  Ag0  1  0.23200778  0.45449285  0.93568911  1  0  0.53737  0  1.425938  0  0  0.399144  0  1.877745  0  0  0.428557  0  1.829441  0  0  0.444553  0.378971  0  1.911249  0
Ag  Ag1  1  0.76799369  0.54550864  0.06431254  1  0  0.537331  0  1.425996  0  0  0.399096  0  1.877822  0  0  0.428507  0  1.829513  0  0  0.444551  0.378918  0  1.911323  0
H  H2  1  0.45528353  0.21774357  0.01923931  1  0  0.080538  0  0.9792  0  0  0.088496  0  1.047215  0  0  0.091643  0  1.043822  0  0  0.108721  0.086152  0  1.049769  0
H  H3  1  0.54472367  0.78225418  0.98076483  1  0  0.080515  0  0.979201  0  0  0.088449  0  1.04724  0  0  0.091598  0  1.043843  0  0  0.108709  0.086108  0  1.049797  0
H  H4  1  0.44417296  0.99321083  0.15196036  1  0  0.110497  0  0.967077  0  0  0.116098  0  1.032966  0  0  0.119935  0  1.030719  0  0  0.102255  0.113408  0  1.034582  0
H  H5  1  0.55583163  0.00678442  0.84803998  1  0  0.11055  0  0.967072  0  0  0.116145  0  1.032971  0  0  0.119989  0  1.030708  0  0  0.102283  0.113451  0  1.034594  0
H  H6  1  0.22754289  0.91685779  0.27368484  1  0  0.099135  0  0.943661  0  0  0.10736  0  1.008154  0  0  0.110207  0  1.005818  0  0  0.1044  0.105217  0  1.010066  0
H  H7  1  0.77246180  0.08314003  0.72631284  1  0  0.099217  0  0.943557  0  0  0.107401  0  1.008107  0  0  0.110248  0  1.005772  0  0  0.104418  0.105257  0  1.010025  0
H  H8  1  0.02011346  0.06151241  0.25145748  1  0  0.118945  0  0.954001  0  0  0.125324  0  1.018724  0  0  0.128965  0  1.01651  0  0  0.102172  0.122903  0  1.020104  0
H  H9  1  0.97989576  0.93848666  0.74854451  1  0  0.118942  0  0.954007  0  0  0.125313  0  1.018727  0  0  0.128957  0  1.016513  0  0  0.10217  0.122889  0  1.020109  0
H  H10  1  0.44658082  0.57775832  0.58120697  1  0  0.088171  0  0.934486  0  0  0.092604  0  1.001925  0  0  0.095496  0  0.998967  0  0  0.116324  0.090384  0  1.004226  0
H  H11  1  0.55341143  0.42224048  0.41879740  1  0  0.088146  0  0.93455  0  0  0.09256  0  1.002017  0  0  0.095449  0  0.999064  0  0  0.116324  0.090339  0  1.004318  0
H  H12  1  0.27882681  0.74608850  0.61460308  1  0  0.117236  0  0.963543  0  0  0.123938  0  1.027828  0  0  0.127333  0  1.027669  0  0  0.103955  0.121576  0  1.028041  0
H  H13  1  0.72117241  0.25392316  0.38539184  1  0  0.117219  0  0.963603  0  0  0.123891  0  1.027927  0  0  0.127287  0  1.027767  0  0  0.103957  0.12153  0  1.028138  0
H  H14  1  0.98670705  0.71797328  0.39639565  1  0  0.090106  0  0.942864  0  0  0.096045  0  1.010223  0  0  0.099518  0  1.005597  0  0  0.114981  0.093507  0  1.013583  0
H  H15  1  0.01328666  0.28202573  0.60359780  1  0  0.090069  0  0.942867  0  0  0.095993  0  1.010235  0  0  0.099465  0  1.00561  0  0  0.114963  0.093456  0  1.013591  0
C  C16  1  0.56880675  0.70808325  0.23108914  1  0  0.491309  0  4.052016  0  0  0.439292  0  4.35375  0  0  0.469138  0  4.349576  0  0  0.182675  0.41909  0  4.355911  0
C  C17  1  0.43117865  0.29192440  0.76890797  1  0  0.491327  0  4.051889  0  0  0.439292  0  4.353678  0  0  0.469139  0  4.349498  0  0  0.182628  0.41911  0  4.355824  0
C  C18  1  0.36166880  0.17960003  0.07286590  1  0  0.127679  0  3.681854  0  0  0.100735  0  3.925989  0  0  0.105769  0  3.944957  0  0  0.042953  0.097416  0  3.913077  0
C  C19  1  0.63833450  0.82039523  0.92713311  1  0  0.127531  0  3.682027  0  0  0.100633  0  3.926143  0  0  0.105665  0  3.945114  0  0  0.042848  0.097316  0  3.91322  0
C  C20  1  0.35707559  0.05686402  0.14826216  1  0  -0.112003  0  3.72647  0  0  -0.123404  0  3.974521  0  0  -0.129239  0  3.995641  0  0  -0.084044  -0.11957  0  3.960277  0
C  C21  1  0.64292836  0.94313245  0.85173995  1  0  -0.111997  0  3.726555  0  0  -0.123406  0  3.974564  0  0  -0.129238  0  3.995686  0  0  -0.084018  -0.119569  0  3.960326  0
C  C22  1  0.23446037  0.01309832  0.21474990  1  0  0.002671  0  3.696134  0  0  -0.018164  0  3.954599  0  0  -0.015467  0  3.972385  0  0  -0.068933  -0.019912  0  3.942704  0
C  C23  1  0.76554625  0.98690072  0.78525130  1  0  0.002627  0  3.696103  0  0  -0.018189  0  3.95457  0  0  -0.015489  0  3.97236  0  0  -0.068956  -0.019934  0  3.942677  0
C  C24  1  0.11929220  0.09253599  0.20277816  1  0  -0.130436  0  3.708906  0  0  -0.155203  0  3.966119  0  0  -0.161381  0  3.987564  0  0  -0.080396  -0.151087  0  3.951472  0
C  C25  1  0.88071109  0.90745926  0.79722179  1  0  -0.130473  0  3.709008  0  0  -0.155194  0  3.966215  0  0  -0.161367  0  3.987638  0  0  -0.080353  -0.151076  0  3.951563  0
C  C26  1  0.13314046  0.21397739  0.12518550  1  0  0.192739  0  3.772767  0  0  0.197573  0  4.026569  0  0  0.203802  0  4.049469  0  0  0.116925  0.19318  0  4.011107  0
C  C27  1  0.86686808  0.78602041  0.87481620  1  0  0.192692  0  3.772645  0  0  0.197455  0  4.026576  0  0  0.203686  0  4.049479  0  0  0.116837  0.193072  0  4.011102  0
C  C28  1  0.09361972  0.45588167  0.26171164  1  0  0.353329  0  3.78665  0  0  0.33727  0  4.0631  0  0  0.354287  0  4.076685  0  0  0.242739  0.325453  0  4.054511  0
C  C29  1  0.90637306  0.54411089  0.73828968  1  0  0.353241  0  3.786767  0  0  0.337242  0  4.063151  0  0  0.354267  0  4.076729  0  0  0.242727  0.325413  0  4.05459  0
C  C30  1  0.31713874  0.57001808  0.49419145  1  0  0.2037  0  3.653287  0  0  0.172888  0  3.917618  0  0  0.18516  0  3.929246  0  0  0.069861  0.164678  0  3.909955  0
C  C31  1  0.68284963  0.42998071  0.50581079  1  0  0.203717  0  3.653235  0  0  0.172892  0  3.917608  0  0  0.185164  0  3.929231  0  0  0.069882  0.164686  0  3.909938  0
C  C32  1  0.22635097  0.66375781  0.51225896  1  0  -0.183044  0  3.709973  0  0  -0.20128  0  3.970537  0  0  -0.212202  0  3.990909  0  0  -0.094266  -0.194391  0  3.957192  0
C  C33  1  0.77365053  0.33624126  0.48773686  1  0  -0.182978  0  3.709915  0  0  -0.201175  0  3.970452  0  0  -0.212094  0  3.990821  0  0  -0.094231  -0.194283  0  3.957098  0
C  C34  1  0.06724191  0.64968158  0.39318792  1  0  0.179724  0  3.675822  0  0  0.145028  0  3.931062  0  0  0.156214  0  3.946143  0  0  0.058805  0.137711  0  3.921087  0
C  C35  1  0.93275912  0.35032626  0.60681018  1  0  0.17979  0  3.675978  0  0  0.145138  0  3.931178  0  0  0.156324  0  3.946266  0  0  0.058813  0.13782  0  3.921202  0
C  C36  1  0.67294741  0.86078422  0.36317604  1  0  0.669144  0  3.613744  0  0  0.600029  0  3.955424  0  0  0.627621  0  3.927945  0  0  0.293126  0.580514  0  3.974717  0
C  C37  1  0.32705351  0.13922105  0.63682472  1  0  0.669173  0  3.613601  0  0  0.600012  0  3.955385  0  0  0.627619  0  3.927875  0  0  0.293145  0.580488  0  3.974682  0
S  S38  1  0.98164291  0.31320259  0.09502796  1  0  -0.034075  0  2.508417  0  0  -0.044907  0  2.872728  0  0  -0.0486  0  2.866939  0  0  0.054392  -0.042026  0  2.877553  0
S  S39  1  0.01836298  0.68679268  0.90497278  1  0  -0.03401  0  2.508468  0  0  -0.044834  0  2.87277  0  0  -0.048526  0  2.866978  0  0  0.054425  -0.041952  0  2.877602  0
N  N40  1  0.25075990  0.25690818  0.06067913  1  0  -0.327456  0  3.281249  0  0  -0.253879  0  3.550809  0  0  -0.271267  0  3.567612  0  0  -0.328586  -0.241998  0  3.539231  0
N  N41  1  0.74924798  0.74309083  0.93932529  1  0  -0.327287  0  3.281161  0  0  -0.2537  0  3.550714  0  0  -0.271088  0  3.567521  0  0  -0.328471  -0.241815  0  3.539133  0
N  N42  1  0.25106161  0.46548961  0.36871937  1  0  -0.370253  0  3.034058  0  0  -0.332527  0  3.297281  0  0  -0.349335  0  3.310851  0  0  -0.313066  -0.321294  0  3.288417  0
N  N43  1  0.74893118  0.53450297  0.63128101  1  0  -0.370272  0  3.034227  0  0  -0.332572  0  3.297487  0  0  -0.349382  0  3.311054  0  0  -0.313111  -0.321343  0  3.288637  0
N  N44  1  0.99998326  0.54653586  0.26621673  1  0  -0.385849  0  3.245276  0  0  -0.307066  0  3.525182  0  0  -0.328809  0  3.536882  0  0  -0.336611  -0.292659  0  3.51745  0
N  N45  1  0.00001089  0.45345455  0.73378024  1  0  -0.385905  0  3.245366  0  0  -0.307153  0  3.525245  0  0  -0.328902  0  3.536949  0  0  -0.336629  -0.292748  0  3.517533  0
O  O46  1  0.42040103  0.70384341  0.13232221  1  0  -0.585614  0  2.086214  0  0  -0.536219  0  2.348061  0  0  -0.56298  0  2.339402  0  0  -0.328033  -0.517419  0  2.353313  0
O  O47  1  0.57959731  0.29616430  0.86768170  1  0  -0.585608  0  2.085779  0  0  -0.536216  0  2.347651  0  0  -0.562984  0  2.338989  0  0  -0.328017  -0.517417  0  2.35289  0
O  O48  1  0.64899692  0.61636535  0.23718563  1  0  -0.569333  0  2.06077  0  0  -0.529586  0  2.324043  0  0  -0.553471  0  2.314103  0  0  -0.321602  -0.512586  0  2.330061  0
O  O49  1  0.35098886  0.38363098  0.76281092  1  0  -0.569336  0  2.061135  0  0  -0.529584  0  2.324433  0  0  -0.553468  0  2.314492  0  0  -0.321579  -0.512596  0  2.330448  0
F  F50  1  0.54702543  0.88446873  0.40398738  1  0  -0.254857  0  1.185469  0  0  -0.207251  0  1.347254  0  0  -0.217859  0  1.334122  0  0  -0.10028  -0.199558  0  1.356231  0
F  F51  1  0.45297887  0.11554284  0.59601668  1  0  -0.254889  0  1.185473  0  0  -0.207269  0  1.347273  0  0  -0.217876  0  1.334134  0  0  -0.100309  -0.199578  0  1.356256  0
F  F52  1  0.80825256  0.84945445  0.47913127  1  0  -0.237167  0  1.207448  0  0  -0.205573  0  1.388744  0  0  -0.215118  0  1.372757  0  0  -0.097817  -0.19855  0  1.399493  0
F  F53  1  0.19175026  0.15054712  0.52086701  1  0  -0.237163  0  1.207437  0  0  -0.205561  0  1.388753  0  0  -0.215105  0  1.37276  0  0  -0.097806  -0.198536  0  1.399504  0
F  F54  1  0.77123504  0.00789567  0.33046461  1  0  -0.272176  0  1.15426  0  0  -0.226724  0  1.318935  0  0  -0.237883  0  1.304304  0  0  -0.105207  -0.21907  0  1.329214  0
F  F55  1  0.22876127  0.99210581  0.66953357  1  0  -0.2722  0  1.154209  0  0  -0.226702  0  1.318872  0  0  -0.23788  0  1.304246  0  0  -0.105198  -0.219043  0  1.329149  0
