# generated using pymatgen
data_CuH13C17SNO10
_symmetry_space_group_name_H-M   'P 1'
_cell_length_a   7.97275206
_cell_length_b   9.72215358
_cell_length_c   12.04088642
_cell_angle_alpha   83.00519650
_cell_angle_beta   74.05664996
_cell_angle_gamma   78.64037974
_symmetry_Int_Tables_number   1
_chemical_formula_structural   CuH13C17SNO10
_chemical_formula_sum   'Cu2 H26 C34 S2 N2 O20'
_cell_volume   877.56556142
_cell_formula_units_Z   2
loop_
 _symmetry_equiv_pos_site_id
 _symmetry_equiv_pos_as_xyz
  1  'x, y, z'
loop_
 _atom_site_type_symbol
 _atom_site_label
 _atom_site_symmetry_multiplicity
 _atom_site_fract_x
 _atom_site_fract_y
 _atom_site_fract_z
 _atom_site_occupancy
 _atom_site_hle17_ddec_charge
 _atom_site_hle17_ddec_spin_density
 _atom_site_hle17_ddec_sum_bond_order
 _atom_site_hle17_magmom
 _atom_site_hse06_10hf_ddec_charge
 _atom_site_hse06_10hf_ddec_spin_density
 _atom_site_hse06_10hf_ddec_sum_bond_order
 _atom_site_hse06_10hf_magmom
 _atom_site_hse06_ddec_charge
 _atom_site_hse06_ddec_spin_density
 _atom_site_hse06_ddec_sum_bond_order
 _atom_site_hse06_magmom
 _atom_site_pbe_cm5_charge
 _atom_site_pbe_ddec_charge
 _atom_site_pbe_ddec_spin_density
 _atom_site_pbe_ddec_sum_bond_order
 _atom_site_pbe_magmom
Cu  Cu0  1  0.57244580  0.44823736  0.77728273  1  0.994523  0.719961  1.696906  0.547  0.98388  0.80502  2.080019  0.665  1.067663  0.864087  2.014863  0.746  0.747999  0.929908  0.761375  2.124485  0.61
Cu  Cu1  1  0.42756080  0.55175523  0.22271396  1  0.994473  0.719946  1.696947  0.547  0.983898  0.805023  2.080076  0.665  1.060504  0.864062  2.028625  0.746  0.747988  0.929924  0.761378  2.124509  0.61
H  H2  1  0.35241458  0.83246256  0.66745127  1  0.413273  -1.7e-05  0.841686  0.0  0.384612  -1.7e-05  0.915327  0.0  0.396929  -1.3e-05  0.901702  0.0  0.315305  0.375869  -1.6e-05  0.924964  0.0
H  H3  1  0.64758330  0.16752170  0.33254877  1  0.413337  -1.9e-05  0.841729  0.0  0.384664  -1.7e-05  0.915374  0.0  0.396982  -1.4e-05  0.901748  0.0  0.315319  0.375916  -1.6e-05  0.925024  0.0
H  H4  1  0.44614521  0.40408786  0.61557999  1  0.420188  -0.000672  0.884082  -0.001  0.388763  -7.6e-05  0.949811  0.0  0.40071  -0.000244  0.932821  0.0  0.291872  0.380189  7.1e-05  0.962016  0.0
H  H5  1  0.55385656  0.59590280  0.38442361  1  0.420138  -0.000672  0.884145  -0.001  0.388745  -7.6e-05  0.949811  0.0  0.400773  -0.000243  0.932657  0.0  0.291887  0.380172  7.1e-05  0.962012  0.0
H  H6  1  0.35071191  0.55348600  0.65574693  1  0.434017  -0.000266  0.815044  -0.001  0.414066  0.000493  0.876493  0.001  0.423924  0.000243  0.865795  0.0  0.317127  0.40678  0.000697  0.884488  0.001
H  H7  1  0.64930165  0.44651073  0.34424720  1  0.433932  -0.000265  0.815102  -0.001  0.413993  0.000493  0.876539  0.001  0.423906  0.000243  0.865632  0.0  0.317102  0.406707  0.000698  0.88454  0.001
H  H8  1  0.79779147  0.34965550  0.89607745  1  0.43063  -0.000386  0.8676  -0.001  0.401395  0.000406  0.92899  0.0  0.412588  0.000174  0.913197  0.0  0.297038  0.393265  0.000588  0.940535  0.0
H  H9  1  0.20222266  0.65035732  0.10392888  1  0.430626  -0.000387  0.867634  -0.001  0.401403  0.000405  0.929022  0.0  0.412664  0.000174  0.913092  0.0  0.296995  0.393271  0.000587  0.94057  0.0
H  H10  1  0.86169255  0.47703508  0.79432982  1  0.421234  -0.000188  0.879595  -0.001  0.392979  0.000613  0.940893  0.0  0.405828  0.00029  0.922871  0.0  0.292041  0.383786  0.000876  0.95378  0.0
H  H11  1  0.13830534  0.52297437  0.20566655  1  0.42121  -0.000187  0.879661  -0.001  0.392957  0.000614  0.940926  0.0  0.405887  0.000291  0.922752  0.0  0.292037  0.383763  0.000876  0.953815  0.0
H  H12  1  0.14525403  0.66654880  0.49517894  1  0.13775  -7.1e-05  0.943461  0.0  0.140993  -1.8e-05  1.014022  0.0  0.146075  -1.9e-05  1.009442  0.0  0.112735  0.137315  -1.4e-05  1.017436  0.0
H  H13  1  0.85474492  0.33344918  0.50482268  1  0.137739  -6.9e-05  0.943505  0.0  0.141002  -1.8e-05  1.014042  0.0  0.146072  -1.9e-05  1.009493  0.0  0.112737  0.137323  -1.4e-05  1.017457  0.0
H  H14  1  0.96620202  0.91315119  0.21356051  1  0.131919  -8.6e-05  0.938643  0.0  0.139881  -4e-05  1.001512  0.0  0.143101  -3.6e-05  0.999761  0.0  0.111879  0.137582  -4.6e-05  1.002831  0.0
H  H15  1  0.03378476  0.08686146  0.78643751  1  0.131867  -8.3e-05  0.938738  0.0  0.139916  -4e-05  1.001494  0.0  0.143137  -3.6e-05  0.999729  0.0  0.11188  0.137621  -4.6e-05  1.00281  0.0
H  H16  1  0.65563518  0.90045025  0.32115309  1  0.100586  1e-05  0.965355  0.0  0.107344  -1e-05  1.031444  0.0  0.109451  -5e-06  1.031816  0.0  0.103172  0.105859  -1e-05  1.031276  0.0
H  H17  1  0.34435507  0.09954566  0.67884951  1  0.100526  1.1e-05  0.965503  0.0  0.10729  -1e-05  1.031567  0.0  0.109384  -5e-06  1.031979  0.0  0.103104  0.105801  -1e-05  1.031403  0.0
H  H18  1  0.14116347  0.05871766  0.30896921  1  0.127418  6.1e-05  0.92994  0.0  0.139527  -2e-06  0.983911  0.0  0.142707  -1e-05  0.98341  0.0  0.11418  0.137173  1.2e-05  0.984439  0.0
H  H19  1  0.85883111  0.94129512  0.69103403  1  0.127374  6e-05  0.930169  0.0  0.139554  -2e-06  0.984035  0.0  0.142735  -1e-05  0.983521  0.0  0.114195  0.1372  1.3e-05  0.984572  0.0
H  H20  1  0.33592323  0.23385171  0.21719867  1  0.108233  -0.000266  0.969712  0.0  0.117074  -9e-05  1.031125  0.0  0.1197  -7.9e-05  1.029966  0.0  0.111785  0.115004  -8.8e-05  1.032124  0.0
H  H21  1  0.66408641  0.76615140  0.78279794  1  0.108252  -0.000266  0.96963  0.0  0.117082  -9e-05  1.03106  0.0  0.11969  -7.9e-05  1.029946  0.0  0.111785  0.115012  -8.8e-05  1.03206  0.0
H  H22  1  0.86809557  0.96446694  0.98550830  1  0.114318  0.000449  0.960823  0.001  0.120735  6.2e-05  1.027154  0.0  0.124118  -1.1e-05  1.024095  0.0  0.11161  0.1185  0.000138  1.029263  0.0
H  H23  1  0.13191515  0.03553092  0.01448871  1  0.114334  0.000449  0.960842  0.001  0.120769  6.1e-05  1.027121  0.0  0.124154  -1.1e-05  1.024061  0.0  0.111613  0.118532  0.000138  1.029232  0.0
H  H24  1  0.93873669  0.71661598  0.93284128  1  0.121571  0.000517  0.938609  0.001  0.130456  0.000471  0.993309  0.0  0.134195  0.000315  0.991516  0.0  0.113434  0.127627  0.000643  0.995078  0.001
H  H25  1  0.06125687  0.28338290  0.06715375  1  0.121591  0.000517  0.938714  0.001  0.130501  0.000471  0.993381  0.0  0.134242  0.000315  0.991578  0.0  0.113436  0.127672  0.000643  0.995152  0.001
H  H26  1  0.72220978  0.55361945  0.02593711  1  0.099561  0.001787  0.953031  0.003  0.106295  0.001273  1.016081  0.002  0.108674  0.000817  1.01252  0.001  0.121165  0.104252  0.001705  1.018902  0.002
H  H27  1  0.27778225  0.44638680  0.97405736  1  0.099537  0.001788  0.953045  0.003  0.106272  0.001273  1.016091  0.002  0.108578  0.000816  1.012778  0.001  0.121158  0.104223  0.001705  1.018911  0.002
C  C28  1  0.83120669  0.61251684  0.62550594  1  0.638612  -0.004285  3.895369  -0.005  0.59685  4.8e-05  4.194669  -0.001  0.63235  -0.000302  4.189314  0.0  0.212675  0.57239  0.000399  4.197501  -0.001
C  C29  1  0.16878662  0.38748320  0.37449315  1  0.638671  -0.004289  3.895381  -0.005  0.596876  4.9e-05  4.194736  -0.001  0.632464  -0.000302  4.188933  0.0  0.212702  0.572414  0.0004  4.197565  -0.001
C  C30  1  0.86294035  0.70686518  0.51631667  1  -0.048021  0.008517  3.731634  0.009  -0.033603  0.00426  3.962456  0.005  -0.039623  0.00294  3.984737  0.003  -0.010741  -0.029768  0.00542  3.947807  0.006
C  C31  1  0.13705686  0.29313493  0.48368586  1  -0.048086  0.008523  3.731542  0.009  -0.033639  0.004262  3.962357  0.005  -0.039653  0.00294  3.984657  0.003  -0.010744  -0.029805  0.005421  3.947707  0.006
C  C32  1  0.03714378  0.71844490  0.45797603  1  -0.159372  -0.000195  3.696688  0.0  -0.19767  0.000496  3.957119  0.001  -0.199573  0.000162  3.97401  0.0  -0.086009  -0.196241  0.000778  3.945684  0.001
C  C33  1  0.96284973  0.28154784  0.54202634  1  -0.159405  -0.000206  3.696821  0.0  -0.19772  0.000493  3.95726  0.001  -0.199655  0.000162  3.974225  0.0  -0.08599  -0.196292  0.000778  3.945839  0.001
C  C34  1  0.07225299  0.79117585  0.34964791  1  0.271621  0.001169  3.780864  0.001  0.262739  0.000149  4.047034  0.0  0.271087  0.000101  4.062864  0.0  0.085239  0.256903  0.000262  4.035803  0.0
C  C35  1  0.92774118  0.20882004  0.65035398  1  0.271637  0.001173  3.78119  0.001  0.262699  0.000152  4.047454  0.0  0.270983  0.0001  4.063576  0.0  0.085124  0.256851  0.000262  4.036226  0.0
C  C36  1  0.93722530  0.85718743  0.29871472  1  -0.146733  4.2e-05  3.693411  0.0  -0.172524  -0.000178  3.949663  0.0  -0.175011  -0.000338  3.967217  0.0  -0.08737  -0.170694  3e-05  3.937732  0.0
C  C37  1  0.06276432  0.14281154  0.70128350  1  -0.146549  3.6e-05  3.693204  0.0  -0.172377  -0.000181  3.949425  0.0  -0.174866  -0.000338  3.966943  0.0  -0.087213  -0.170547  2.9e-05  3.937502  0.0
C  C38  1  0.76281583  0.84839221  0.35902658  1  -0.045233  2.1e-05  3.720164  0.0  -0.069749  3.6e-05  3.974664  0.0  -0.069885  8e-05  3.994344  0.0  -0.082045  -0.069596  2.1e-05  3.961246  0.0
C  C39  1  0.23718925  0.15159507  0.64096850  1  -0.045358  1.6e-05  3.71995  0.0  -0.069885  3.7e-05  3.97449  0.0  -0.070028  8e-05  3.994137  0.0  -0.082098  -0.06973  2.1e-05  3.961075  0.0
C  C40  1  0.72390636  0.77326211  0.46684001  1  -0.07505  0.000563  3.707579  0.0  -0.062649  0.000128  3.94004  0.0  -0.066698  -9.9e-05  3.958972  0.0  -0.009384  -0.060043  0.000369  3.927475  0.0
C  C41  1  0.27609783  0.22673581  0.53315901  1  -0.074941  0.000565  3.707447  0.0  -0.062527  0.00013  3.939906  0.0  -0.066574  -9.9e-05  3.958841  0.0  -0.00931  -0.059924  0.000369  3.927341  0.0
C  C42  1  0.53436420  0.76445477  0.52758653  1  0.706537  2.7e-05  3.762234  0.0  0.650416  0.000343  4.067715  0.0  0.686841  0.000204  4.053804  0.0  0.249762  0.625397  0.000578  4.076746  0.0
C  C43  1  0.46564085  0.23553898  0.47241446  1  0.706841  2e-05  3.761799  0.0  0.650695  0.000341  4.067306  0.0  0.687126  0.000204  4.053402  0.0  0.249905  0.625679  0.000578  4.076332  0.0
C  C44  1  0.49832130  0.84126278  0.15193234  1  0.105004  -0.003547  3.73183  -0.002  0.101414  0.000801  3.977751  0.001  0.105672  -0.00066  4.00028  0.0  0.108667  0.098691  0.001941  3.962021  0.002
C  C45  1  0.50167633  0.15873524  0.84807118  1  0.105077  -0.003567  3.731656  -0.002  0.101475  0.000796  3.97758  0.001  0.105631  -0.000659  4.000587  0.0  0.108713  0.098751  0.001941  3.961857  0.002
C  C46  1  0.33225969  0.88494123  0.23240405  1  0.230961  0.00405  3.763135  0.004  0.213154  0.001335  4.032532  0.002  0.223843  0.001361  4.045466  0.002  0.096742  0.205864  0.001339  4.023353  0.002
C  C47  1  0.66774272  0.11506523  0.76760014  1  0.230813  0.004062  3.763188  0.004  0.213001  0.001338  4.032613  0.002  0.223613  0.001362  4.045891  0.002  0.096655  0.205695  0.001339  4.023444  0.002
C  C48  1  0.27101902  0.02491583  0.25149328  1  -0.163602  -0.005875  3.713683  -0.004  -0.187944  -0.001723  3.973293  -0.001  -0.193512  -0.002174  3.991038  -0.001  -0.093171  -0.184275  -0.001379  3.96139  -0.001
C  C49  1  0.72897862  0.97508848  0.74850869  1  -0.163522  -0.005891  3.713918  -0.004  -0.187925  -0.001726  3.973488  -0.001  -0.193495  -0.002176  3.991193  -0.001  -0.09314  -0.184254  -0.001379  3.961586  -0.001
C  C50  1  0.38160878  0.12397822  0.19957496  1  -0.020323  0.003171  3.777782  0.003  -0.048408  0.000555  4.036759  0.001  -0.044452  0.000774  4.055194  0.001  -0.080764  -0.05069  0.000358  4.024349  0.0
C  C51  1  0.61839431  0.87602497  0.80042449  1  -0.020309  0.003176  3.777876  0.003  -0.048401  0.000553  4.036812  0.001  -0.044445  0.000777  4.055213  0.001  -0.08075  -0.050677  0.000359  4.024399  0.0
C  C52  1  0.55079197  0.08478696  0.13141916  1  -0.188707  -0.004408  3.697196  -0.003  -0.17422  -0.000703  3.95406  0.0  -0.182877  -0.001346  3.976504  -0.001  -0.030511  -0.168961  -6e-06  3.939626  0.0
C  C53  1  0.44921113  0.91521617  0.86857780  1  -0.188811  -0.004414  3.697267  -0.003  -0.17419  -0.000699  3.953909  0.0  -0.182848  -0.001352  3.976311  -0.001  -0.030556  -0.168936  -6e-06  3.939475  0.0
C  C54  1  0.61224682  0.94214741  0.10166924  1  0.028974  0.007778  3.763662  0.009  0.038666  0.00319  3.99611  0.004  0.036983  0.002678  4.021168  0.004  0.002237  0.039465  0.003687  3.979447  0.005
C  C55  1  0.38775321  0.05785165  0.89833372  1  0.02906  0.007791  3.763679  0.009  0.038692  0.003192  3.996152  0.004  0.037006  0.002678  4.021179  0.004  0.002291  0.039495  0.003687  3.979484  0.005
C  C56  1  0.77669085  0.89207050  0.02457030  1  -0.030017  -0.016542  3.653622  -0.01  -0.060584  -0.005155  3.911463  -0.003  -0.056895  -0.005876  3.92761  -0.003  -0.062014  -0.063377  -0.004613  3.900858  -0.003
C  C57  1  0.22330985  0.10793164  0.97542888  1  -0.030065  -0.016566  3.653795  -0.01  -0.060637  -0.005162  3.911681  -0.003  -0.056947  -0.005877  3.927791  -0.003  -0.062077  -0.063432  -0.004613  3.901078  -0.003
C  C58  1  0.81638367  0.75425954  0.99595136  1  -0.097968  0.011444  3.697546  0.013  -0.108233  0.004038  3.947639  0.005  -0.114841  0.003485  3.965118  0.004  -0.078806  -0.104269  0.004552  3.936443  0.005
C  C59  1  0.18360919  0.24574268  0.00405089  1  -0.098037  0.011456  3.697739  0.013  -0.108322  0.004041  3.947822  0.005  -0.114932  0.003487  3.965295  0.004  -0.078803  -0.104358  0.004552  3.936623  0.005
C  C60  1  0.69693798  0.66250919  0.04783415  1  0.170599  -0.016024  3.640806  -0.01  0.137803  -0.004358  3.90008  -0.003  0.151096  -0.006292  3.912428  -0.004  0.06627  0.129337  -0.002836  3.890852  -0.001
C  C61  1  0.30305034  0.33749607  0.95216276  1  0.170639  -0.01604  3.640789  -0.01  0.137828  -0.004358  3.900056  -0.003  0.15092  -0.006295  3.91323  -0.004  0.066286  0.129373  -0.002836  3.890813  -0.001
S  S62  1  0.69334828  0.21337873  0.10372863  1  1.312223  9.2e-05  5.604804  0.0  1.217212  4.7e-05  6.125402  0.0  1.266075  -7.5e-05  6.10071  0.0  0.514793  1.183178  0.000181  6.141817  0.0
S  S63  1  0.30665960  0.78662025  0.89627125  1  1.312053  9.3e-05  5.604946  0.0  1.217008  4.1e-05  6.125557  0.0  1.265856  -7.5e-05  6.10107  0.0  0.514726  1.182975  0.000181  6.141971  0.0
N  N64  1  0.54556081  0.70394175  0.12518677  1  -0.325767  0.079123  3.3175  0.103  -0.289779  0.049882  3.619829  0.069  -0.319343  0.039453  3.640045  0.059  -0.346848  -0.270319  0.057071  3.604874  0.075
N  N65  1  0.45443358  0.29605937  0.87481366  1  -0.325797  0.079139  3.317327  0.103  -0.289737  0.049884  3.619582  0.069  -0.320342  0.039455  3.639938  0.059  -0.346853  -0.270284  0.057075  3.604635  0.075
O  O66  1  0.67680700  0.57587485  0.65269776  1  -0.626512  0.085505  2.140725  0.12  -0.607353  0.046958  2.441159  0.072  -0.650819  0.033963  2.432844  0.057  -0.331974  -0.576765  0.056692  2.444743  0.082
O  O67  1  0.32319524  0.42411986  0.34729948  1  -0.626485  0.085524  2.140572  0.12  -0.607325  0.046965  2.441026  0.072  -0.649598  0.033972  2.433522  0.057  -0.331952  -0.576733  0.056698  2.444598  0.082
O  O68  1  0.94877915  0.57434461  0.67940786  1  -0.574373  -0.002253  1.91601  -0.001  -0.528426  -0.001385  2.120438  -0.001  -0.551858  -0.001843  2.111461  -0.001  -0.307325  -0.511996  -0.000855  2.126237  0.0
O  O69  1  0.05121437  0.42564811  0.32059368  1  -0.574433  -0.002255  1.916066  -0.001  -0.528481  -0.001388  2.120501  -0.001  -0.551867  -0.001843  2.111426  -0.001  -0.307398  -0.512052  -0.000856  2.126301  0.0
O  O70  1  0.46807897  0.85037162  0.61191888  1  -0.542868  0.000385  2.162067  0.001  -0.491618  0.000264  2.38563  0.0  -0.516151  0.00012  2.373568  0.0  -0.31577  -0.474433  0.000391  2.39351  0.001
O  O71  1  0.53191975  0.14962117  0.38808586  1  -0.543056  0.000388  2.16224  0.001  -0.491761  0.000264  2.385802  0.0  -0.516289  0.00012  2.373735  0.0  -0.3158  -0.474589  0.000391  2.39371  0.001
O  O72  1  0.44660152  0.69039092  0.49733719  1  -0.566207  0.000687  1.979084  0.001  -0.514834  0.000502  2.191455  0.001  -0.537064  0.000133  2.178698  0.0  -0.273115  -0.499214  0.000946  2.19979  0.001
O  O73  1  0.55341156  0.30960815  0.50266673  1  -0.566357  0.000688  1.97862  0.001  -0.515005  0.000501  2.191049  0.001  -0.537257  0.000132  2.178346  0.0  -0.273216  -0.499368  0.000946  2.19936  0.001
O  O74  1  0.25000174  0.77686110  0.28992231  1  -0.314882  -0.000448  2.530387  0.002  -0.248968  -0.001293  2.778103  0.0  -0.267824  -0.001609  2.777747  0.0  -0.146564  -0.235057  -0.000803  2.777595  0.001
O  O75  1  0.74999614  0.22314210  0.71007725  1  -0.314802  -0.000447  2.530553  0.002  -0.248883  -0.001292  2.778267  0.0  -0.268495  -0.001614  2.777912  0.0  -0.14651  -0.234942  -0.000803  2.777742  0.001
O  O76  1  0.57829483  0.35073343  0.11559927  1  -0.67006  -0.001201  2.03094  0.001  -0.633491  -0.001612  2.31237  0.0  -0.654775  -0.001972  2.294118  0.0  -0.339539  -0.618388  -0.001237  2.324363  0.0
O  O77  1  0.42171803  0.64926668  0.88440374  1  -0.669919  -0.001197  2.030809  0.001  -0.633388  -0.001607  2.312263  0.0  -0.655578  -0.001978  2.293413  0.0  -0.339507  -0.618283  -0.001236  2.324247  0.0
O  O78  1  0.81240922  0.19819704  0.98637310  1  -0.673834  0.000931  1.991213  0.001  -0.618299  0.00046  2.237818  0.001  -0.639956  0.000164  2.224888  0.0  -0.333007  -0.602397  0.000773  2.246244  0.001
O  O79  1  0.18759455  0.80180289  0.01362244  1  -0.673839  0.00093  1.991285  0.001  -0.618282  0.000461  2.237872  0.001  -0.639937  0.000164  2.224891  0.0  -0.332983  -0.602385  0.000774  2.246304  0.001
O  O80  1  0.79119734  0.17529160  0.19487418  1  -0.67346  1e-05  1.890647  0.0  -0.619256  6e-06  2.123647  0.0  -0.640835  -6.1e-05  2.109366  0.0  -0.344197  -0.603845  0.000163  2.133089  0.0
O  O81  1  0.20880772  0.82469581  0.80512587  1  -0.673432  6e-06  1.890847  0.0  -0.61923  5e-06  2.123855  0.0  -0.640814  -6e-05  2.109555  0.0  -0.344211  -0.603823  0.000163  2.133296  0.0
O  O82  1  0.38516528  0.45732127  0.68658684  1  -0.776868  0.05756  1.91167  0.079  -0.748089  0.0442  2.11859  0.065  -0.777875  0.033876  2.08859  0.054  -0.566934  -0.727995  0.050508  2.139265  0.07
O  O83  1  0.61483021  0.54267455  0.31341233  1  -0.77672  0.057554  1.911793  0.079  -0.747962  0.044195  2.118722  0.065  -0.776697  0.033879  2.089509  0.054  -0.566914  -0.727864  0.0505  2.139394  0.07
O  O84  1  0.76203535  0.44318794  0.85738130  1  -0.799873  0.072889  1.982188  0.1  -0.770599  0.050623  2.196838  0.074  -0.806418  0.037653  2.162504  0.06  -0.571649  -0.746054  0.059332  2.220099  0.082
O  O85  1  0.23796796  0.55681420  0.14261823  1  -0.799824  0.07289  1.982285  0.1  -0.770599  0.050625  2.196884  0.074  -0.805312  0.037662  2.163472  0.06  -0.571606  -0.74605  0.059335  2.22014  0.082
