# generated using pymatgen
data_ZnH8C6N2(ClO)2
_symmetry_space_group_name_H-M   'P 1'
_cell_length_a   4.87825900
_cell_length_b   9.97315035
_cell_length_c   10.37860210
_cell_angle_alpha   90.00006905
_cell_angle_beta   90.00024139
_cell_angle_gamma   102.33932076
_symmetry_Int_Tables_number   1
_chemical_formula_structural   ZnH8C6N2(ClO)2
_chemical_formula_sum   'Zn2 H16 C12 N4 Cl4 O4'
_cell_volume   493.27126023
_cell_formula_units_Z   2
loop_
 _symmetry_equiv_pos_site_id
 _symmetry_equiv_pos_as_xyz
  1  'x, y, z'
loop_
 _atom_site_type_symbol
 _atom_site_label
 _atom_site_symmetry_multiplicity
 _atom_site_fract_x
 _atom_site_fract_y
 _atom_site_fract_z
 _atom_site_occupancy
 _atom_site_hle17_bader_spin_density
 _atom_site_hle17_ddec_charge
 _atom_site_hle17_ddec_spin_density
 _atom_site_hle17_ddec_sum_bond_order
 _atom_site_hle17_magmom
 _atom_site_hse06_10hf_bader_spin_density
 _atom_site_hse06_10hf_ddec_charge
 _atom_site_hse06_10hf_ddec_spin_density
 _atom_site_hse06_10hf_ddec_sum_bond_order
 _atom_site_hse06_10hf_magmom
 _atom_site_hse06_bader_spin_density
 _atom_site_hse06_ddec_charge
 _atom_site_hse06_ddec_spin_density
 _atom_site_hse06_ddec_sum_bond_order
 _atom_site_hse06_magmom
 _atom_site_pbe_bader_spin_density
 _atom_site_pbe_cm5_charge
 _atom_site_pbe_ddec_charge
 _atom_site_pbe_ddec_spin_density
 _atom_site_pbe_ddec_sum_bond_order
 _atom_site_pbe_magmom
Zn  Zn0  1  0.96874218  0.06833829  0.23724489  1  0  1.007411  0  1.99238  0  0  0.851237  0  2.485961  0  0  0.896735  0  2.427076  0  0  0.551295  0.818513  0  2.526915  0
Zn  Zn1  1  0.96874283  0.56833541  0.76275140  1  0  1.007383  0  1.992413  0  0  0.851193  0  2.485957  0  0  0.896717  0  2.427091  0  0  0.551281  0.818491  0  2.526925  0
H  H2  1  0.53344152  0.37199228  0.05851055  1  0  0.116126  0  0.932959  0  0  0.135252  0  0.993501  0  0  0.13619  0  0.993366  0  0  0.105611  0.134315  0  0.994028  0
H  H3  1  0.53343941  0.87198879  0.94149006  1  0  0.116162  0  0.932874  0  0  0.13528  0  0.993427  0  0  0.13622  0  0.99329  0  0  0.10563  0.134344  0  0.993954  0
H  H4  1  0.50380451  0.26394855  0.19830578  1  0  0.11007  0  0.967908  0  0  0.123594  0  1.043577  0  0  0.124673  0  1.042756  0  0  0.097439  0.123296  0  1.043221  0
H  H5  1  0.50380326  0.76394987  0.80169272  1  0  0.110113  0  0.967926  0  0  0.123644  0  1.043565  0  0  0.124721  0  1.042749  0  0  0.097465  0.123346  0  1.04321  0
H  H6  1  0.83121411  0.37405041  0.15872472  1  0  0.10446  0  0.967753  0  0  0.116784  0  1.043084  0  0  0.11761  0  1.042898  0  0  0.093294  0.115907  0  1.043493  0
H  H7  1  0.83121280  0.87405080  0.84127358  1  0  0.1045  0  0.967717  0  0  0.116819  0  1.043048  0  0  0.117644  0  1.042863  0  0  0.093289  0.115942  0  1.043457  0
H  H8  1  0.70737000  0.43540671  0.41696558  1  0  0.134129  0  0.945361  0  0  0.141981  0  1.006441  0  0  0.145116  0  1.004827  0  0  0.122832  0.139664  0  1.007748  0
H  H9  1  0.70736201  0.93540651  0.58303641  1  0  0.134113  0  0.945335  0  0  0.141962  0  1.006422  0  0  0.145095  0  1.00481  0  0  0.12285  0.139644  0  1.007729  0
H  H10  1  0.47003159  0.65622825  0.49073071  1  0  0.131497  0  0.963826  0  0  0.135532  0  1.031559  0  0  0.138726  0  1.029563  0  0  0.118072  0.133067  0  1.033508  0
H  H11  1  0.47002526  0.15622662  0.50926856  1  0  0.13154  0  0.963837  0  0  0.135586  0  1.031552  0  0  0.138781  0  1.029555  0  0  0.11808  0.13312  0  1.033501  0
H  H12  1  0.30431683  0.57055033  0.09386202  1  0  0.122966  0  0.969539  0  0  0.127658  0  1.038983  0  0  0.131296  0  1.034576  0  0  0.131061  0.124783  0  1.042596  0
H  H13  1  0.30431173  0.07055269  0.90613779  1  0  0.123004  0  0.969535  0  0  0.127648  0  1.039019  0  0  0.131284  0  1.034618  0  0  0.131039  0.124772  0  1.042633  0
H  H14  1  0.08677506  0.76547607  0.36731975  1  0  0.132665  0  0.943604  0  0  0.140659  0  1.009824  0  0  0.143504  0  1.008515  0  0  0.113266  0.137799  0  1.012108  0
H  H15  1  0.08677292  0.26547677  0.63267889  1  0  0.132688  0  0.943548  0  0  0.140658  0  1.009805  0  0  0.143503  0  1.008496  0  0  0.113254  0.137802  0  1.012092  0
H  H16  1  0.07339201  0.74765138  0.19715133  1  0  0.132879  0  0.927658  0  0  0.142918  0  0.990003  0  0  0.145622  0  0.988567  0  0  0.117361  0.140154  0  0.992241  0
H  H17  1  0.07339363  0.24765248  0.80284822  1  0  0.132883  0  0.927651  0  0  0.142933  0  0.989989  0  0  0.145636  0  0.988552  0  0  0.117372  0.140174  0  0.992232  0
C  C18  1  0.60372964  0.36356655  0.15746228  1  0  -0.184938  0  3.651624  0  0  -0.291896  0  3.907275  0  0  -0.288999  0  3.916667  0  0  -0.141116  -0.293605  0  3.900468  0
C  C19  1  0.60372789  0.86356591  0.84253749  1  0  -0.185106  0  3.651592  0  0  -0.292056  0  3.907267  0  0  -0.28916  0  3.916656  0  0  -0.141179  -0.293756  0  3.90044  0
C  C20  1  0.58885533  0.49710157  0.36342939  1  0  -0.031046  0  3.621742  0  0  -0.076093  0  3.887427  0  0  -0.074692  0  3.905014  0  0  0.015695  -0.077069  0  3.87582  0
C  C21  1  0.58884492  0.99709944  0.63657147  1  0  -0.03092  0  3.621567  0  0  -0.075958  0  3.887266  0  0  -0.074557  0  3.90485  0  0  0.015698  -0.076934  0  3.87566  0
C  C22  1  0.47412268  0.60516116  0.39896206  1  0  -0.022274  0  3.629603  0  0  -0.069913  0  3.902114  0  0  -0.067147  0  3.918492  0  0  0.016484  -0.072227  0  3.891946  0
C  C23  1  0.47411068  0.10515872  0.60103812  1  0  -0.022458  0  3.629685  0  0  -0.070113  0  3.902207  0  0  -0.067344  0  3.918584  0  0  0.016433  -0.072426  0  3.892038  0
C  C24  1  0.38247280  0.56287686  0.19113434  1  0  0.136142  0  3.520025  0  0  0.064218  0  3.778739  0  0  0.079432  0  3.787815  0  0  0.167776  0.055159  0  3.772487  0
C  C25  1  0.38246833  0.06287797  0.80886657  1  0  0.136022  0  3.520199  0  0  0.064167  0  3.778873  0  0  0.079376  0  3.787958  0  0  0.167779  0.055107  0  3.772622  0
C  C26  1  0.21449462  0.76175103  0.28075908  1  0  -0.181818  0  3.604249  0  0  -0.237443  0  3.84289  0  0  -0.239792  0  3.849599  0  0  -0.053283  -0.23499  0  3.838796  0
C  C27  1  0.21449085  0.26175091  0.71924077  1  0  -0.181821  0  3.604217  0  0  -0.23745  0  3.842868  0  0  -0.239793  0  3.849566  0  0  -0.053295  -0.235025  0  3.838811  0
C  C28  1  0.42772562  0.89748526  0.26706774  1  0  0.708803  0  3.813592  0  0  0.660901  0  4.10603  0  0  0.695433  0  4.098454  0  0  0.227003  0.637156  0  4.110467  0
C  C29  1  0.42772358  0.39748414  0.73293173  1  0  0.708837  0  3.813625  0  0  0.660946  0  4.106048  0  0  0.69548  0  4.098473  0  0  0.227025  0.637209  0  4.110486  0
N  N30  1  0.52869837  0.47285045  0.23411036  1  0  0.009269  0  3.598689  0  0  0.106888  0  3.819896  0  0  0.093257  0  3.84654  0  0  -0.231326  0.11564  0  3.801586  0
N  N31  1  0.52869175  0.97284964  0.76589228  1  0  0.009379  0  3.598656  0  0  0.106969  0  3.819872  0  0  0.093344  0  3.846516  0  0  -0.231326  0.115721  0  3.801564  0
N  N32  1  0.34494767  0.64386794  0.29054466  1  0  -0.014186  0  3.585054  0  0  0.073151  0  3.809576  0  0  0.059937  0  3.835071  0  0  -0.228883  0.081789  0  3.791633  0
N  N33  1  0.34493925  0.14386677  0.70945531  1  0  -0.014154  0  3.585096  0  0  0.073194  0  3.809586  0  0  0.059981  0  3.835082  0  0  -0.228829  0.081841  0  3.791645  0
Cl  Cl34  1  0.93689412  0.13672061  0.03328487  1  0  -0.579501  0  0.940401  0  0  -0.514609  0  1.213014  0  0  -0.531897  0  1.189132  0  0  -0.299098  -0.501814  0  1.230721  0
Cl  Cl35  1  0.93690202  0.63672539  0.96671144  1  0  -0.57949  0  0.940377  0  0  -0.514596  0  1.212984  0  0  -0.531894  0  1.189113  0  0  -0.299092  -0.50181  0  1.230697  0
Cl  Cl36  1  0.01069891  0.23059825  0.38904772  1  0  -0.58431  0  0.945309  0  0  -0.51866  0  1.220784  0  0  -0.535934  0  1.197891  0  0  -0.299058  -0.505577  0  1.237511  0
Cl  Cl37  1  0.01069640  0.73060529  0.61095555  1  0  -0.584328  0  0.945303  0  0  -0.518663  0  1.220745  0  0  -0.535938  0  1.197854  0  0  -0.299085  -0.505594  0  1.237485  0
O  O38  1  0.33916748  0.00671783  0.25177317  1  0  -0.633081  0  2.106579  0  0  -0.5666  0  2.382831  0  0  -0.595186  0  2.367328  0  0  -0.313011  -0.54624  0  2.392008  0
O  O39  1  0.33916888  0.50671698  0.74822567  1  0  -0.633084  0  2.106596  0  0  -0.566636  0  2.382873  0  0  -0.595229  0  2.367386  0  0  -0.313035  -0.546279  0  2.392056  0
O  O40  1  0.68674171  0.89348295  0.27219681  1  0  -0.615263  0  2.06132  0  0  -0.545553  0  2.324973  0  0  -0.57388  0  2.311512  0  0  -0.3114  -0.525711  0  2.333846  0
O  O41  1  0.68674122  0.39348080  0.72780219  1  0  -0.615261  0  2.061337  0  0  -0.545532  0  2.324977  0  0  -0.573868  0  2.311523  0  0  -0.311368  -0.525697  0  2.333853  0
