# generated using pymatgen
data_H4PbC3BrO2
_symmetry_space_group_name_H-M   'P 1'
_cell_length_a   9.00555362
_cell_length_b   9.00556045
_cell_length_c   14.23316998
_cell_angle_alpha   89.97068553
_cell_angle_beta   89.98240534
_cell_angle_gamma   89.98762175
_symmetry_Int_Tables_number   1
_chemical_formula_structural   H4PbC3BrO2
_chemical_formula_sum   'H32 Pb8 C24 Br8 O16'
_cell_volume   1154.31067147
_cell_formula_units_Z   8
loop_
 _symmetry_equiv_pos_site_id
 _symmetry_equiv_pos_as_xyz
  1  'x, y, z'
loop_
 _atom_site_type_symbol
 _atom_site_label
 _atom_site_symmetry_multiplicity
 _atom_site_fract_x
 _atom_site_fract_y
 _atom_site_fract_z
 _atom_site_occupancy
 _atom_site_hle17_bader_spin_density
 _atom_site_hle17_ddec_charge
 _atom_site_hle17_ddec_spin_density
 _atom_site_hle17_ddec_sum_bond_order
 _atom_site_hle17_magmom
 _atom_site_hse06_10hf_bader_spin_density
 _atom_site_hse06_10hf_ddec_charge
 _atom_site_hse06_10hf_ddec_spin_density
 _atom_site_hse06_10hf_ddec_sum_bond_order
 _atom_site_hse06_10hf_magmom
 _atom_site_hse06_bader_spin_density
 _atom_site_hse06_ddec_charge
 _atom_site_hse06_ddec_spin_density
 _atom_site_hse06_ddec_sum_bond_order
 _atom_site_hse06_magmom
 _atom_site_pbe_bader_spin_density
 _atom_site_pbe_cm5_charge
 _atom_site_pbe_ddec_charge
 _atom_site_pbe_ddec_spin_density
 _atom_site_pbe_ddec_sum_bond_order
 _atom_site_pbe_magmom
H  H0  1  0.51587191  0.21069278  0.38209616  1  0  0.113032  0  0.943612  0  0  0.127142  0  1.006134  0  0  0.129401  0  1.005568  0  0  0.101007  0.12558  0  1.006497  0
H  H1  1  0.48440107  0.78956108  0.88193039  1  0  0.11315  0  0.943357  0  0  0.127277  0  1.005958  0  0  0.129522  0  1.005394  0  0  0.101171  0.125725  0  1.006317  0
H  H2  1  0.28933699  0.01578497  0.63201733  1  0  0.11292  0  0.943829  0  0  0.127012  0  1.006338  0  0  0.129245  0  1.005794  0  0  0.101153  0.125463  0  1.006707  0
H  H3  1  0.71054562  0.98428736  0.13200464  1  0  0.112852  0  0.943604  0  0  0.127049  0  1.006114  0  0  0.129273  0  1.005598  0  0  0.101136  0.125497  0  1.006468  0
H  H4  1  0.98416359  0.71064331  0.86801148  1  0  0.112872  0  0.943539  0  0  0.126873  0  1.006127  0  0  0.129106  0  1.005601  0  0  0.101082  0.125327  0  1.00649  0
H  H5  1  0.01581412  0.28943250  0.36797054  1  0  0.112852  0  0.943824  0  0  0.127087  0  1.006283  0  0  0.129322  0  1.005759  0  0  0.101182  0.125531  0  1.006642  0
H  H6  1  0.21056978  0.51581509  0.61798573  1  0  0.112994  0  0.943442  0  0  0.127076  0  1.005947  0  0  0.129307  0  1.005428  0  0  0.101225  0.125525  0  1.006311  0
H  H7  1  0.78941944  0.48419034  0.11801081  1  0  0.112728  0  0.943876  0  0  0.126837  0  1.006423  0  0  0.129072  0  1.005885  0  0  0.101012  0.125291  0  1.006783  0
H  H8  1  0.50225491  0.35220674  0.29663730  1  0  0.101058  0  0.964743  0  0  0.112017  0  1.033092  0  0  0.114594  0  1.031998  0  0  0.084076  0.11012  0  1.033997  0
H  H9  1  0.49779754  0.64791758  0.79653734  1  0  0.101534  0  0.964924  0  0  0.112612  0  1.033118  0  0  0.115204  0  1.031996  0  0  0.084245  0.110697  0  1.034054  0
H  H10  1  0.14769692  0.00226891  0.54662889  1  0  0.101293  0  0.964512  0  0  0.11246  0  1.032607  0  0  0.115048  0  1.031481  0  0  0.084269  0.110589  0  1.033502  0
H  H11  1  0.85212930  0.99784477  0.04662841  1  0  0.101356  0  0.96441  0  0  0.11236  0  1.032806  0  0  0.11493  0  1.031721  0  0  0.08427  0.110487  0  1.03369  0
H  H12  1  0.99779489  0.85211016  0.95349813  1  0  0.101303  0  0.964647  0  0  0.112277  0  1.032896  0  0  0.114864  0  1.031792  0  0  0.084149  0.11041  0  1.033786  0
H  H13  1  0.00219913  0.14785740  0.45337497  1  0  0.101332  0  0.964405  0  0  0.112391  0  1.032742  0  0  0.11497  0  1.031652  0  0  0.084311  0.110519  0  1.033623  0
H  H14  1  0.35205578  0.50227093  0.70347548  1  0  0.101633  0  0.964656  0  0  0.112655  0  1.032859  0  0  0.115252  0  1.031744  0  0  0.084186  0.110737  0  1.033794  0
H  H15  1  0.64782086  0.49777946  0.20340377  1  0  0.101232  0  0.965021  0  0  0.112216  0  1.033329  0  0  0.11479  0  1.032246  0  0  0.084098  0.110349  0  1.034212  0
H  H16  1  0.76289063  0.29831396  0.35460216  1  0  0.068567  0  0.941657  0  0  0.089844  0  0.998702  0  0  0.090347  0  0.999568  0  0  0.088659  0.089376  0  0.998246  0
H  H17  1  0.23733673  0.70175240  0.85458893  1  0  0.068795  0  0.942315  0  0  0.089951  0  0.999337  0  0  0.090482  0  1.000189  0  0  0.088576  0.089468  0  0.998881  0
H  H18  1  0.20170808  0.26286586  0.60462863  1  0  0.06871  0  0.941981  0  0  0.089986  0  0.998949  0  0  0.090498  0  0.999818  0  0  0.088687  0.089514  0  0.998492  0
H  H19  1  0.79825419  0.73730878  0.10458687  1  0  0.068868  0  0.942183  0  0  0.090109  0  0.999065  0  0  0.090635  0  0.999918  0  0  0.088678  0.089628  0  0.99861  0
H  H20  1  0.73715947  0.79818302  0.89544214  1  0  0.068643  0  0.942147  0  0  0.089664  0  0.99931  0  0  0.090175  0  1.00018  0  0  0.088548  0.089183  0  0.998853  0
H  H21  1  0.26280396  0.20175133  0.39549669  1  0  0.069065  0  0.941649  0  0  0.09018  0  0.998647  0  0  0.090714  0  0.999487  0  0  0.088798  0.089698  0  0.998188  0
H  H22  1  0.29821965  0.76278684  0.64545355  1  0  0.068928  0  0.942246  0  0  0.090005  0  0.999315  0  0  0.090535  0  1.000156  0  0  0.088617  0.089519  0  0.998866  0
H  H23  1  0.70169645  0.23715050  0.14545487  1  0  0.068732  0  0.941555  0  0  0.090055  0  0.998451  0  0  0.090583  0  0.999307  0  0  0.08867  0.089572  0  0.997994  0
H  H24  1  0.75101730  0.11704454  0.30899739  1  0  0.058146  0  0.955089  0  0  0.072109  0  1.027941  0  0  0.073324  0  1.027637  0  0  0.080706  0.071271  0  1.028156  0
H  H25  1  0.24900739  0.88303342  0.80902414  1  0  0.058247  0  0.955197  0  0  0.072366  0  1.027805  0  0  0.073619  0  1.027475  0  0  0.080831  0.071492  0  1.028049  0
H  H26  1  0.38297684  0.25099726  0.55905082  1  0  0.058285  0  0.954837  0  0  0.072262  0  1.027705  0  0  0.073495  0  1.027388  0  0  0.080773  0.071403  0  1.027941  0
H  H27  1  0.61698277  0.74898811  0.05897396  1  0  0.058209  0  0.955232  0  0  0.072253  0  1.027939  0  0  0.073479  0  1.027646  0  0  0.080707  0.071414  0  1.028154  0
H  H28  1  0.74893315  0.61696616  0.94105703  1  0  0.058405  0  0.954801  0  0  0.072402  0  1.027444  0  0  0.073636  0  1.027135  0  0  0.080635  0.071553  0  1.02767  0
H  H29  1  0.25107852  0.38301861  0.44110196  1  0  0.05827  0  0.954964  0  0  0.072178  0  1.027727  0  0  0.073396  0  1.027432  0  0  0.080698  0.071335  0  1.027937  0
H  H30  1  0.11697142  0.75109885  0.69103895  1  0  0.058508  0  0.954849  0  0  0.072468  0  1.02751  0  0  0.073697  0  1.027199  0  0  0.080732  0.07162  0  1.027741  0
H  H31  1  0.88298730  0.24904774  0.19106230  1  0  0.058327  0  0.954923  0  0  0.072349  0  1.027607  0  0  0.073573  0  1.027307  0  0  0.080782  0.071501  0  1.027822  0
Pb  Pb32  1  0.30171732  0.91223558  0.12627572  1  0  1.246043  0  1.554138  0  0  1.069208  0  1.978852  0  0  1.131452  0  1.934721  0  0  0.518606  1.022112  0  2.013261  0
Pb  Pb33  1  0.69830492  0.08788106  0.62612906  1  0  1.246395  0  1.553475  0  0  1.069365  0  1.978099  0  0  1.131647  0  1.933925  0  0  0.519143  1.022311  0  2.012422  0
Pb  Pb34  1  0.58809365  0.80116843  0.37684738  1  0  1.245768  0  1.553294  0  0  1.068872  0  1.977956  0  0  1.13115  0  1.933824  0  0  0.518698  1.021721  0  2.012435  0
Pb  Pb35  1  0.41220781  0.19836570  0.87610677  1  0  1.246382  0  1.554246  0  0  1.069461  0  1.978929  0  0  1.131715  0  1.934786  0  0  0.51881  1.02242  0  2.013235  0
Pb  Pb36  1  0.19895275  0.41226178  0.12343466  1  0  1.245956  0  1.55217  0  0  1.069049  0  1.976605  0  0  1.131297  0  1.932529  0  0  0.51907  1.021919  0  2.01105  0
Pb  Pb37  1  0.80181102  0.58756910  0.62396421  1  0  1.246625  0  1.555724  0  0  1.069741  0  1.980557  0  0  1.132002  0  1.936369  0  0  0.518834  1.022737  0  2.014814  0
Pb  Pb38  1  0.91196797  0.30140500  0.87363705  1  0  1.246589  0  1.553266  0  0  1.069654  0  1.977915  0  0  1.131921  0  1.933766  0  0  0.519215  1.022579  0  2.012283  0
Pb  Pb39  1  0.08794619  0.69841313  0.37352646  1  0  1.246085  0  1.553134  0  0  1.069229  0  1.977843  0  0  1.131512  0  1.933679  0  0  0.518929  1.022158  0  2.012179  0
C  C40  1  0.46277538  0.13195770  0.24626619  1  0  0.7255  0  3.789845  0  0  0.674799  0  4.08564  0  0  0.710971  0  4.077878  0  0  0.219693  0.650187  0  4.089507  0
C  C41  1  0.53721107  0.86798421  0.74604595  1  0  0.725372  0  3.79283  0  0  0.675495  0  4.087215  0  0  0.711695  0  4.079375  0  0  0.219927  0.650861  0  4.091152  0
C  C42  1  0.36781921  0.96272580  0.49621430  1  0  0.72611  0  3.790091  0  0  0.675331  0  4.085798  0  0  0.711475  0  4.078039  0  0  0.219996  0.650716  0  4.089708  0
C  C43  1  0.63199022  0.03724406  0.99616475  1  0  0.725338  0  3.792095  0  0  0.675131  0  4.086991  0  0  0.71131  0  4.07922  0  0  0.220137  0.650514  0  4.090872  0
C  C44  1  0.03723735  0.63193919  0.00379732  1  0  0.725146  0  3.791441  0  0  0.674933  0  4.086294  0  0  0.711111  0  4.07852  0  0  0.219703  0.650323  0  4.090188  0
C  C45  1  0.96278371  0.36802148  0.50380641  1  0  0.725779  0  3.791134  0  0  0.67508  0  4.086899  0  0  0.711258  0  4.079137  0  0  0.219633  0.650458  0  4.090801  0
C  C46  1  0.13190308  0.46275236  0.75379816  1  0  0.725144  0  3.791238  0  0  0.67489  0  4.086101  0  0  0.71106  0  4.078341  0  0  0.21985  0.650277  0  4.090011  0
C  C47  1  0.86801206  0.53720190  0.25385491  1  0  0.724999  0  3.79132  0  0  0.67461  0  4.086606  0  0  0.710783  0  4.078854  0  0  0.219821  0.649997  0  4.090486  0
C  C48  1  0.54427134  0.23964468  0.30913828  1  0  -0.279469  0  3.673445  0  0  -0.315475  0  3.921387  0  0  -0.3223  0  3.929289  0  0  -0.171486  -0.310707  0  3.915807  0
C  C49  1  0.45579092  0.76045962  0.80903925  1  0  -0.279745  0  3.675252  0  0  -0.316347  0  3.923268  0  0  -0.323248  0  3.931295  0  0  -0.171977  -0.311511  0  3.917587  0
C  C50  1  0.26024100  0.04428337  0.55910362  1  0  -0.279623  0  3.675058  0  0  -0.315638  0  3.922727  0  0  -0.3225  0  3.930779  0  0  -0.171864  -0.310855  0  3.917034  0
C  C51  1  0.73958183  0.95576157  0.05908276  1  0  -0.279217  0  3.674621  0  0  -0.315745  0  3.922868  0  0  -0.322568  0  3.930801  0  0  -0.171551  -0.310999  0  3.917274  0
C  C52  1  0.95572008  0.73961568  0.94094566  1  0  -0.279301  0  3.675045  0  0  -0.315317  0  3.922382  0  0  -0.322102  0  3.93023  0  0  -0.171414  -0.310539  0  3.91668  0
C  C53  1  0.04426412  0.26041635  0.44090913  1  0  -0.279523  0  3.674212  0  0  -0.3161  0  3.922712  0  0  -0.322887  0  3.930561  0  0  -0.171647  -0.311363  0  3.917125  0
C  C54  1  0.23952336  0.54429586  0.69092370  1  0  -0.279895  0  3.675209  0  0  -0.316075  0  3.92269  0  0  -0.322852  0  3.930487  0  0  -0.171712  -0.311275  0  3.917054  0
C  C55  1  0.76037236  0.45574238  0.19094563  1  0  -0.279028  0  3.674724  0  0  -0.315256  0  3.922698  0  0  -0.322056  0  3.930621  0  0  -0.171443  -0.310473  0  3.916976  0
C  C56  1  0.71317552  0.23189829  0.29788258  1  0  -0.077734  0  3.664622  0  0  -0.117026  0  3.919845  0  0  -0.117236  0  3.933619  0  0  -0.166164  -0.116722  0  3.910261  0
C  C57  1  0.28689209  0.76821407  0.79783401  1  0  -0.077958  0  3.664802  0  0  -0.117091  0  3.919632  0  0  -0.117369  0  3.933419  0  0  -0.166059  -0.116747  0  3.910078  0
C  C58  1  0.26812148  0.21316327  0.54789367  1  0  -0.078251  0  3.664922  0  0  -0.117571  0  3.91995  0  0  -0.117812  0  3.933732  0  0  -0.16636  -0.117258  0  3.910403  0
C  C59  1  0.73180996  0.78687977  0.04783601  1  0  -0.077961  0  3.664954  0  0  -0.116981  0  3.919688  0  0  -0.117233  0  3.93349  0  0  -0.166011  -0.116659  0  3.910104  0
C  C60  1  0.78682729  0.73179947  0.95219829  1  0  -0.0782  0  3.664983  0  0  -0.117018  0  3.919441  0  0  -0.117268  0  3.933244  0  0  -0.166012  -0.116692  0  3.909879  0
C  C61  1  0.21316036  0.26819210  0.45221858  1  0  -0.0782  0  3.664183  0  0  -0.116769  0  3.9187  0  0  -0.117016  0  3.932523  0  0  -0.166025  -0.116431  0  3.90909  0
C  C62  1  0.23178921  0.71318069  0.70220573  1  0  -0.078289  0  3.664585  0  0  -0.117089  0  3.919136  0  0  -0.11732  0  3.932916  0  0  -0.165999  -0.116769  0  3.909565  0
C  C63  1  0.76811888  0.28684938  0.20218005  1  0  -0.078225  0  3.665145  0  0  -0.117214  0  3.919938  0  0  -0.117471  0  3.933736  0  0  -0.166207  -0.11688  0  3.910359  0
Br  Br64  1  0.12744491  0.12717286  0.99964013  1  0  -0.60045  0  1.110843  0  0  -0.509777  0  1.423437  0  0  -0.541114  0  1.402007  0  0  -0.131548  -0.485922  0  1.438651  0
Br  Br65  1  0.87281887  0.87250829  0.50026707  1  0  -0.600191  0  1.111411  0  0  -0.509464  0  1.424051  0  0  -0.540833  0  1.402651  0  0  -0.131219  -0.485621  0  1.439274  0
Br  Br66  1  0.37296836  0.62751185  0.24985705  1  0  -0.600209  0  1.109719  0  0  -0.509466  0  1.422063  0  0  -0.540828  0  1.400675  0  0  -0.131457  -0.485592  0  1.437279  0
Br  Br67  1  0.62676572  0.37305948  0.74994421  1  0  -0.600444  0  1.112267  0  0  -0.509789  0  1.425157  0  0  -0.541103  0  1.403703  0  0  -0.131326  -0.486021  0  1.440446  0
Br  Br68  1  0.04465235  0.95516271  0.24976754  1  0  -0.537873  0  0.913737  0  0  -0.465552  0  1.200433  0  0  -0.490796  0  1.181195  0  0  -0.184154  -0.446682  0  1.213888  0
Br  Br69  1  0.95519782  0.04476063  0.74981772  1  0  -0.538257  0  0.91352  0  0  -0.465934  0  1.200237  0  0  -0.491197  0  1.181037  0  0  -0.184455  -0.447085  0  1.213668  0
Br  Br70  1  0.54467364  0.54427836  0.50027122  1  0  -0.538435  0  0.91408  0  0  -0.466059  0  1.200828  0  0  -0.491317  0  1.181611  0  0  -0.184417  -0.44719  0  1.214259  0
Br  Br71  1  0.45556560  0.45561935  0.99961852  1  0  -0.538285  0  0.913499  0  0  -0.465897  0  1.200159  0  0  -0.491162  0  1.180972  0  0  -0.184352  -0.447021  0  1.213586  0
O  O72  1  0.35720587  0.17557958  0.19342561  1  0  -0.690338  0  2.030564  0  0  -0.615124  0  2.279364  0  0  -0.649353  0  2.273372  0  0  -0.297237  -0.590517  0  2.282423  0
O  O73  1  0.64289253  0.82432634  0.69335126  1  0  -0.689817  0  2.031279  0  0  -0.615098  0  2.279579  0  0  -0.649277  0  2.273565  0  0  -0.297319  -0.59054  0  2.282652  0
O  O74  1  0.32435028  0.85672910  0.44375663  1  0  -0.689598  0  2.029541  0  0  -0.614774  0  2.278724  0  0  -0.648992  0  2.272869  0  0  -0.297217  -0.590174  0  2.281702  0
O  O75  1  0.67564846  0.14303952  0.94353182  1  0  -0.690018  0  2.031539  0  0  -0.615198  0  2.280432  0  0  -0.649409  0  2.274437  0  0  -0.2974  -0.590611  0  2.283498  0
O  O76  1  0.14286996  0.67550814  0.05655124  1  0  -0.689678  0  2.03083  0  0  -0.614808  0  2.279457  0  0  -0.649017  0  2.273481  0  0  -0.297065  -0.590229  0  2.28251  0
O  O77  1  0.85719250  0.32430094  0.55658278  1  0  -0.690161  0  2.031612  0  0  -0.615076  0  2.280666  0  0  -0.649288  0  2.274671  0  0  -0.297088  -0.590497  0  2.283732  0
O  O78  1  0.17556293  0.35715688  0.80656962  1  0  -0.689038  0  2.031473  0  0  -0.61428  0  2.280127  0  0  -0.648456  0  2.27415  0  0  -0.296878  -0.589729  0  2.28318  0
O  O79  1  0.82447455  0.64290795  0.30658159  1  0  -0.69018  0  2.030929  0  0  -0.615103  0  2.279589  0  0  -0.649313  0  2.273585  0  0  -0.297544  -0.59052  0  2.282665  0
O  O80  1  0.50041243  0.99392507  0.24685973  1  0  -0.696057  0  2.009742  0  0  -0.610458  0  2.25142  0  0  -0.645855  0  2.24541  0  0  -0.300747  -0.58505  0  2.254509  0
O  O81  1  0.49937871  0.00599921  0.74641911  1  0  -0.696497  0  2.012594  0  0  -0.610514  0  2.253409  0  0  -0.645963  0  2.247368  0  0  -0.300478  -0.585093  0  2.256542  0
O  O82  1  0.50575626  0.00080050  0.49651961  1  0  -0.696873  0  2.0114  0  0  -0.61084  0  2.252919  0  0  -0.646312  0  2.247025  0  0  -0.300682  -0.585372  0  2.255919  0
O  O83  1  0.49400797  0.99937233  0.99649819  1  0  -0.696199  0  2.012194  0  0  -0.610473  0  2.25368  0  0  -0.645876  0  2.247598  0  0  -0.300689  -0.585058  0  2.256791  0
O  O84  1  0.99956115  0.49392390  0.00320781  1  0  -0.69635  0  2.010932  0  0  -0.61081  0  2.252417  0  0  -0.646239  0  2.246398  0  0  -0.300892  -0.585408  0  2.255533  0
O  O85  1  0.00047430  0.50604896  0.50334767  1  0  -0.696339  0  2.011267  0  0  -0.610586  0  2.253106  0  0  -0.645995  0  2.247036  0  0  -0.300617  -0.58518  0  2.256225  0
O  O86  1  0.99383187  0.50040539  0.75329589  1  0  -0.696485  0  2.012634  0  0  -0.61046  0  2.253994  0  0  -0.645971  0  2.248029  0  0  -0.300593  -0.584984  0  2.257024  0
O  O87  1  0.00601444  0.49940439  0.25334115  1  0  -0.695682  0  2.011  0  0  -0.610117  0  2.252541  0  0  -0.645543  0  2.24656  0  0  -0.30043  -0.584707  0  2.255633  0
