# generated using pymatgen
data_LiH13(C7N3)2
_symmetry_space_group_name_H-M   'P 1'
_cell_length_a   8.95219241
_cell_length_b   8.95216908
_cell_length_c   15.29785349
_cell_angle_alpha   89.99851654
_cell_angle_beta   90.00109006
_cell_angle_gamma   119.99988887
_symmetry_Int_Tables_number   1
_chemical_formula_structural   LiH13(C7N3)2
_chemical_formula_sum   'Li3 H39 C42 N18'
_cell_volume   1061.74273830
_cell_formula_units_Z   3
loop_
 _symmetry_equiv_pos_site_id
 _symmetry_equiv_pos_as_xyz
  1  'x, y, z'
loop_
 _atom_site_type_symbol
 _atom_site_label
 _atom_site_symmetry_multiplicity
 _atom_site_fract_x
 _atom_site_fract_y
 _atom_site_fract_z
 _atom_site_occupancy
 _atom_site_hle17_bader_spin_density
 _atom_site_hle17_ddec_charge
 _atom_site_hle17_ddec_spin_density
 _atom_site_hle17_ddec_sum_bond_order
 _atom_site_hle17_magmom
 _atom_site_hse06_10hf_bader_spin_density
 _atom_site_hse06_10hf_ddec_charge
 _atom_site_hse06_10hf_ddec_spin_density
 _atom_site_hse06_10hf_ddec_sum_bond_order
 _atom_site_hse06_10hf_magmom
 _atom_site_hse06_bader_spin_density
 _atom_site_hse06_ddec_charge
 _atom_site_hse06_ddec_spin_density
 _atom_site_hse06_ddec_sum_bond_order
 _atom_site_hse06_magmom
 _atom_site_pbe_bader_spin_density
 _atom_site_pbe_cm5_charge
 _atom_site_pbe_ddec_charge
 _atom_site_pbe_ddec_spin_density
 _atom_site_pbe_ddec_sum_bond_order
 _atom_site_pbe_magmom
Li  Li0  1  0.44189400  0.89293355  0.12279332  1  0  0.760668  0  0.552439  0  0  0.677702  0  0.720895  0  0  0.689282  0  0.7044  0  0  0.541024  0.66963  0  0.732338  0
Li  Li1  1  0.10707309  0.54895894  0.78945948  1  0  0.760702  0  0.55238  0  0  0.677724  0  0.720886  0  0  0.689301  0  0.704397  0  0  0.541028  0.669656  0  0.73233  0
Li  Li2  1  0.45103746  0.55810652  0.45612502  1  0  0.760711  0  0.552363  0  0  0.677704  0  0.720907  0  0  0.689282  0  0.704418  0  0  0.541058  0.669636  0  0.732349  0
H  H3  1  0.58953697  0.39378638  0.87682658  1  0  0.074644  0  0.993392  0  0  0.084979  0  1.057149  0  0  0.086912  0  1.058089  0  0  0.088498  0.083587  0  1.056602  0
H  H4  1  0.60621393  0.19576510  0.54350102  1  0  0.074673  0  0.993361  0  0  0.084978  0  1.057137  0  0  0.086916  0  1.05807  0  0  0.088468  0.08357  0  1.056607  0
H  H5  1  0.80424324  0.41046307  0.21016484  1  0  0.074649  0  0.993367  0  0  0.084947  0  1.057159  0  0  0.086881  0  1.0581  0  0  0.088473  0.083554  0  1.056609  0
H  H6  1  0.53410064  0.21355408  0.01052832  1  0  0.098019  0  0.96854  0  0  0.109218  0  1.030484  0  0  0.112224  0  1.029015  0  0  0.102581  0.107076  0  1.031587  0
H  H7  1  0.78644764  0.32056544  0.67719761  1  0  0.098048  0  0.968493  0  0  0.109247  0  1.030432  0  0  0.112256  0  1.028953  0  0  0.102587  0.107081  0  1.03157  0
H  H8  1  0.67945809  0.46590324  0.34386680  1  0  0.097985  0  0.968563  0  0  0.10919  0  1.030503  0  0  0.1122  0  1.029025  0  0  0.10255  0.107034  0  1.031623  0
H  H9  1  0.51720148  0.26186964  0.73000331  1  0  0.0726  0  0.97749  0  0  0.0849  0  1.040237  0  0  0.087581  0  1.039205  0  0  0.089367  0.08298  0  1.040995  0
H  H10  1  0.73813000  0.25534101  0.39667678  1  0  0.072654  0  0.977338  0  0  0.084955  0  1.040089  0  0  0.087638  0  1.039054  0  0  0.089411  0.083048  0  1.040838  0
H  H11  1  0.74464712  0.48277769  0.06333813  1  0  0.072618  0  0.977394  0  0  0.084975  0  1.040086  0  0  0.087657  0  1.039051  0  0  0.089431  0.083066  0  1.040834  0
H  H12  1  0.19197494  0.31468883  0.28100543  1  0  0.101468  0  0.923919  0  0  0.111313  0  0.990354  0  0  0.11186  0  0.990546  0  0  0.138842  0.110799  0  0.990342  0
H  H13  1  0.68532583  0.87727457  0.94768242  1  0  0.101413  0  0.923562  0  0  0.111277  0  0.990078  0  0  0.111825  0  0.990272  0  0  0.138833  0.110764  0  0.990069  0
H  H14  1  0.12269710  0.80803225  0.61434808  1  0  0.101414  0  0.923787  0  0  0.11127  0  0.990256  0  0  0.111818  0  0.990448  0  0  0.138817  0.110763  0  0.990248  0
H  H15  1  0.02089311  0.14806286  0.34273466  1  0  0.093642  0  0.897716  0  0  0.106201  0  0.957919  0  0  0.107009  0  0.95737  0  0  0.136291  0.105501  0  0.958472  0
H  H16  1  0.85195555  0.87282794  0.00940730  1  0  0.093563  0  0.897687  0  0  0.106171  0  0.957884  0  0  0.106981  0  0.957333  0  0  0.13622  0.10547  0  0.958442  0
H  H17  1  0.12715660  0.97911375  0.67607115  1  0  0.093614  0  0.897582  0  0  0.106199  0  0.957785  0  0  0.107007  0  0.957234  0  0  0.136235  0.105503  0  0.958339  0
H  H18  1  0.39235139  0.94435733  0.71002210  1  0  0.092044  0  0.969308  0  0  0.102432  0  1.033479  0  0  0.105486  0  1.031799  0  0  0.097581  0.100218  0  1.034745  0
H  H19  1  0.05564001  0.44799169  0.37668702  1  0  0.092047  0  0.969398  0  0  0.102444  0  1.033551  0  0  0.105503  0  1.031869  0  0  0.097599  0.100227  0  1.03482  0
H  H20  1  0.55197401  0.60761823  0.04335292  1  0  0.092055  0  0.969475  0  0  0.102486  0  1.033583  0  0  0.105524  0  1.031932  0  0  0.097603  0.100279  0  1.034847  0
H  H21  1  0.80749436  0.23825839  0.03148162  1  0  0.092324  0  0.971264  0  0  0.101134  0  1.03407  0  0  0.103085  0  1.033929  0  0  0.115785  0.099695  0  1.034293  0
H  H22  1  0.76173833  0.56923145  0.69815932  1  0  0.092294  0  0.971264  0  0  0.101137  0  1.034037  0  0  0.103088  0  1.033895  0  0  0.11578  0.099693  0  1.03426  0
H  H23  1  0.43077085  0.19251043  0.36482467  1  0  0.092286  0  0.971212  0  0  0.101125  0  1.034003  0  0  0.103076  0  1.033863  0  0  0.115765  0.09968  0  1.034223  0
H  H24  1  0.11814727  0.37321073  0.12268629  1  0  0.124152  0  0.954021  0  0  0.131861  0  1.018022  0  0  0.13467  0  1.016809  0  0  0.125442  0.129827  0  1.018954  0
H  H25  1  0.62677765  0.74491706  0.78937330  1  0  0.12413  0  0.953861  0  0  0.131841  0  1.017857  0  0  0.134658  0  1.016634  0  0  0.125426  0.129802  0  1.018797  0
H  H26  1  0.25506945  0.88185460  0.45603323  1  0  0.124096  0  0.95386  0  0  0.131772  0  1.01791  0  0  0.134583  0  1.016701  0  0  0.125411  0.129734  0  1.018851  0
H  H27  1  0.71472998  0.98182111  0.27332574  1  0  0.097084  0  0.929842  0  0  0.107519  0  0.990563  0  0  0.109753  0  0.988294  0  0  0.142515  0.105816  0  0.992253  0
H  H28  1  0.01821815  0.73291352  0.93999048  1  0  0.097135  0  0.929652  0  0  0.107474  0  0.99051  0  0  0.109705  0  0.988245  0  0  0.142517  0.105795  0  0.992164  0
H  H29  1  0.26708765  0.28528148  0.60665764  1  0  0.097106  0  0.929787  0  0  0.107499  0  0.990564  0  0  0.109731  0  0.988295  0  0  0.142524  0.105802  0  0.992244  0
H  H30  1  0.37883504  0.23499388  0.18934323  1  0  0.086233  0  0.984979  0  0  0.090025  0  1.060466  0  0  0.09098  0  1.060698  0  0  0.128507  0.089272  0  1.060335  0
H  H31  1  0.76500741  0.14381938  0.85600823  1  0  0.086193  0  0.98508  0  0  0.089977  0  1.060574  0  0  0.090929  0  1.060808  0  0  0.128499  0.089223  0  1.060441  0
H  H32  1  0.85616114  0.62118138  0.52267927  1  0  0.086206  0  0.984974  0  0  0.090007  0  1.060472  0  0  0.090962  0  1.060703  0  0  0.128459  0.089253  0  1.06034  0
H  H33  1  0.90361080  0.82213657  0.28210047  1  0  0.115811  0  0.970928  0  0  0.124267  0  1.034475  0  0  0.126544  0  1.034224  0  0  0.120477  0.122561  0  1.034792  0
H  H34  1  0.17787938  0.08147351  0.94876943  1  0  0.11606  0  0.970954  0  0  0.124408  0  1.034592  0  0  0.126742  0  1.034271  0  0  0.120512  0.122706  0  1.034907  0
H  H35  1  0.91852173  0.09641542  0.61541556  1  0  0.115993  0  0.970726  0  0  0.124399  0  1.034319  0  0  0.126734  0  1.034003  0  0  0.120515  0.122701  0  1.034633  0
H  H36  1  0.08640238  0.69197577  0.19552463  1  0  0.097755  0  0.962324  0  0  0.104774  0  1.02654  0  0  0.107249  0  1.02563  0  0  0.1192  0.102977  0  1.027278  0
H  H37  1  0.30802280  0.39442289  0.86218766  1  0  0.097891  0  0.962293  0  0  0.104896  0  1.026511  0  0  0.107339  0  1.025634  0  0  0.11927  0.103105  0  1.027252  0
H  H38  1  0.60557423  0.91361412  0.52883666  1  0  0.097893  0  0.962056  0  0  0.104845  0  1.026381  0  0  0.107245  0  1.025555  0  0  0.119299  0.103063  0  1.027103  0
H  H39  1  0.27622905  0.57675768  0.97688324  1  0  0.052945  0  0.954715  0  0  0.065253  0  1.019131  0  0  0.067525  0  1.016206  0  0  0.119072  0.063627  0  1.021118  0
H  H40  1  0.42324566  0.69947317  0.64354094  1  0  0.053005  0  0.954716  0  0  0.065266  0  1.019167  0  0  0.067536  0  1.016245  0  0  0.119049  0.063641  0  1.021152  0
H  H41  1  0.30054005  0.72377816  0.31021161  1  0  0.052989  0  0.954714  0  0  0.065278  0  1.019139  0  0  0.067551  0  1.016216  0  0  0.119089  0.063656  0  1.021116  0
C  C42  1  0.53470339  0.25486846  0.87078530  1  0  -0.098864  0  3.840881  0  0  -0.111338  0  4.090818  0  0  -0.113896  0  4.114436  0  0  -0.113537  -0.109497  0  4.074663  0
C  C43  1  0.74513218  0.27984681  0.53745455  1  0  -0.098849  0  3.840849  0  0  -0.111288  0  4.09075  0  0  -0.113849  0  4.114366  0  0  -0.113443  -0.109435  0  4.074597  0
C  C44  1  0.72015608  0.46529080  0.20411866  1  0  -0.098818  0  3.840776  0  0  -0.111248  0  4.090708  0  0  -0.113807  0  4.114328  0  0  -0.113484  -0.109398  0  4.074544  0
C  C45  1  0.50595204  0.15541557  0.94555717  1  0  -0.17261  0  3.787043  0  0  -0.184825  0  4.029826  0  0  -0.186966  0  4.048259  0  0  -0.102426  -0.183323  0  4.01731  0
C  C46  1  0.84458800  0.35055388  0.61222650  1  0  -0.172637  0  3.786978  0  0  -0.184885  0  4.029734  0  0  -0.187021  0  4.048166  0  0  -0.102428  -0.183369  0  4.017217  0
C  C47  1  0.64945729  0.49404172  0.27889521  1  0  -0.172622  0  3.787096  0  0  -0.184868  0  4.02986  0  0  -0.187005  0  4.04829  0  0  -0.10242  -0.183352  0  4.017345  0
C  C48  1  0.39180288  0.89941357  0.84982506  1  0  0.136349  0  3.876903  0  0  0.138995  0  4.11828  0  0  0.141665  0  4.142338  0  0  0.069544  0.137161  0  4.102031  0
C  C49  1  0.10059792  0.49239791  0.51649021  1  0  0.136193  0  3.877209  0  0  0.138894  0  4.118443  0  0  0.141568  0  4.142502  0  0  0.069553  0.137063  0  4.102188  0
C  C50  1  0.50759091  0.60818038  0.18315790  1  0  0.136018  0  3.877366  0  0  0.138641  0  4.118761  0  0  0.141318  0  4.142812  0  0  0.069472  0.136811  0  4.102514  0
C  C51  1  0.49383148  0.17930280  0.78677778  1  0  -0.112024  0  3.850962  0  0  -0.127556  0  4.106234  0  0  -0.130257  0  4.129147  0  0  -0.117662  -0.125594  0  4.090515  0
C  C52  1  0.82069826  0.31453836  0.45345077  1  0  -0.112113  0  3.851013  0  0  -0.127659  0  4.1063  0  0  -0.130358  0  4.129217  0  0  -0.117793  -0.125715  0  4.090574  0
C  C53  1  0.68545145  0.50614930  0.12011291  1  0  -0.112034  0  3.850946  0  0  -0.127641  0  4.106255  0  0  -0.130338  0  4.129162  0  0  -0.117754  -0.125696  0  4.090541  0
C  C54  1  0.07787595  0.18546875  0.27733271  1  0  0.096623  0  3.620903  0  0  0.019774  0  3.870135  0  0  0.029901  0  3.877522  0  0  0.066825  0.012988  0  3.865234  0
C  C55  1  0.81455274  0.89239859  0.94400407  1  0  0.096816  0  3.620516  0  0  0.019783  0  3.869938  0  0  0.029904  0  3.877327  0  0  0.066927  0.012992  0  3.865048  0
C  C56  1  0.10758302  0.92213471  0.61066818  1  0  0.09677  0  3.62061  0  0  0.01982  0  3.869904  0  0  0.029947  0  3.877288  0  0  0.066828  0.01301  0  3.865031  0
C  C57  1  0.43556710  0.97700861  0.93470133  1  0  0.132332  0  3.88031  0  0  0.134834  0  4.121928  0  0  0.137808  0  4.144769  0  0  0.069525  0.132846  0  4.10649  0
C  C58  1  0.02299161  0.45856699  0.60136730  1  0  0.132244  0  3.880422  0  0  0.134821  0  4.12187  0  0  0.137791  0  4.14471  0  0  0.069482  0.132836  0  4.106427  0
C  C59  1  0.54143472  0.56442048  0.26803765  1  0  0.132401  0  3.880666  0  0  0.134945  0  4.12221  0  0  0.137918  0  4.145049  0  0  0.0696  0.132946  0  4.106781  0
C  C60  1  0.42268837  0.00195701  0.77508297  1  0  -0.167901  0  3.790674  0  0  -0.183222  0  4.039027  0  0  -0.185294  0  4.058949  0  0  -0.104948  -0.181678  0  4.025446  0
C  C61  1  0.99804201  0.42073170  0.44174539  1  0  -0.16784  0  3.79046  0  0  -0.183194  0  4.038794  0  0  -0.185275  0  4.058718  0  0  -0.104953  -0.181648  0  4.025219  0
C  C62  1  0.57924438  0.57728848  0.10841276  1  0  -0.167824  0  3.79079  0  0  -0.18318  0  4.039154  0  0  -0.185247  0  4.059104  0  0  -0.104955  -0.18165  0  4.025581  0
C  C63  1  0.83349493  0.20346131  0.09524783  1  0  0.015343  0  3.766672  0  0  -0.013017  0  4.035675  0  0  -0.011965  0  4.05478  0  0  0.001944  -0.013664  0  4.022776  0
C  C64  1  0.79653635  0.63002494  0.76192028  1  0  0.015319  0  3.766257  0  0  -0.013072  0  4.035265  0  0  -0.012021  0  4.054365  0  0  0.001968  -0.013707  0  4.022356  0
C  C65  1  0.36997265  0.16650692  0.42858903  1  0  0.01525  0  3.766616  0  0  -0.013146  0  4.035625  0  0  -0.0121  0  4.054737  0  0  0.001972  -0.013775  0  4.022709  0
C  C66  1  0.98830731  0.27216208  0.13867388  1  0  -0.073452  0  3.661103  0  0  -0.112014  0  3.918138  0  0  -0.110283  0  3.936224  0  0  -0.001431  -0.113134  0  3.906008  0
C  C67  1  0.72783844  0.71613299  0.80535671  1  0  -0.073375  0  3.661015  0  0  -0.111976  0  3.918  0  0  -0.110251  0  3.936095  0  0  -0.00136  -0.113094  0  3.905865  0
C  C68  1  0.28386033  0.01170336  0.47201935  1  0  -0.07309  0  3.661143  0  0  -0.111665  0  3.918136  0  0  -0.109939  0  3.936229  0  0  -0.001296  -0.112792  0  3.906005  0
C  C69  1  0.77810829  0.06941343  0.21902604  1  0  0.163627  0  3.681988  0  0  0.106478  0  3.955525  0  0  0.11925  0  3.96723  0  0  0.146057  0.098307  0  3.947312  0
C  C70  1  0.93060786  0.70869292  0.88569531  1  0  0.163738  0  3.681711  0  0  0.106608  0  3.955267  0  0  0.119381  0  3.966965  0  0  0.146133  0.098418  0  3.947042  0
C  C71  1  0.29130287  0.22190532  0.55236175  1  0  0.163655  0  3.682072  0  0  0.106486  0  3.955597  0  0  0.119261  0  3.967293  0  0  0.14602  0.098306  0  3.947384  0
C  C72  1  0.27655245  0.10345429  0.20148850  1  0  0.166554  0  3.68316  0  0  0.112  0  3.95228  0  0  0.125015  0  3.96433  0  0  0.141195  0.10364  0  3.943821  0
C  C73  1  0.89654397  0.17308319  0.86815162  1  0  0.16655  0  3.683033  0  0  0.112021  0  3.952138  0  0  0.125032  0  3.964187  0  0  0.141222  0.103666  0  3.94368  0
C  C74  1  0.82690532  0.72346083  0.53481860  1  0  0.16659  0  3.683197  0  0  0.112045  0  3.952284  0  0  0.125062  0  3.964336  0  0  0.141278  0.103688  0  3.943824  0
C  C75  1  0.02881641  0.88683757  0.25063057  1  0  -0.075216  0  3.694894  0  0  -0.118744  0  3.955306  0  0  -0.117572  0  3.976298  0  0  -0.006943  -0.119409  0  3.941214  0
C  C76  1  0.11317430  0.14197027  0.91729818  1  0  -0.075636  0  3.694703  0  0  -0.119084  0  3.955209  0  0  -0.117964  0  3.976129  0  0  -0.006996  -0.119748  0  3.941124  0
C  C77  1  0.85800971  0.97119528  0.58395517  1  0  -0.075809  0  3.695026  0  0  -0.119305  0  3.955519  0  0  -0.118187  0  3.976424  0  0  -0.007205  -0.119978  0  3.941429  0
C  C78  1  0.12070615  0.82474174  0.20723461  1  0  0.002608  0  3.789273  0  0  -0.023083  0  4.053854  0  0  -0.023068  0  4.074408  0  0  -0.00105  -0.023049  0  4.039974  0
C  C79  1  0.17526461  0.29596401  0.87389519  1  0  0.002609  0  3.789012  0  0  -0.023064  0  4.053599  0  0  -0.023018  0  4.07417  0  0  -0.00108  -0.023045  0  4.039734  0
C  C80  1  0.70403404  0.87930122  0.54055937  1  0  0.002776  0  3.789291  0  0  -0.02287  0  4.053931  0  0  -0.022789  0  4.074521  0  0  -0.001043  -0.022854  0  4.040055  0
C  C81  1  0.32540249  0.70338523  0.94709864  1  0  0.238315  0  3.835558  0  0  0.192043  0  4.117074  0  0  0.205877  0  4.128072  0  0  0.124294  0.183192  0  4.109009  0
C  C82  1  0.29661845  0.62202354  0.61376148  1  0  0.238372  0  3.83561  0  0  0.19213  0  4.11711  0  0  0.205966  0  4.128107  0  0  0.124412  0.18328  0  4.109053  0
C  C83  1  0.37797803  0.67458803  0.28042980  1  0  0.238299  0  3.835475  0  0  0.192036  0  4.116999  0  0  0.205868  0  4.127999  0  0  0.124366  0.183191  0  4.108934  0
N  N84  1  0.95114181  0.18669067  0.21824757  1  0  -0.10137  0  3.564209  0  0  -0.012776  0  3.793973  0  0  -0.028451  0  3.819189  0  0  -0.250304  -0.002337  0  3.776682  0
N  N85  1  0.81332165  0.76443939  0.88492289  1  0  -0.101468  0  3.564144  0  0  -0.012685  0  3.793772  0  0  -0.028356  0  3.818986  0  0  -0.250353  -0.002247  0  3.776483  0
N  N86  1  0.23554473  0.04886567  0.55158486  1  0  -0.101679  0  3.564528  0  0  -0.012908  0  3.794127  0  0  -0.028582  0  3.819336  0  0  -0.250302  -0.002462  0  3.776838  0
N  N87  1  0.27550390  0.96059253  0.17758519  1  0  -0.43741  0  3.146882  0  0  -0.386794  0  3.424429  0  0  -0.399594  0  3.437432  0  0  -0.417706  -0.378156  0  3.415439  0
N  N88  1  0.03940611  0.31489776  0.84424634  1  0  -0.437445  0  3.146917  0  0  -0.386827  0  3.424455  0  0  -0.399625  0  3.437446  0  0  -0.417714  -0.378187  0  3.415467  0
N  N89  1  0.68508283  0.72450957  0.51091053  1  0  -0.437545  0  3.147039  0  0  -0.386909  0  3.424555  0  0  -0.399706  0  3.437533  0  0  -0.41773  -0.378269  0  3.415571  0
N  N90  1  0.12969177  0.06461503  0.24686755  1  0  -0.102111  0  3.5973  0  0  -0.012978  0  3.822902  0  0  -0.028804  0  3.848898  0  0  -0.251164  -0.002465  0  3.805116  0
N  N91  1  0.93539525  0.06506137  0.91353484  1  0  -0.102047  0  3.597066  0  0  -0.012882  0  3.822697  0  0  -0.028708  0  3.848713  0  0  -0.251237  -0.002366  0  3.804906  0
N  N92  1  0.93491885  0.87032512  0.58019831  1  0  -0.101849  0  3.597284  0  0  -0.012724  0  3.822871  0  0  -0.028558  0  3.848896  0  0  -0.251021  -0.002202  0  3.805081  0
N  N93  1  0.70300904  0.07706662  0.14581333  1  0  -0.424801  0  3.119681  0  0  -0.375642  0  3.403374  0  0  -0.388487  0  3.417387  0  0  -0.396891  -0.366981  0  3.393698  0
N  N94  1  0.92294625  0.62594163  0.81248497  1  0  -0.424876  0  3.119453  0  0  -0.375714  0  3.403151  0  0  -0.388558  0  3.41716  0  0  -0.396969  -0.367056  0  3.393484  0
N  N95  1  0.37406274  0.29700030  0.47915006  1  0  -0.424815  0  3.11958  0  0  -0.375647  0  3.403293  0  0  -0.388491  0  3.417304  0  0  -0.39695  -0.366986  0  3.39361  0
N  N96  1  0.39349899  0.84844501  0.99589039  1  0  -0.573739  0  3.126333  0  0  -0.523025  0  3.406626  0  0  -0.538237  0  3.417286  0  0  -0.469663  -0.512684  0  3.399053  0
N  N97  1  0.15155670  0.54506339  0.66255242  1  0  -0.573807  0  3.126444  0  0  -0.523118  0  3.40669  0  0  -0.538331  0  3.417359  0  0  -0.469746  -0.512784  0  3.399125  0
N  N98  1  0.45494489  0.60649402  0.32922125  1  0  -0.57377  0  3.126485  0  0  -0.523061  0  3.406759  0  0  -0.538273  0  3.417432  0  0  -0.469758  -0.512724  0  3.399193  0
N  N99  1  0.31967630  0.72276057  0.85955285  1  0  -0.57166  0  3.088341  0  0  -0.520683  0  3.365222  0  0  -0.536798  0  3.377845  0  0  -0.450853  -0.509724  0  3.356351  0
N  N100  1  0.27723892  0.59691668  0.52621464  1  0  -0.571552  0  3.088968  0  0  -0.520581  0  3.365792  0  0  -0.536694  0  3.378415  0  0  -0.450811  -0.509618  0  3.356912  0
N  N101  1  0.40307129  0.68030607  0.19288232  1  0  -0.571508  0  3.088673  0  0  -0.520522  0  3.365538  0  0  -0.536638  0  3.378168  0  0  -0.450844  -0.509557  0  3.356653  0
