# generated using pymatgen
data_Al4H33C50NO20
_symmetry_space_group_name_H-M   'P 1'
_cell_length_a   6.74051831
_cell_length_b   18.08308059
_cell_length_c   20.66921438
_cell_angle_alpha   72.45335530
_cell_angle_beta   86.54709372
_cell_angle_gamma   86.44370376
_symmetry_Int_Tables_number   1
_chemical_formula_structural   Al4H33C50NO20
_chemical_formula_sum   'Al4 H33 C50 N1 O20'
_cell_volume   2395.22619630
_cell_formula_units_Z   1
loop_
 _symmetry_equiv_pos_site_id
 _symmetry_equiv_pos_as_xyz
  1  'x, y, z'
loop_
 _atom_site_type_symbol
 _atom_site_label
 _atom_site_symmetry_multiplicity
 _atom_site_fract_x
 _atom_site_fract_y
 _atom_site_fract_z
 _atom_site_occupancy
 _atom_site_pbe_bader_charge
 _atom_site_pbe_bader_spin_density
 _atom_site_pbe_cm5_charge
 _atom_site_pbe_ddec_charge
 _atom_site_pbe_ddec_spin_density
 _atom_site_pbe_ddec_sum_bond_order
 _atom_site_pbe_magmom
Al  Al0  1  0.09691143  0.50021650  0.50194445  1  2.50364  0  0.407033  1.650776  0  2.570606  0
Al  Al1  1  0.59668593  0.50086907  0.50043737  1  2.503482  0  0.407398  1.646711  0  2.571354  0
Al  Al2  1  0.64746905  0.99914469  0.99794353  1  2.504697  0  0.406301  1.64778  0  2.574684  0
Al  Al3  1  0.14775284  0.99879229  0.99949427  1  2.501736  0  0.407455  1.646051  0  2.569314  0
H  H4  1  0.63457699  0.14639188  0.27877739  1  0.058827  0  0.103318  0.100594  0  1.010434  0
H  H5  1  0.69866177  0.30874904  0.23619427  1  0.056877  0  0.096847  0.087961  0  1.037737  0
H  H6  1  0.98373204  0.36613424  0.17238180  1  0.024961  0  0.091215  0.121826  0  1.003532  0
H  H7  1  0.96636576  0.36921700  0.25802496  1  0.058401  0  0.097132  0.133552  0  0.995038  0
H  H8  1  0.13463478  0.42844523  0.19838589  1  0.055097  0  0.095861  0.131204  0  0.990838  0
H  H9  1  0.46098261  0.40405921  0.10833437  1  0.054763  0  0.092475  0.125981  0  0.996818  0
H  H10  1  0.57813741  0.32183986  0.08899358  1  0.032798  0  0.093864  0.128929  0  0.993889  0
H  H11  1  0.31809520  0.34093262  0.08013894  1  0.03585  0  0.093693  0.128495  0  0.995991  0
H  H12  1  0.62803979  0.90229848  0.63584653  1  0.05899  0  0.101377  0.150272  0  0.980281  0
H  H13  1  0.76226733  0.84822063  0.58680031  1  0.036468  0  0.097257  0.136249  0  0.986056  0
H  H14  1  0.52826569  0.81768421  0.62707401  1  0.060295  0  0.09371  0.13271  0  1.015806  0
H  H15  1  0.37100367  0.71268320  0.71730697  1  0.038195  0  0.092753  0.129574  0  1.03822  0
H  H16  1  0.24532223  0.63010630  0.71415640  1  0.065867  0  0.101586  0.143638  0  0.98129  0
H  H17  1  0.24517124  0.71482872  0.64367981  1  0.040006  0  0.102068  0.144322  0  0.981299  0
H  H18  1  0.11635576  0.59943281  0.86315694  1  0.053866  0  0.095081  0.13027  0  0.99141  0
H  H19  1  0.22558462  0.68481484  0.86759386  1  0.047523  0  0.092827  0.125554  0  1.024521  0
H  H20  1  0.99512922  0.65684368  0.91153425  1  0.049469  0  0.095817  0.13133  0  0.989701  0
H  H21  1  0.61221633  0.62183330  0.87663156  1  0.036541  0  0.092925  0.126783  0  0.995628  0
H  H22  1  0.51003724  0.61713923  0.80068998  1  0.022964  0  0.092439  0.125568  0  1.031796  0
H  H23  1  0.73774769  0.56605142  0.82763156  1  0.045449  0  0.096881  0.133992  0  0.987332  0
H  H24  1  0.37519285  0.79528319  0.77520780  1  0.028032  0  0.089361  0.124237  0  1.038492  0
H  H25  1  0.49160858  0.78950368  0.85174125  1  0.057837  0  0.094706  0.129904  0  0.995618  0
H  H26  1  0.50740394  0.87427240  0.78131403  1  0.061036  0  0.104398  0.149844  0  0.973779  0
H  H27  1  0.29509209  0.09652820  0.39121903  1  0.027561  0  0.096564  0.132617  0  0.989997  0
H  H28  1  0.43702624  0.16092767  0.41783312  1  0.057024  0  0.096861  0.133641  0  0.989691  0
H  H29  1  0.17623926  0.17848265  0.41057381  1  0.043275  0  0.09618  0.132583  0  0.989417  0
H  H30  1  0.90381833  0.19378460  0.30371711  1  0.030907  0  0.093572  0.125683  0  1.009784  0
H  H31  1  0.92603417  0.19441659  0.21721994  1  0.036702  0  0.094891  0.129308  0  1.000136  0
H  H32  1  0.02950180  0.11495341  0.28116059  1  0.042751  0  0.09685  0.131387  0  0.988603  0
H  H33  1  0.33242524  0.60235998  0.48466310  1  0.613214  0  0.36016  0.441499  0  0.835065  0
H  H34  1  0.86348196  0.40524653  0.49790595  1  0.618663  0  0.358966  0.440145  0  0.839145  0
H  H35  1  0.41220860  0.89838948  0.00872113  1  0.624654  0  0.359714  0.440434  0  0.837294  0
H  H36  1  0.88061463  0.09459040  0.00103182  1  0.620465  0  0.3589  0.439278  0  0.839713  0
C  C37  1  0.37338016  0.42260015  0.42424905  1  1.655404  0  0.274344  0.727764  0  4.151898  0
C  C38  1  0.34583360  0.39512934  0.60532931  1  1.697696  0  0.278886  0.705137  0  4.172798  0
C  C39  1  0.81747282  0.57837375  0.57776938  1  1.680108  0  0.276577  0.722764  0  4.159845  0
C  C40  1  0.85060986  0.60741787  0.39692525  1  1.695986  0  0.275943  0.704283  0  4.179467  0
C  C41  1  0.85554391  0.66872621  0.33320729  1  0.228219  0  -0.00374  -0.145951  0  3.848354  0
C  C42  1  0.86622610  0.72123984  0.27969895  1  -0.370138  0  -0.007364  0.031143  0  4.23931  0
C  C43  1  0.87757923  0.77916008  0.22061503  1  -0.322563  0  -0.008668  0.027522  0  4.241275  0
C  C44  1  0.88828943  0.83160428  0.16706135  1  0.260168  0  -0.0035  -0.144705  0  3.848782  0
C  C45  1  0.77048912  0.79518311  0.69432939  1  0.027917  0  0.018707  0.109946  0  3.641605  0
C  C46  1  0.98351160  0.81207571  0.71330827  1  0.090592  0  0.019629  -0.030107  0  3.760131  0
C  C47  1  0.93912960  0.87699081  0.87438371  1  0.024465  0  -0.038008  -0.202014  0  3.948166  0
C  C48  1  0.80633060  0.62313374  0.62496390  1  0.143636  0  -0.044137  -0.216225  0  3.961878  0
C  C49  1  0.69476973  0.77764247  0.77080311  1  0.011281  0  0.00255  0.066499  0  3.652145  0
C  C50  1  0.90675094  0.79494933  0.79042139  1  0.099472  0  0.014281  0.040166  0  3.806613  0
C  C51  1  0.76270369  0.68927697  0.78507876  1  0.042956  0  0.002135  0.072886  0  3.648964  0
C  C52  1  0.83882042  0.70647412  0.70799756  1  0.109859  0  0.001223  0.00435  0  3.810036  0
C  C53  1  0.97493320  0.70630481  0.80356368  1  0.016732  0  0.004416  0.071092  0  3.652663  0
C  C54  1  0.05092412  0.72354071  0.72721580  1  0.028578  0  0.011987  0.095845  0  3.663333  0
C  C55  1  0.93417471  0.83977959  0.83423936  1  -0.300522  0  -0.021236  -0.012713  0  4.079388  0
C  C56  1  0.81255830  0.66163923  0.66405269  1  -0.469902  0  -0.022302  -0.002715  0  4.081935  0
C  C57  1  0.52040209  0.19330383  0.26585752  1  -0.020999  0  -0.073172  -0.121802  0  3.647616  0
C  C58  1  0.34447833  0.20542620  0.31495006  1  0.017194  0  0.007269  0.132075  0  3.623998  0
C  C59  1  0.38261255  0.37917173  0.37621214  1  0.144154  0  -0.052701  -0.230465  0  3.989542  0
C  C60  1  0.36269399  0.12152016  0.12248844  1  0.155512  0  -0.054213  -0.23443  0  3.986412  0
C  C61  1  0.55507359  0.28211974  0.24190165  1  -0.02374  0  -0.075232  -0.119165  0  3.656856  0
C  C62  1  0.37970366  0.29640552  0.29119451  1  0.097419  0  0.001484  0.043101  0  3.801803  0
C  C63  1  0.40682359  0.29506781  0.18372340  1  0.019786  0  0.006699  0.117263  0  3.643928  0
C  C64  1  0.37169805  0.20423426  0.20729210  1  0.091981  0  0.001051  0.043824  0  3.812481  0
C  C65  1  0.22801679  0.30745423  0.23255115  1  0.015633  0  0.003418  0.070952  0  3.63995  0
C  C66  1  0.19492501  0.21770339  0.25686998  1  0.031133  0  -0.000235  0.065749  0  3.665492  0
C  C67  1  0.38222261  0.34161329  0.33609931  1  -0.449671  0  -0.022449  -0.009648  0  4.095265  0
C  C68  1  0.36783812  0.15908168  0.16243036  1  -0.45616  0  -0.021583  -0.004927  0  4.088666  0
C  C69  1  0.35180771  0.33312908  0.66846425  1  0.163561  0  -0.00156  -0.144548  0  3.844589  0
C  C70  1  0.36636075  0.27957635  0.72103111  1  -0.304858  0  -0.005236  0.032261  0  4.237168  0
C  C71  1  0.38094925  0.22040672  0.77904088  1  -0.224944  0  -0.004437  0.033181  0  4.236439  0
C  C72  1  0.39396088  0.16674677  0.83159973  1  0.153648  0  -0.000855  -0.14335  0  3.844773  0
C  C73  1  0.39931336  0.10453302  0.89458054  1  1.705946  0  0.278298  0.704173  0  4.174868  0
C  C74  1  0.37075603  0.07734147  0.07510156  1  1.640576  0  0.274474  0.72854  0  4.149912  0
C  C75  1  0.89317982  0.89267762  0.10319750  1  1.682365  0  0.27549  0.703128  0  4.179059  0
C  C76  1  0.92764698  0.92116883  0.92207242  1  1.657319  0  0.278334  0.724026  0  4.155776  0
C  C77  1  0.09759218  0.87577505  0.67572861  1  0.820489  0  0.172175  0.238467  0  4.029056  0
C  C78  1  0.06981670  0.37103550  0.21439293  1  -0.08068  0  -0.235448  -0.401906  0  3.996515  0
C  C79  1  0.44258427  0.34298269  0.11153419  1  -0.058424  0  -0.236522  -0.40962  0  4.00319  0
C  C80  1  0.66682874  0.84348328  0.63283237  1  -0.040402  0  -0.236409  -0.415564  0  3.97223  0
C  C81  1  0.23849284  0.69389498  0.69949335  1  -0.06097  0  -0.235434  -0.420447  0  3.981634  0
C  C82  1  0.08396321  0.65931492  0.86455282  1  -0.079414  0  -0.236247  -0.402094  0  3.986159  0
C  C83  1  0.64930755  0.62013237  0.82450652  1  -0.059159  0  -0.237789  -0.405259  0  3.989828  0
C  C84  1  0.50735624  0.81057277  0.79599403  1  -0.064177  0  -0.23584  -0.405739  0  3.973086  0
C  C85  1  0.31122858  0.15789954  0.38734795  1  -0.0591  0  -0.233665  -0.413191  0  3.986696  0
C  C86  1  0.00322521  0.17844757  0.26519124  1  -0.047944  0  -0.236941  -0.406718  0  4.015503  0
N  N87  1  0.19268604  0.92749905  0.64406736  1  -1.134386  0  -0.316939  -0.375348  0  2.707325  0
O  O88  1  0.51458910  0.41813415  0.57841956  1  -1.226984  0  -0.222709  -0.572631  0  2.290626  0
O  O89  1  0.19918706  0.43778674  0.44627740  1  -1.240983  0  -0.232712  -0.598097  0  2.2887  0
O  O90  1  0.01917504  0.58288422  0.42161808  1  -1.230314  0  -0.224854  -0.577329  0  2.286715  0
O  O91  1  0.17514681  0.41967466  0.58261547  1  -1.223357  0  -0.222805  -0.570686  0  2.277928  0
O  O92  1  0.99279202  0.56177224  0.55794788  1  -1.235175  0  -0.228865  -0.587731  0  2.288052  0
O  O93  1  0.53776580  0.44126114  0.44127371  1  -1.240837  0  -0.233388  -0.595078  0  2.273817  0
O  O94  1  0.34033016  0.54647182  0.49421892  1  -1.413874  0  -0.446923  -0.998013  0  2.187861  0
O  O95  1  0.65462003  0.56043226  0.55949409  1  -1.238847  0  -0.229546  -0.583533  0  2.279667  0
O  O96  1  0.67941856  0.58510751  0.42197572  1  -1.23113  0  -0.226607  -0.5796  0  2.279437  0
O  O97  1  0.85311441  0.45506996  0.50674759  1  -1.418641  0  -0.445576  -0.994427  0  2.176623  0
O  O98  1  0.20621776  0.05810631  0.05873943  1  -1.238755  0  -0.232669  -0.593465  0  2.27379  0
O  O99  1  0.57013341  0.07943918  0.91695536  1  -1.227927  0  -0.223842  -0.571382  0  2.277398  0
O  O100  1  0.75230361  0.93684920  0.94252245  1  -1.228726  0  -0.227471  -0.586329  0  2.284651  0
O  O101  1  0.54459569  0.06210876  0.05283913  1  -1.243849  0  -0.231679  -0.597064  0  2.290742  0
O  O102  1  0.72449496  0.91728850  0.07865236  1  -1.222882  0  -0.225111  -0.575681  0  2.286294  0
O  O103  1  0.23037924  0.08208255  0.92176845  1  -1.229871  0  -0.223671  -0.57439  0  2.291932  0
O  O104  1  0.40394044  0.95300473  0.00554350  1  -1.425523  0  -0.446892  -0.996859  0  2.188692  0
O  O105  1  0.06432189  0.91461410  0.07782234  1  -1.222748  0  -0.226309  -0.578813  0  2.280717  0
O  O106  1  0.09038645  0.93941215  0.94013558  1  -1.229445  0  -0.228152  -0.583435  0  2.278797  0
O  O107  1  0.89127341  0.04444403  0.99282548  1  -1.420645  0  -0.446163  -0.993626  0  2.178705  0
