# generated using pymatgen
data_BaH6(C3O)4
_symmetry_space_group_name_H-M   'P 1'
_cell_length_a   8.19275982
_cell_length_b   8.32736225
_cell_length_c   15.46528106
_cell_angle_alpha   90.00020153
_cell_angle_beta   94.04304296
_cell_angle_gamma   89.99993425
_symmetry_Int_Tables_number   1
_chemical_formula_structural   BaH6(C3O)4
_chemical_formula_sum   'Ba4 H24 C48 O16'
_cell_volume   1052.47878463
_cell_formula_units_Z   4
loop_
 _symmetry_equiv_pos_site_id
 _symmetry_equiv_pos_as_xyz
  1  'x, y, z'
loop_
 _atom_site_type_symbol
 _atom_site_label
 _atom_site_symmetry_multiplicity
 _atom_site_fract_x
 _atom_site_fract_y
 _atom_site_fract_z
 _atom_site_occupancy
 _atom_site_hle17_bader_spin_density
 _atom_site_hle17_ddec_charge
 _atom_site_hle17_ddec_spin_density
 _atom_site_hle17_ddec_sum_bond_order
 _atom_site_hle17_magmom
 _atom_site_hse06_10hf_bader_spin_density
 _atom_site_hse06_10hf_ddec_charge
 _atom_site_hse06_10hf_ddec_spin_density
 _atom_site_hse06_10hf_ddec_sum_bond_order
 _atom_site_hse06_10hf_magmom
 _atom_site_hse06_bader_spin_density
 _atom_site_hse06_ddec_charge
 _atom_site_hse06_ddec_spin_density
 _atom_site_hse06_ddec_sum_bond_order
 _atom_site_hse06_magmom
 _atom_site_pbe_bader_spin_density
 _atom_site_pbe_cm5_charge
 _atom_site_pbe_ddec_charge
 _atom_site_pbe_ddec_spin_density
 _atom_site_pbe_ddec_sum_bond_order
 _atom_site_pbe_magmom
Ba  Ba0  1  0.75219779  0.63263761  0.96186446  1  0  1.673719  0  1.187913  0  0  1.530447  0  1.587132  0  0  1.572797  0  1.542573  0  0  1.026838  1.499684  0  1.618157  0
Ba  Ba1  1  0.74780055  0.13263954  0.03813587  1  0  1.673751  0  1.187871  0  0  1.530492  0  1.587063  0  0  1.572829  0  1.542524  0  0  1.026847  1.499726  0  1.618086  0
Ba  Ba2  1  0.24780111  0.36736241  0.03813524  1  0  1.673726  0  1.187928  0  0  1.530457  0  1.587132  0  0  1.572803  0  1.542581  0  0  1.026848  1.499701  0  1.618161  0
Ba  Ba3  1  0.25219957  0.86736168  0.96186452  1  0  1.673737  0  1.1879  0  0  1.53045  0  1.587135  0  0  1.572818  0  1.542546  0  0  1.026846  1.499689  0  1.618155  0
H  H4  1  0.00219673  0.47972279  0.20078795  1  0  0.107822  0  0.968471  0  0  0.114155  0  1.03707  0  0  0.118497  0  1.033629  0  0  0.116499  0.111029  0  1.039565  0
H  H5  1  0.49780630  0.97972072  0.79921147  1  0  0.107945  0  0.968384  0  0  0.114246  0  1.037006  0  0  0.118587  0  1.033567  0  0  0.116554  0.11112  0  1.039501  0
H  H6  1  0.99780584  0.52027844  0.79921254  1  0  0.107923  0  0.968385  0  0  0.114237  0  1.037  0  0  0.11858  0  1.033558  0  0  0.116543  0.111114  0  1.039495  0
H  H7  1  0.50219260  0.02027930  0.20078823  1  0  0.107887  0  0.968402  0  0  0.114222  0  1.036987  0  0  0.118553  0  1.033558  0  0  0.116543  0.111096  0  1.039483  0
H  H8  1  0.02009877  0.42421232  0.35865373  1  0  0.081927  0  0.97359  0  0  0.094592  0  1.033958  0  0  0.096494  0  1.034158  0  0  0.097788  0.093231  0  1.033887  0
H  H9  1  0.47990064  0.92421044  0.64134545  1  0  0.08185  0  0.973641  0  0  0.094512  0  1.034017  0  0  0.096413  0  1.034218  0  0  0.097774  0.093152  0  1.033947  0
H  H10  1  0.97989890  0.57578770  0.64134658  1  0  0.081886  0  0.973576  0  0  0.094554  0  1.03395  0  0  0.096455  0  1.03415  0  0  0.097757  0.093194  0  1.03388  0
H  H11  1  0.52009948  0.07579078  0.35865430  1  0  0.081879  0  0.973596  0  0  0.094549  0  1.033965  0  0  0.09645  0  1.034165  0  0  0.09777  0.09319  0  1.033896  0
H  H12  1  0.08235907  0.64574136  0.46347965  1  0  0.084344  0  0.962306  0  0  0.09693  0  1.024292  0  0  0.09937  0  1.023386  0  0  0.097999  0.095184  0  1.024964  0
H  H13  1  0.41763815  0.14573794  0.53652021  1  0  0.084366  0  0.96229  0  0  0.096954  0  1.024278  0  0  0.099391  0  1.023369  0  0  0.098  0.095207  0  1.024956  0
H  H14  1  0.91763738  0.35425867  0.53652125  1  0  0.084348  0  0.962325  0  0  0.096943  0  1.024303  0  0  0.09938  0  1.023396  0  0  0.098014  0.095196  0  1.024976  0
H  H15  1  0.58236197  0.85426088  0.46347954  1  0  0.084334  0  0.96231  0  0  0.09692  0  1.024301  0  0  0.099356  0  1.023394  0  0  0.097999  0.095176  0  1.024977  0
H  H16  1  0.14521248  0.91953280  0.49462499  1  0  0.086444  0  0.962151  0  0  0.097795  0  1.025003  0  0  0.100314  0  1.024347  0  0  0.098302  0.095991  0  1.025524  0
H  H17  1  0.35478816  0.41952925  0.50537552  1  0  0.086481  0  0.962125  0  0  0.097838  0  1.024961  0  0  0.100354  0  1.024311  0  0  0.09831  0.096029  0  1.025485  0
H  H18  1  0.85479009  0.08046722  0.50537614  1  0  0.086464  0  0.962147  0  0  0.09781  0  1.025005  0  0  0.100329  0  1.024349  0  0  0.098301  0.096008  0  1.025527  0
H  H19  1  0.64521074  0.58047077  0.49462483  1  0  0.086473  0  0.962123  0  0  0.097818  0  1.024986  0  0  0.100343  0  1.024316  0  0  0.098298  0.096008  0  1.025508  0
H  H20  1  0.18024044  0.20200170  0.44709487  1  0  0.08273  0  0.966061  0  0  0.094905  0  1.027813  0  0  0.097495  0  1.026783  0  0  0.097788  0.093052  0  1.028623  0
H  H21  1  0.31976040  0.70199822  0.55290588  1  0  0.082716  0  0.966031  0  0  0.094877  0  1.027801  0  0  0.097467  0  1.026771  0  0  0.097754  0.093031  0  1.028599  0
H  H22  1  0.81976335  0.79799593  0.55290501  1  0  0.082775  0  0.966015  0  0  0.09492  0  1.027797  0  0  0.09751  0  1.026768  0  0  0.097786  0.093068  0  1.028603  0
H  H23  1  0.68023973  0.29800060  0.44709452  1  0  0.082755  0  0.966068  0  0  0.09492  0  1.027828  0  0  0.097509  0  1.0268  0  0  0.097786  0.093074  0  1.028629  0
H  H24  1  0.16541691  0.26465848  0.28924703  1  0  0.09203  0  0.967352  0  0  0.104222  0  1.027033  0  0  0.107027  0  1.025875  0  0  0.10708  0.102195  0  1.027898  0
H  H25  1  0.33458265  0.76465483  0.71075250  1  0  0.092008  0  0.967392  0  0  0.10421  0  1.027053  0  0  0.107022  0  1.025885  0  0  0.107101  0.102183  0  1.027919  0
H  H26  1  0.83458199  0.73534154  0.71075268  1  0  0.092033  0  0.967335  0  0  0.104253  0  1.026986  0  0  0.107039  0  1.02585  0  0  0.10709  0.102226  0  1.02785  0
H  H27  1  0.66541870  0.23534400  0.28924665  1  0  0.092028  0  0.967346  0  0  0.104213  0  1.02703  0  0  0.107027  0  1.025861  0  0  0.107089  0.102186  0  1.027897  0
C  C28  1  0.01307315  0.74919920  0.11819080  1  0  0.673073  0  3.918942  0  0  0.623363  0  4.212853  0  0  0.658222  0  4.202922  0  0  0.220011  0.599643  0  4.218991  0
C  C29  1  0.48692642  0.24919676  0.88181000  1  0  0.672971  0  3.918956  0  0  0.62328  0  4.212852  0  0  0.658141  0  4.202917  0  0  0.219989  0.599558  0  4.218989  0
C  C30  1  0.98692575  0.25080322  0.88181020  1  0  0.672905  0  3.91907  0  0  0.6232  0  4.212989  0  0  0.658062  0  4.203055  0  0  0.21995  0.599483  0  4.219121  0
C  C31  1  0.51307492  0.75080327  0.11818980  1  0  0.673008  0  3.918892  0  0  0.623313  0  4.212787  0  0  0.658174  0  4.202854  0  0  0.219992  0.599598  0  4.218919  0
C  C32  1  0.05264910  0.73063779  0.21398928  1  0  -0.083332  0  3.662219  0  0  -0.068389  0  3.903181  0  0  -0.075323  0  3.922731  0  0  0.001452  -0.064122  0  3.890298  0
C  C33  1  0.44735049  0.23063477  0.78601019  1  0  -0.083269  0  3.66205  0  0  -0.068384  0  3.90302  0  0  -0.075321  0  3.922572  0  0  0.00148  -0.064104  0  3.890123  0
C  C34  1  0.94735102  0.26936223  0.78601047  1  0  -0.083275  0  3.662138  0  0  -0.06837  0  3.903115  0  0  -0.075307  0  3.922667  0  0  0.001485  -0.064093  0  3.890219  0
C  C35  1  0.55265086  0.76936286  0.21398896  1  0  -0.083324  0  3.662087  0  0  -0.06843  0  3.903072  0  0  -0.075366  0  3.922619  0  0  0.00146  -0.064153  0  3.890177  0
C  C36  1  0.03443226  0.57658672  0.24616455  1  0  -0.061587  0  3.70972  0  0  -0.089092  0  3.965519  0  0  -0.087681  0  3.98276  0  0  -0.070604  -0.089793  0  3.95387  0
C  C37  1  0.46556869  0.07658227  0.75383467  1  0  -0.061708  0  3.709738  0  0  -0.089182  0  3.965565  0  0  -0.087771  0  3.982807  0  0  -0.070637  -0.089887  0  3.953913  0
C  C38  1  0.96556786  0.42341810  0.75383455  1  0  -0.061632  0  3.709641  0  0  -0.089107  0  3.965449  0  0  -0.087695  0  3.98269  0  0  -0.070624  -0.089812  0  3.953802  0
C  C39  1  0.53443265  0.92341776  0.24616577  1  0  -0.061646  0  3.709622  0  0  -0.08913  0  3.965435  0  0  -0.08771  0  3.982681  0  0  -0.070649  -0.08983  0  3.953786  0
C  C40  1  0.04394414  0.54502600  0.33584152  1  0  -0.071109  0  3.805774  0  0  -0.086171  0  4.060829  0  0  -0.089306  0  4.083229  0  0  -0.09415  -0.084094  0  4.045529  0
C  C41  1  0.45605561  0.04502337  0.66415760  1  0  -0.070888  0  3.805692  0  0  -0.085932  0  4.060705  0  0  -0.089066  0  4.083104  0  0  -0.094089  -0.083858  0  4.045414  0
C  C42  1  0.95605475  0.45497283  0.66415819  1  0  -0.071164  0  3.805955  0  0  -0.086234  0  4.061013  0  0  -0.089369  0  4.083413  0  0  -0.094155  -0.084156  0  4.045716  0
C  C43  1  0.54394451  0.95497425  0.33584279  1  0  -0.071094  0  3.805905  0  0  -0.086162  0  4.060958  0  0  -0.089297  0  4.083356  0  0  -0.094164  -0.084091  0  4.04567  0
C  C44  1  0.07662166  0.66781175  0.39378257  1  0  -0.106526  0  3.757223  0  0  -0.126942  0  4.003008  0  0  -0.128409  0  4.024348  0  0  -0.088203  -0.125717  0  3.98839  0
C  C45  1  0.42337798  0.16780517  0.60621613  1  0  -0.106674  0  3.757194  0  0  -0.127096  0  4.003045  0  0  -0.128557  0  4.024378  0  0  -0.088239  -0.125871  0  3.988434  0
C  C46  1  0.92337724  0.33218948  0.60621649  1  0  -0.106402  0  3.757264  0  0  -0.126807  0  4.003062  0  0  -0.12827  0  4.0244  0  0  -0.088165  -0.125581  0  3.988444  0
C  C47  1  0.57661969  0.83219245  0.39378353  1  0  -0.10646  0  3.757294  0  0  -0.126861  0  4.003088  0  0  -0.128324  0  4.024426  0  0  -0.088158  -0.125646  0  3.988481  0
C  C48  1  0.10240319  0.82638406  0.36432423  1  0  0.058043  0  3.783862  0  0  0.077062  0  4.008547  0  0  0.075334  0  4.034103  0  0  -0.005298  0.078056  0  3.991291  0
C  C49  1  0.39759997  0.32638011  0.63567620  1  0  0.058156  0  3.783666  0  0  0.077092  0  4.008417  0  0  0.075362  0  4.033976  0  0  -0.005278  0.078096  0  3.991151  0
C  C50  1  0.89760182  0.17361717  0.63567635  1  0  0.058041  0  3.783749  0  0  0.076977  0  4.008534  0  0  0.075246  0  4.034094  0  0  -0.005292  0.077973  0  3.991274  0
C  C51  1  0.60239770  0.67361992  0.36432346  1  0  0.058137  0  3.783707  0  0  0.077092  0  4.008449  0  0  0.075361  0  4.034009  0  0  -0.005265  0.078097  0  3.99118  0
C  C52  1  0.13710775  0.95013651  0.42587899  1  0  -0.112615  0  3.770365  0  0  -0.13445  0  4.020417  0  0  -0.135824  0  4.041731  0  0  -0.090262  -0.133334  0  4.005876  0
C  C53  1  0.36289163  0.45013100  0.57412088  1  0  -0.112649  0  3.770172  0  0  -0.134466  0  4.02024  0  0  -0.135841  0  4.041554  0  0  -0.090268  -0.133352  0  4.005696  0
C  C54  1  0.86289237  0.04986471  0.57412140  1  0  -0.112617  0  3.7702  0  0  -0.134423  0  4.020261  0  0  -0.135796  0  4.041574  0  0  -0.090252  -0.133309  0  4.00572  0
C  C55  1  0.63710727  0.54986782  0.42587947  1  0  -0.112639  0  3.770108  0  0  -0.13446  0  4.020176  0  0  -0.135832  0  4.041491  0  0  -0.090229  -0.133337  0  4.005625  0
C  C56  1  0.15674651  0.10639385  0.39968984  1  0  -0.088505  0  3.834044  0  0  -0.103113  0  4.09168  0  0  -0.106049  0  4.113026  0  0  -0.101193  -0.101137  0  4.077099  0
C  C57  1  0.34325319  0.60638946  0.60031069  1  0  -0.088591  0  3.833948  0  0  -0.103195  0  4.09161  0  0  -0.106132  0  4.112959  0  0  -0.101188  -0.10122  0  4.077021  0
C  C58  1  0.84325116  0.89360497  0.60030982  1  0  -0.088624  0  3.833914  0  0  -0.103211  0  4.091562  0  0  -0.106147  0  4.112904  0  0  -0.101222  -0.101232  0  4.076976  0
C  C59  1  0.65674816  0.39360936  0.39968976  1  0  -0.088634  0  3.833966  0  0  -0.103231  0  4.091617  0  0  -0.106168  0  4.112966  0  0  -0.101253  -0.101264  0  4.077034  0
C  C60  1  0.14630083  0.14199667  0.31065412  1  0  -0.07815  0  3.753677  0  0  -0.102584  0  4.001056  0  0  -0.102847  0  4.020801  0  0  -0.08444  -0.102143  0  3.987629  0
C  C61  1  0.35369884  0.64199285  0.68934712  1  0  -0.078025  0  3.753734  0  0  -0.10249  0  4.001069  0  0  -0.10276  0  4.020813  0  0  -0.084465  -0.102059  0  3.987649  0
C  C62  1  0.85369929  0.85800335  0.68934692  1  0  -0.078097  0  3.753698  0  0  -0.102584  0  4.00104  0  0  -0.102832  0  4.020793  0  0  -0.084468  -0.102135  0  3.987619  0
C  C63  1  0.64630006  0.35800477  0.31065323  1  0  -0.078083  0  3.753666  0  0  -0.102501  0  4.001058  0  0  -0.102769  0  4.020804  0  0  -0.08446  -0.10207  0  3.987631  0
C  C64  1  0.11637621  0.02437581  0.24799226  1  0  -0.080366  0  3.685093  0  0  -0.061984  0  3.918711  0  0  -0.067763  0  3.938053  0  0  -0.001517  -0.058479  0  3.905983  0
C  C65  1  0.38362602  0.52437356  0.75200885  1  0  -0.080554  0  3.685467  0  0  -0.062101  0  3.918929  0  0  -0.067877  0  3.938266  0  0  -0.001581  -0.058588  0  3.906189  0
C  C66  1  0.88362636  0.97562181  0.75200887  1  0  -0.08055  0  3.68534  0  0  -0.06207  0  3.918807  0  0  -0.067847  0  3.938144  0  0  -0.001582  -0.058584  0  3.906105  0
C  C67  1  0.61637410  0.47562646  0.24799220  1  0  -0.080431  0  3.685254  0  0  -0.062098  0  3.918886  0  0  -0.067883  0  3.938238  0  0  -0.001542  -0.058568  0  3.906121  0
C  C68  1  0.09027208  0.86139605  0.27259718  1  0  0.045913  0  3.668185  0  0  0.046351  0  3.891188  0  0  0.048507  0  3.914535  0  0  0.011773  0.045051  0  3.875555  0
C  C69  1  0.40972738  0.36139389  0.72740188  1  0  0.04591  0  3.668121  0  0  0.046424  0  3.891011  0  0  0.048582  0  3.914355  0  0  0.011809  0.045114  0  3.875373  0
C  C70  1  0.90972681  0.13860757  0.72740188  1  0  0.045992  0  3.668224  0  0  0.046456  0  3.891178  0  0  0.048615  0  3.914523  0  0  0.011849  0.045161  0  3.875546  0
C  C71  1  0.59027274  0.63860734  0.27259787  1  0  0.045904  0  3.668193  0  0  0.04642  0  3.89115  0  0  0.048581  0  3.914495  0  0  0.011806  0.045106  0  3.875508  0
C  C72  1  0.12465543  0.08561098  0.15709487  1  0  0.684146  0  3.938243  0  0  0.633526  0  4.230561  0  0  0.66861  0  4.220152  0  0  0.216735  0.609621  0  4.236996  0
C  C73  1  0.37534429  0.58560934  0.84290433  1  0  0.684087  0  3.938402  0  0  0.633477  0  4.230652  0  0  0.668559  0  4.220249  0  0  0.216763  0.609583  0  4.237072  0
C  C74  1  0.87534592  0.91439024  0.84290557  1  0  0.684119  0  3.93842  0  0  0.633482  0  4.230694  0  0  0.668566  0  4.220287  0  0  0.216692  0.609584  0  4.237126  0
C  C75  1  0.62465583  0.41439068  0.15709478  1  0  0.684139  0  3.938212  0  0  0.633562  0  4.230485  0  0  0.668647  0  4.220075  0  0  0.21679  0.609661  0  4.236906  0
O  O76  1  0.06369605  0.64217592  0.06659290  1  0  -0.774366  0  2.017057  0  0  -0.708363  0  2.268557  0  0  -0.735771  0  2.258721  0  0  -0.396724  -0.689074  0  2.274824  0
O  O77  1  0.43630484  0.14217267  0.93340838  1  0  -0.77433  0  2.017041  0  0  -0.708335  0  2.268542  0  0  -0.735742  0  2.258702  0  0  -0.396743  -0.689046  0  2.27481  0
O  O78  1  0.93630407  0.35782530  0.93340879  1  0  -0.774309  0  2.017108  0  0  -0.70831  0  2.268612  0  0  -0.735714  0  2.25877  0  0  -0.396725  -0.689023  0  2.274878  0
O  O79  1  0.56369528  0.85782616  0.06659201  1  0  -0.774331  0  2.017058  0  0  -0.708338  0  2.268564  0  0  -0.735743  0  2.258722  0  0  -0.396734  -0.68905  0  2.274828  0
O  O80  1  0.92283532  0.86505161  0.09042086  1  0  -0.734757  0  2.038499  0  0  -0.674562  0  2.286583  0  0  -0.701752  0  2.277801  0  0  -0.363001  -0.655425  0  2.29208  0
O  O81  1  0.57716525  0.36504981  0.90957935  1  0  -0.734732  0  2.038494  0  0  -0.674534  0  2.286572  0  0  -0.701724  0  2.277786  0  0  -0.363012  -0.655403  0  2.292076  0
O  O82  1  0.07716603  0.13494962  0.90957958  1  0  -0.734694  0  2.03849  0  0  -0.674489  0  2.286564  0  0  -0.701683  0  2.277781  0  0  -0.362997  -0.655356  0  2.292064  0
O  O83  1  0.42283364  0.63495022  0.09041971  1  0  -0.734747  0  2.03846  0  0  -0.674544  0  2.286528  0  0  -0.701737  0  2.277746  0  0  -0.363011  -0.655415  0  2.292032  0
O  O84  1  0.23295701  0.03109411  0.11009593  1  0  -0.71241  0  1.992167  0  0  -0.653401  0  2.23884  0  0  -0.680604  0  2.23013  0  0  -0.378  -0.634274  0  2.244316  0
O  O85  1  0.26704275  0.53109169  0.88990381  1  0  -0.712341  0  1.992116  0  0  -0.653361  0  2.238796  0  0  -0.680563  0  2.23009  0  0  -0.378015  -0.634242  0  2.244275  0
O  O86  1  0.76704311  0.96890712  0.88990317  1  0  -0.712382  0  1.992173  0  0  -0.653381  0  2.238847  0  0  -0.680581  0  2.23014  0  0  -0.377967  -0.63425  0  2.244315  0
O  O87  1  0.73295736  0.46890833  0.11009530  1  0  -0.712388  0  1.992065  0  0  -0.653411  0  2.238747  0  0  -0.680611  0  2.230035  0  0  -0.378033  -0.634293  0  2.244228  0
O  O88  1  0.03175531  0.20483960  0.13478642  1  0  -0.766503  0  1.998805  0  0  -0.704329  0  2.247155  0  0  -0.731372  0  2.236407  0  0  -0.418873  -0.685174  0  2.253917  0
O  O89  1  0.46824430  0.70483679  0.86521300  1  0  -0.766448  0  1.998857  0  0  -0.704294  0  2.24721  0  0  -0.731339  0  2.236465  0  0  -0.418867  -0.685147  0  2.253981  0
O  O90  1  0.96824481  0.79516163  0.86521333  1  0  -0.766469  0  1.998867  0  0  -0.704291  0  2.247203  0  0  -0.731338  0  2.236455  0  0  -0.418852  -0.685149  0  2.253988  0
O  O91  1  0.53175460  0.29516203  0.13478606  1  0  -0.766497  0  1.998838  0  0  -0.704326  0  2.247144  0  0  -0.731367  0  2.236393  0  0  -0.418895  -0.685183  0  2.253925  0
