# generated using pymatgen
data_CoH18C20(NO)4
_symmetry_space_group_name_H-M   'P 1'
_cell_length_a   8.11424950
_cell_length_b   13.98752454
_cell_length_c   18.55299192
_cell_angle_alpha   93.96017641
_cell_angle_beta   89.99991519
_cell_angle_gamma   89.99960071
_symmetry_Int_Tables_number   1
_chemical_formula_structural   CoH18C20(NO)4
_chemical_formula_sum   'Co4 H72 C80 N16 O16'
_cell_volume   2100.70450382
_cell_formula_units_Z   4
loop_
 _symmetry_equiv_pos_site_id
 _symmetry_equiv_pos_as_xyz
  1  'x, y, z'
loop_
 _atom_site_type_symbol
 _atom_site_label
 _atom_site_symmetry_multiplicity
 _atom_site_fract_x
 _atom_site_fract_y
 _atom_site_fract_z
 _atom_site_occupancy
 _atom_site_pbe_bader_charge
 _atom_site_pbe_bader_spin_density
 _atom_site_pbe_cm5_charge
 _atom_site_pbe_ddec_charge
 _atom_site_pbe_ddec_spin_density
 _atom_site_pbe_ddec_sum_bond_order
 _atom_site_pbe_magmom
Co  Co0  1  0.90219933  0.74664313  0.96497505  1  1.207703  -2.562549  0.682514  0.855647  -2.781437  2.501216  -2.499
Co  Co1  1  0.40219813  0.75335763  0.53502633  1  1.20772  2.562557  0.682478  0.855593  2.781472  2.501249  2.499
Co  Co2  1  0.09780044  0.25335496  0.03502534  1  1.207751  -2.562628  0.682507  0.855671  -2.781586  2.501216  -2.499
Co  Co3  1  0.59780040  0.24664404  0.46497371  1  1.207737  2.562583  0.682521  0.855661  2.781525  2.501221  2.499
H  H4  1  0.42595153  0.00382969  0.94031126  1  0.044133  -3.8e-05  0.089083  0.120587  3.8e-05  1.026764  0.0
H  H5  1  0.92595109  0.49617056  0.55968802  1  0.044115  3.8e-05  0.089103  0.120602  -3.7e-05  1.026704  0.0
H  H6  1  0.57404701  0.99616984  0.05968975  1  0.044171  -3.8e-05  0.089096  0.12062  3.8e-05  1.026741  0.0
H  H7  1  0.07404991  0.50383112  0.44031041  1  0.044175  3.8e-05  0.089105  0.120645  -3.7e-05  1.026771  0.0
H  H8  1  0.46513528  0.08875514  0.87571047  1  0.065232  -1.3e-05  0.083951  0.112657  2.3e-05  1.025441  0.0
H  H9  1  0.96513441  0.41124494  0.62428878  1  0.06517  1.2e-05  0.083947  0.11265  -2.4e-05  1.025479  0.0
H  H10  1  0.53486449  0.91124367  0.12428996  1  0.065122  -1.2e-05  0.083945  0.112639  2.4e-05  1.025451  0.0
H  H11  1  0.03486782  0.58875603  0.37570961  1  0.065184  1.2e-05  0.083949  0.112658  -2.4e-05  1.025435  0.0
H  H12  1  0.26948681  0.08637904  0.91976258  1  0.023017  4e-06  0.088499  0.123646  0.000107  1.022858  0.0
H  H13  1  0.76948607  0.41362328  0.58023745  1  0.023001  -4e-06  0.088487  0.123636  -0.000107  1.02289  0.0
H  H14  1  0.73051296  0.91362120  0.08023792  1  0.023005  3e-06  0.088495  0.12366  0.000107  1.022847  0.0
H  H15  1  0.23051494  0.58637768  0.41976148  1  0.022974  -4e-06  0.088528  0.12368  -0.000107  1.02285  0.0
H  H16  1  0.40362486  0.13630455  0.03865751  1  0.054158  -0.001137  0.100277  0.100688  -0.000526  1.021509  0.0
H  H17  1  0.90362220  0.36369606  0.46134197  1  0.054134  0.001137  0.100263  0.10066  0.000526  1.021499  0.0
H  H18  1  0.59637737  0.86369641  0.96134303  1  0.054181  -0.001137  0.10027  0.100673  -0.000527  1.021516  0.0
H  H19  1  0.09637634  0.63630419  0.53865638  1  0.054205  0.001137  0.100284  0.100694  0.000527  1.021529  0.0
H  H20  1  0.59905844  0.13835715  0.99657393  1  0.074677  -0.000136  0.104343  0.113254  7.1e-05  0.982336  0.0
H  H21  1  0.09905728  0.36164086  0.50342544  1  0.074705  0.000136  0.104336  0.113284  -7.1e-05  0.982293  0.0
H  H22  1  0.40094256  0.86164238  0.00342600  1  0.074693  -0.000136  0.104339  0.113264  7.1e-05  0.982336  0.0
H  H23  1  0.90094372  0.63836155  0.49657141  1  0.074732  0.000136  0.104359  0.113278  -7.1e-05  0.982291  0.0
H  H24  1  0.66961522  0.47296714  0.87535282  1  0.050205  -0.000574  0.11138  0.127875  -0.000192  0.983863  0.0
H  H25  1  0.16961398  0.02703415  0.62464883  1  0.050184  0.000574  0.111377  0.127898  0.000192  0.983813  0.0
H  H26  1  0.33038578  0.52703596  0.12464999  1  0.050215  -0.000574  0.111383  0.127896  -0.000191  0.9838  0.0
H  H27  1  0.83038579  0.97296895  0.37535237  1  0.050217  0.000574  0.111389  0.127911  0.000192  0.983798  0.0
H  H28  1  0.48019328  0.61599791  0.87217902  1  0.060599  1e-05  0.098168  0.097078  9.3e-05  1.030033  0.0
H  H29  1  0.98019396  0.88400181  0.62782226  1  0.0606  -1e-05  0.098185  0.097121  -9.3e-05  1.030007  0.0
H  H30  1  0.51980279  0.38400233  0.12782203  1  0.060592  1.1e-05  0.098161  0.097084  9.3e-05  1.030027  0.0
H  H31  1  0.01980827  0.11599915  0.37217775  1  0.060584  -1e-05  0.098168  0.097077  -9.3e-05  1.030038  0.0
H  H32  1  0.08908577  0.46265855  0.97127644  1  0.157671  -0.000426  0.111073  0.134662  -3.3e-05  1.039867  0.0
H  H33  1  0.58908725  0.03734022  0.52872244  1  0.157648  0.000426  0.111096  0.134715  3.3e-05  1.039886  0.0
H  H34  1  0.91091276  0.53733811  0.02872334  1  0.15766  -0.000427  0.111094  0.134721  -3.3e-05  1.039882  0.0
H  H35  1  0.41091252  0.96266003  0.47127699  1  0.157656  0.000426  0.11109  0.134731  3.3e-05  1.039871  0.0
H  H36  1  0.24506807  0.46517622  0.28269852  1  0.038682  -2.5e-05  0.094301  0.127898  3e-06  0.990657  0.0
H  H37  1  0.74506772  0.03482434  0.21729729  1  0.038702  2.5e-05  0.094313  0.127898  -3e-06  0.990636  0.0
H  H38  1  0.75493170  0.53482188  0.71729971  1  0.038633  -2.5e-05  0.094307  0.127878  3e-06  0.990614  0.0
H  H39  1  0.25493082  0.96517733  0.78270384  1  0.038659  2.5e-05  0.094297  0.127863  -3e-06  0.990715  0.0
H  H40  1  0.37352540  0.36431355  0.29153008  1  0.05316  -2.2e-05  0.087695  0.120943  -7.7e-05  1.025334  0.0
H  H41  1  0.87352140  0.13568648  0.20846723  1  0.053167  2.2e-05  0.087694  0.12093  7.7e-05  1.025316  0.0
H  H42  1  0.62647437  0.63568527  0.70846981  1  0.053167  -2.1e-05  0.087691  0.120951  -7.7e-05  1.025314  0.0
H  H43  1  0.12647591  0.86431376  0.79153382  1  0.05314  2.1e-05  0.087712  0.120983  7.7e-05  1.02541  0.0
H  H44  1  0.16654874  0.36161194  0.32096797  1  0.0472  -5.4e-05  0.091773  0.129901  -3.8e-05  0.991955  0.0
H  H45  1  0.66654727  0.13838966  0.17902957  1  0.047132  5.4e-05  0.091752  0.129857  3.9e-05  0.992065  0.0
H  H46  1  0.83345227  0.63838759  0.67903304  1  0.047214  -5.4e-05  0.091771  0.129916  -3.8e-05  0.991928  0.0
H  H47  1  0.33345250  0.86161130  0.82097098  1  0.047147  5.4e-05  0.091746  0.129855  3.8e-05  0.992014  0.0
H  H48  1  0.27066697  0.37860165  0.16175518  1  0.071998  -0.000845  0.105305  0.108274  -0.000539  1.006774  0.0
H  H49  1  0.77066640  0.12139594  0.33824099  1  0.072382  0.000844  0.105319  0.10828  0.000539  1.006783  0.0
H  H50  1  0.72933156  0.62139429  0.83824510  1  0.07222  -0.000846  0.10526  0.108202  -0.000539  1.006847  0.0
H  H51  1  0.22933214  0.87860718  0.66175913  1  0.072336  0.000844  0.105305  0.108281  0.000539  1.00678  0.0
H  H52  1  0.06812944  0.37193049  0.19200180  1  0.073489  -7.4e-05  0.104876  0.114693  7.6e-05  0.99042  0.0
H  H53  1  0.56812642  0.12806865  0.30799513  1  0.07346  7.4e-05  0.104881  0.114665  -7.6e-05  0.99042  0.0
H  H54  1  0.93187033  0.62806617  0.80799852  1  0.073469  -7.5e-05  0.104866  0.114639  7.6e-05  0.990385  0.0
H  H55  1  0.43187088  0.87193231  0.69200542  1  0.073524  7.5e-05  0.10489  0.11468  -7.6e-05  0.990418  0.0
H  H56  1  0.29301143  0.98949887  0.29102170  1  0.107572  -0.00053  0.102582  0.116544  -0.000246  1.030744  0.0
H  H57  1  0.79300646  0.51050047  0.20897823  1  0.10792  0.00053  0.102597  0.116573  0.000246  1.030785  0.0
H  H58  1  0.70699820  0.01049637  0.70897638  1  0.108124  -0.00053  0.102643  0.116634  -0.000246  1.03075  0.0
H  H59  1  0.20700070  0.48950120  0.79102289  1  0.108165  0.00053  0.102583  0.116562  0.000246  1.030802  0.0
H  H60  1  0.22635439  0.84579898  0.20854322  1  0.083587  2e-06  0.104923  0.110631  3.5e-05  0.997937  0.0
H  H61  1  0.72634865  0.65419991  0.29145889  1  0.083636  -3e-06  0.104932  0.110635  -3.6e-05  0.99795  0.0
H  H62  1  0.77365771  0.15419626  0.79145486  1  0.083672  1e-06  0.104894  0.110642  3.5e-05  0.997935  0.0
H  H63  1  0.27365728  0.34580319  0.70854231  1  0.083694  -3e-06  0.104902  0.11067  -3.6e-05  0.997931  0.0
H  H64  1  0.08772324  0.02470251  0.03783885  1  0.144773  -0.00036  0.110289  0.131035  -1.9e-05  1.04463  0.0
H  H65  1  0.58772170  0.47529581  0.46216125  1  0.144782  0.000361  0.110256  0.130992  2e-05  1.044728  0.0
H  H66  1  0.91227406  0.97529487  0.96216097  1  0.144787  -0.000361  0.110269  0.131003  -2e-05  1.044676  0.0
H  H67  1  0.41227067  0.52470658  0.53783776  1  0.14478  0.000361  0.110256  0.131008  2e-05  1.044725  0.0
H  H68  1  0.66994659  0.27971839  0.92283832  1  0.569248  -0.00035  0.309595  0.304665  -0.000203  0.997946  0.0
H  H69  1  0.16994318  0.22028220  0.57716168  1  0.56938  0.00035  0.309594  0.304622  0.000203  0.998004  0.0
H  H70  1  0.33005565  0.72028257  0.07716277  1  0.569319  -0.00035  0.309627  0.304721  -0.000203  0.997904  0.0
H  H71  1  0.83005782  0.77972020  0.42283840  1  0.569464  0.00035  0.309596  0.304669  0.000203  0.997982  0.0
H  H72  1  0.25818363  0.19697841  0.29608479  1  0.559484  -0.000207  0.306801  0.296742  -0.000162  1.006837  0.0
H  H73  1  0.75818133  0.30302137  0.20391420  1  0.559474  0.000207  0.306796  0.296791  0.000162  1.006747  0.0
H  H74  1  0.74181738  0.80301897  0.70391556  1  0.559501  -0.000207  0.306809  0.296794  -0.000162  1.006757  0.0
H  H75  1  0.24181598  0.69697960  0.79608527  1  0.559483  0.000207  0.306808  0.296819  0.000162  1.006708  0.0
C  C76  1  0.40275241  0.07775854  0.92697946  1  -0.081638  -4.7e-05  -0.242651  -0.344756  -4e-05  3.918205  0.0
C  C77  1  0.90275035  0.42224252  0.57301988  1  -0.081549  4.6e-05  -0.242644  -0.344766  3.9e-05  3.918206  0.0
C  C78  1  0.59724859  0.92224170  0.07302105  1  -0.081581  -4.7e-05  -0.242665  -0.344811  -4e-05  3.918212  0.0
C  C79  1  0.09725065  0.57775916  0.42697909  1  -0.081608  4.6e-05  -0.242724  -0.344899  3.9e-05  3.918255  0.0
C  C80  1  0.46654706  0.14868450  0.98771493  1  0.021007  -0.001994  -0.153075  -0.212756  -0.001224  3.975182  -0.001
C  C81  1  0.96654483  0.35131558  0.51228431  1  0.020991  0.001996  -0.153037  -0.212746  0.001225  3.975064  0.001
C  C82  1  0.53345394  0.85131646  0.01228562  1  0.02101  -0.001996  -0.153032  -0.212719  -0.001225  3.975212  -0.001
C  C83  1  0.03345617  0.64868611  0.48771358  1  0.020984  0.001996  -0.153043  -0.212701  0.001225  3.975201  0.001
C  C84  1  0.43743720  0.24962613  0.97087917  1  0.99814  -0.003537  0.242363  0.388741  -0.002334  3.928054  -0.003
C  C85  1  0.93743366  0.25037479  0.52912014  1  0.998178  0.003538  0.242309  0.388736  0.002335  3.927831  0.003
C  C86  1  0.56256504  0.75037555  0.02912142  1  0.998151  -0.00354  0.242313  0.388732  -0.002336  3.92791  -0.003
C  C87  1  0.06256735  0.74962618  0.47087879  1  0.998133  0.003539  0.242334  0.388689  0.002335  3.927996  0.003
C  C88  1  0.48073927  0.38987657  0.92520732  1  0.345285  -0.00378  0.102922  0.161678  -0.001937  4.025664  -0.003
C  C89  1  0.98073602  0.11012345  0.57479191  1  0.345305  0.00378  0.102895  0.161539  0.001937  4.025688  0.003
C  C90  1  0.51926420  0.61012509  0.07479542  1  0.345296  -0.003781  0.102955  0.161675  -0.001938  4.025748  -0.003
C  C91  1  0.01926375  0.88987895  0.42520764  1  0.345267  0.00378  0.102908  0.161599  0.001937  4.025582  0.003
C  C92  1  0.54354809  0.47133739  0.89536447  1  0.036324  -0.001205  -0.092496  -0.170036  -0.000631  4.002612  -0.001
C  C93  1  0.04354812  0.02866515  0.60463734  1  0.036331  0.001205  -0.092517  -0.170021  0.000631  4.002551  0.001
C  C94  1  0.45645168  0.52866572  0.10463781  1  0.036287  -0.001205  -0.092544  -0.170088  -0.000631  4.002667  -0.001
C  C95  1  0.95645534  0.97133940  0.39536340  1  0.036371  0.001205  -0.092536  -0.170084  0.000631  4.002596  0.001
C  C96  1  0.43901300  0.54973237  0.89397334  1  0.007376  -0.00165  -0.094362  -0.107975  -0.000782  4.034348  -0.001
C  C97  1  0.93901296  0.95026824  0.60602693  1  0.007392  0.00165  -0.094386  -0.10815  0.000782  4.034409  0.001
C  C98  1  0.56098554  0.45026930  0.10602724  1  0.007384  -0.00165  -0.0944  -0.108106  -0.000782  4.034418  -0.001
C  C99  1  0.06098927  0.04973415  0.39397423  1  0.007347  0.00165  -0.094333  -0.107994  0.000781  4.034428  0.001
C  C100  1  0.27606876  0.54717858  0.92076896  1  -0.043162  -0.004422  -0.03357  -0.067134  -0.002261  4.03009  -0.003
C  C101  1  0.77607124  0.95282056  0.57923081  1  -0.043033  0.004422  -0.033542  -0.067014  0.002261  4.029933  0.003
C  C102  1  0.72392732  0.45281952  0.07923036  1  -0.043  -0.004421  -0.03353  -0.06698  -0.00226  4.029913  -0.003
C  C103  1  0.22393346  0.04718111  0.42076978  1  -0.043023  0.004421  -0.033571  -0.067131  0.002261  4.030076  0.003
C  C104  1  0.21400924  0.46527134  0.95057687  1  -0.017054  -0.002528  -0.080679  -0.157681  -0.001135  3.919148  -0.001
C  C105  1  0.71400945  0.03472763  0.54942086  1  -0.017222  0.002528  -0.080664  -0.157802  0.001135  3.918994  0.001
C  C106  1  0.78599053  0.53472675  0.04942190  1  -0.017139  -0.002529  -0.080674  -0.157753  -0.001135  3.919118  -0.001
C  C107  1  0.28599402  0.96527333  0.45057753  1  -0.017267  0.002529  -0.080641  -0.157752  0.001135  3.919015  0.001
C  C108  1  0.31872918  0.38683757  0.95357319  1  0.35348  -0.003246  0.087348  0.148067  -0.00213  4.052077  -0.003
C  C109  1  0.81872846  0.11316241  0.54642399  1  0.353387  0.003247  0.087364  0.148329  0.00213  4.051729  0.003
C  C110  1  0.68127305  0.61316267  0.04642732  1  0.353315  -0.003248  0.087395  0.148186  -0.002131  4.052046  -0.003
C  C111  1  0.18127007  0.88683999  0.45357556  1  0.35341  0.003248  0.087344  0.148267  0.002131  4.051845  0.003
C  C112  1  0.16993520  0.63380486  0.91743175  1  1.536042  -0.003564  0.2047  0.563896  -0.003547  4.216259  -0.002
C  C113  1  0.66994241  0.86619328  0.58257126  1  1.536499  0.003564  0.204748  0.564153  0.003547  4.216083  0.002
C  C114  1  0.83005964  0.36619180  0.08256857  1  1.536576  -0.003564  0.20462  0.563849  -0.003547  4.216351  -0.002
C  C115  1  0.33006476  0.13380840  0.41742986  1  1.536367  0.003564  0.204596  0.563883  0.003547  4.216343  0.002
C  C116  1  0.24782913  0.38657681  0.27884170  1  -0.0756  -0.000213  -0.241613  -0.337954  -6.2e-05  3.9261  0.0
C  C117  1  0.74782781  0.11342445  0.22115414  1  -0.075638  0.000213  -0.241585  -0.337883  6.2e-05  3.926247  0.0
C  C118  1  0.75217064  0.61342128  0.72115815  1  -0.075584  -0.000213  -0.241613  -0.337985  -6.2e-05  3.926046  0.0
C  C119  1  0.25216949  0.88657794  0.77884648  1  -0.075637  0.000213  -0.241604  -0.337944  6.2e-05  3.926385  0.0
C  C120  1  0.19416340  0.34827235  0.20351136  1  -0.019783  -0.001499  -0.151459  -0.210617  -0.000886  3.99193  -0.001
C  C121  1  0.69416014  0.15172555  0.29648541  1  -0.019966  0.001501  -0.151506  -0.21064  0.000886  3.99204  0.001
C  C122  1  0.80583514  0.65172430  0.79648949  1  -0.019927  -0.001501  -0.151403  -0.210451  -0.000887  3.991943  -0.001
C  C123  1  0.30583593  0.84827685  0.70351521  1  -0.019705  0.001501  -0.15149  -0.210603  0.000886  3.992027  0.001
C  C124  1  0.19884348  0.24194929  0.19005524  1  1.014928  -0.00255  0.236742  0.375299  -0.001807  3.932123  -0.002
C  C125  1  0.69884013  0.25804931  0.30994157  1  1.014738  0.002552  0.236786  0.375377  0.001808  3.932141  0.002
C  C126  1  0.80115382  0.75804737  0.80994453  1  1.014851  -0.002552  0.236698  0.375233  -0.001809  3.932187  -0.002
C  C127  1  0.30115471  0.74195308  0.69005960  1  1.014433  0.002554  0.236761  0.375341  0.001809  3.93213  0.002
C  C128  1  0.22580189  0.08741847  0.20939980  1  0.412682  -0.003414  0.094375  0.143516  -0.001742  4.029324  -0.003
C  C129  1  0.72580168  0.41258001  0.29059914  1  0.412433  0.003415  0.094376  0.14355  0.001743  4.029489  0.003
C  C130  1  0.77419788  0.91257748  0.79060048  1  0.413201  -0.003415  0.094301  0.1435  -0.001743  4.029606  -0.003
C  C131  1  0.27419932  0.58742167  0.70939983  1  0.413203  0.003415  0.094387  0.14356  0.001743  4.029493  0.003
C  C132  1  0.25063171  0.99741373  0.23614608  1  -0.122921  -0.001266  -0.096842  -0.169049  -0.000681  4.007921  -0.001
C  C133  1  0.75062665  0.50258507  0.26385331  1  -0.123102  0.001267  -0.096891  -0.169154  0.000681  4.008036  0.001
C  C134  1  0.74937299  0.00258222  0.76385258  1  -0.123733  -0.001267  -0.09692  -0.169217  -0.000681  4.008138  -0.001
C  C135  1  0.24937558  0.49741660  0.73614728  1  -0.123739  0.001267  -0.096865  -0.169102  0.000682  4.008084  0.001
C  C136  1  0.21298984  0.91771548  0.19016366  1  -0.042434  -0.001417  -0.09045  -0.101868  -0.000696  4.007731  -0.001
C  C137  1  0.71298491  0.58228276  0.30983626  1  -0.042418  0.001417  -0.090427  -0.101832  0.000696  4.007809  0.001
C  C138  1  0.78701609  0.08227976  0.80983496  1  -0.042223  -0.001416  -0.090422  -0.101904  -0.000696  4.007815  -0.001
C  C139  1  0.28701856  0.41771963  0.69016383  1  -0.042199  0.001417  -0.090401  -0.101991  0.000696  4.007814  0.001
C  C140  1  0.15128488  0.92683223  0.11970058  1  -0.003539  -0.004781  -0.028019  -0.055481  -0.002454  4.017093  -0.004
C  C141  1  0.65128228  0.57316555  0.38029936  1  -0.00371  0.00478  -0.02807  -0.055551  0.002454  4.017065  0.004
C  C142  1  0.84871489  0.07316300  0.88029858  1  -0.003841  -0.00478  -0.028041  -0.055493  -0.002454  4.017043  -0.004
C  C143  1  0.34871503  0.42683829  0.61969865  1  -0.003798  0.00478  -0.028017  -0.055343  0.002454  4.016831  0.004
C  C144  1  0.13415386  0.01687463  0.09205027  1  0.03035  -0.001935  -0.082007  -0.160558  -0.000839  3.913688  -0.001
C  C145  1  0.63414995  0.48312208  0.40794917  1  0.030497  0.001936  -0.081931  -0.160487  0.000839  3.913702  0.001
C  C146  1  0.86584221  0.98312132  0.90795000  1  0.030494  -0.001936  -0.081976  -0.160444  -0.000839  3.913609  -0.001
C  C147  1  0.36584243  0.51688104  0.59204934  1  0.030546  0.001936  -0.081988  -0.160609  0.000839  3.913743  0.001
C  C148  1  0.17353711  0.09730613  0.13744013  1  0.337021  -0.002927  0.083979  0.138519  -0.001922  4.071373  -0.003
C  C149  1  0.67353431  0.40269113  0.36255824  1  0.33705  0.002927  0.083936  0.138495  0.001922  4.071573  0.003
C  C150  1  0.82646020  0.90268910  0.86256065  1  0.336702  -0.002929  0.083944  0.138331  -0.001923  4.071576  -0.003
C  C151  1  0.32646053  0.59731127  0.63744076  1  0.336686  0.002928  0.083858  0.138395  0.001923  4.071594  0.003
C  C152  1  0.09701675  0.83838418  0.07614824  1  1.538287  -0.002585  0.209118  0.568791  -0.002928  4.211927  -0.002
C  C153  1  0.59701911  0.66161310  0.42385278  1  1.539295  0.002584  0.209169  0.568855  0.002928  4.211891  0.002
C  C154  1  0.90298302  0.16161177  0.92385096  1  1.539317  -0.002583  0.209172  0.568894  -0.002927  4.211861  -0.002
C  C155  1  0.40297697  0.33838930  0.57614569  1  1.539143  0.002584  0.209219  0.568883  0.002928  4.211636  0.002
N  N156  1  0.54991191  0.30232410  0.93651796  1  -1.302032  -0.007192  -0.366615  -0.307021  -0.003284  3.536718  -0.005
N  N157  1  0.04990883  0.19767626  0.56348211  1  -1.302025  0.007193  -0.366633  -0.30701  0.003285  3.536651  0.005
N  N158  1  0.45009032  0.69767757  0.06348425  1  -1.302055  -0.007194  -0.366655  -0.307118  -0.003285  3.53665  -0.005
N  N159  1  0.95009094  0.80232542  0.43651740  1  -1.301962  0.007194  -0.366616  -0.307077  0.003285  3.536687  0.005
N  N160  1  0.29602147  0.29810323  0.98252708  1  -1.212961  -0.069881  -0.360294  -0.435648  -0.036608  3.50598  -0.044
N  N161  1  0.79601978  0.20189756  0.51747178  1  -1.212969  0.069886  -0.360284  -0.435713  0.036612  3.505947  0.044
N  N162  1  0.70397953  0.70189630  0.01747339  1  -1.212899  -0.069893  -0.360276  -0.435656  -0.036614  3.506039  -0.044
N  N163  1  0.20398122  0.79810484  0.48252723  1  -1.212935  0.069893  -0.360259  -0.435595  0.036614  3.505991  0.044
N  N164  1  0.23911120  0.17985370  0.24076395  1  -1.312434  -0.005743  -0.371932  -0.312663  -0.002674  3.537935  -0.004
N  N165  1  0.73910851  0.32014616  0.25923506  1  -1.312451  0.005743  -0.371912  -0.312696  0.002674  3.538074  0.004
N  N166  1  0.76088610  0.82014296  0.75923583  1  -1.312433  -0.005744  -0.371872  -0.312583  -0.002675  3.537996  -0.004
N  N167  1  0.26088756  0.67985552  0.74076445  1  -1.312515  0.005744  -0.371904  -0.312725  0.002675  3.538169  0.004
N  N168  1  0.16150462  0.19500041  0.12663519  1  -1.222844  -0.066328  -0.365568  -0.448613  -0.034986  3.556314  -0.042
N  N169  1  0.66150173  0.30499691  0.37336211  1  -1.222772  0.06633  -0.365543  -0.448627  0.034989  3.556364  0.042
N  N170  1  0.83849269  0.80499482  0.87336450  1  -1.223023  -0.066337  -0.365452  -0.448445  -0.03499  3.556314  -0.042
N  N171  1  0.33849188  0.69500620  0.62663801  1  -1.222769  0.066336  -0.365461  -0.448476  0.03499  3.556248  0.042
O  O172  1  0.21813274  0.70611836  0.88597922  1  -1.188373  -0.014488  -0.326862  -0.577261  -0.007093  2.194825  -0.011
O  O173  1  0.71814688  0.79388316  0.61402609  1  -1.188378  0.014483  -0.326932  -0.577421  0.00709  2.19477  0.011
O  O174  1  0.78185470  0.29387974  0.11402063  1  -1.188464  -0.014483  -0.326833  -0.577247  -0.00709  2.194938  -0.011
O  O175  1  0.28186029  0.20611994  0.38597726  1  -1.188241  0.014484  -0.326848  -0.577252  0.007091  2.194891  0.011
O  O176  1  0.02720971  0.62960919  0.94830442  1  -1.143722  -0.10404  -0.322273  -0.548473  -0.053323  2.419477  -0.079
O  O177  1  0.52721451  0.87038883  0.55169760  1  -1.144097  0.104038  -0.322247  -0.548611  0.053323  2.419531  0.079
O  O178  1  0.97278636  0.37038604  0.05169582  1  -1.144154  -0.104023  -0.322258  -0.54852  -0.053312  2.419516  -0.079
O  O179  1  0.47279019  0.12961142  0.44830237  1  -1.144216  0.104033  -0.322237  -0.548497  0.053317  2.419544  0.079
O  O180  1  0.14089065  0.75651662  0.09295870  1  -1.189622  -0.009213  -0.327345  -0.560909  -0.004274  2.163516  -0.006
O  O181  1  0.64089701  0.74347975  0.40704440  1  -1.190652  0.009211  -0.327401  -0.560908  0.004273  2.163551  0.006
O  O182  1  0.85910789  0.24347932  0.90704157  1  -1.190466  -0.009208  -0.327406  -0.560974  -0.004272  2.163564  -0.006
O  O183  1  0.35910399  0.25652265  0.59295461  1  -1.190479  0.00921  -0.327385  -0.560887  0.004273  2.163477  0.006
O  O184  1  0.00153535  0.85264350  0.02181002  1  -1.13948  -0.104711  -0.320856  -0.549479  -0.053779  2.410933  -0.08
O  O185  1  0.50152906  0.64735490  0.47818951  1  -1.139472  0.104711  -0.320874  -0.549515  0.05378  2.410856  0.08
O  O186  1  0.99846812  0.14735389  0.97818764  1  -1.139514  -0.104687  -0.320871  -0.549515  -0.053767  2.410822  -0.08
O  O187  1  0.49846701  0.35264679  0.52180838  1  -1.139553  0.104706  -0.320926  -0.549562  0.053777  2.410762  0.08
