# generated using pymatgen
data_KFeH18C15(NO5)2
_symmetry_space_group_name_H-M   'P 1'
_cell_length_a   7.56181584
_cell_length_b   9.20223321
_cell_length_c   13.34852530
_cell_angle_alpha   75.79172585
_cell_angle_beta   81.22260899
_cell_angle_gamma   78.78299994
_symmetry_Int_Tables_number   1
_chemical_formula_structural   KFeH18C15(NO5)2
_chemical_formula_sum   'K2 Fe2 H36 C30 N4 O20'
_cell_volume   877.86423865
_cell_formula_units_Z   2
loop_
 _symmetry_equiv_pos_site_id
 _symmetry_equiv_pos_as_xyz
  1  'x, y, z'
loop_
 _atom_site_type_symbol
 _atom_site_label
 _atom_site_symmetry_multiplicity
 _atom_site_fract_x
 _atom_site_fract_y
 _atom_site_fract_z
 _atom_site_occupancy
 _atom_site_hle17_ddec_charge
 _atom_site_hle17_ddec_spin_density
 _atom_site_hle17_ddec_sum_bond_order
 _atom_site_hle17_magmom
 _atom_site_hse06_10hf_ddec_charge
 _atom_site_hse06_10hf_ddec_spin_density
 _atom_site_hse06_10hf_ddec_sum_bond_order
 _atom_site_hse06_10hf_magmom
 _atom_site_hse06_ddec_charge
 _atom_site_hse06_ddec_spin_density
 _atom_site_hse06_ddec_sum_bond_order
 _atom_site_hse06_magmom
 _atom_site_pbe_cm5_charge
 _atom_site_pbe_ddec_charge
 _atom_site_pbe_ddec_spin_density
 _atom_site_pbe_ddec_sum_bond_order
 _atom_site_pbe_magmom
K  K0  1  0.38284345  0.70413676  0.89636445  1  0.914514  0.000313  0.464498  0.0  0.864309  0.000358  0.656861  0.0  0.879608  0.000239  0.632768  0.0  0.773978  0.853016  0.00046  0.674042  0.0
K  K1  1  0.61715326  0.29586672  0.10363744  1  0.914511  -0.000313  0.464508  0.0  0.864306  -0.000356  0.656858  0.0  0.879602  -0.000255  0.632765  0.0  0.773983  0.853014  -0.00046  0.674039  0.0
Fe  Fe2  1  0.74519660  0.30034204  0.76810383  1  0.793902  -1.394905  2.823461  -1.156  0.811585  -1.12426  3.246696  -0.993  0.914193  -1.157081  3.176199  -1.026  0.787362  0.746701  -1.0897  3.294437  -0.957
Fe  Fe3  1  0.25480252  0.69965575  0.23189657  1  0.793902  1.394896  2.823395  1.156  0.811571  1.124255  3.246688  0.993  0.914207  1.157089  3.176118  1.026  0.787347  0.746685  1.089697  3.294413  0.957
H  H4  1  0.09497501  0.93349261  0.76985741  1  0.090714  0.001324  0.917551  0.002  0.106596  0.00038  0.977928  0.001  0.1085  0.000343  0.976081  0.001  0.118512  0.104961  0.00039  0.979481  0.001
H  H5  1  0.90502683  0.06650518  0.23014574  1  0.090703  -0.001324  0.91756  -0.002  0.106587  -0.00038  0.977947  -0.001  0.10849  -0.000343  0.9761  -0.001  0.118499  0.104949  -0.00039  0.9795  -0.001
H  H6  1  0.06310095  0.06719173  0.84924579  1  0.096241  0.000123  0.927975  0.0  0.109554  5.8e-05  0.990813  0.0  0.111336  6.2e-05  0.989018  0.0  0.119965  0.107999  5.5e-05  0.992477  0.0
H  H7  1  0.93689506  0.93280834  0.15075525  1  0.096215  -0.000129  0.927909  0.0  0.109499  -5.8e-05  0.990806  0.0  0.111282  -6.2e-05  0.989008  0.0  0.119939  0.107963  -5.5e-05  0.992442  0.0
H  H8  1  0.68749505  0.01409018  0.67081749  1  0.135435  4e-05  0.917631  0.0  0.151579  -1e-05  0.971617  0.0  0.153716  2.1e-05  0.970962  0.0  0.131183  0.149981  -1.8e-05  0.972329  0.0
H  H9  1  0.31252332  0.98590413  0.32917275  1  0.13555  -3.8e-05  0.917529  0.0  0.151694  1e-05  0.971492  0.0  0.153829  -2.1e-05  0.970836  0.0  0.131201  0.150068  1.8e-05  0.97224  0.0
H  H10  1  0.92190559  0.97980829  0.63172157  1  0.131733  0.000535  0.900577  0.001  0.145143  0.000252  0.955887  0.0  0.148278  0.000259  0.953737  0.0  0.123745  0.142702  0.000224  0.95736  0.0
H  H11  1  0.07811360  0.02020307  0.36827092  1  0.131714  -0.000536  0.900572  -0.001  0.145138  -0.000252  0.955896  0.0  0.148276  -0.000258  0.953735  0.0  0.123738  0.142695  -0.000224  0.957364  0.0
H  H12  1  0.07634988  0.49703921  0.83270399  1  0.133764  0.000426  0.916869  0.001  0.148826  0.000147  0.971  0.0  0.151875  0.000174  0.968953  0.0  0.132499  0.146544  0.000118  0.972701  0.0
H  H13  1  0.92364440  0.50295633  0.16730248  1  0.133725  -0.000431  0.916779  -0.001  0.148807  -0.000147  0.970946  0.0  0.15186  -0.000174  0.968898  0.0  0.132504  0.146533  -0.000118  0.972641  0.0
H  H14  1  0.19353765  0.31435582  0.82593426  1  0.127462  0.000221  0.942805  0.0  0.136374  0.000107  1.008758  0.0  0.140839  9.5e-05  1.005295  0.0  0.126728  0.132953  0.00012  1.011472  0.0
H  H15  1  0.80645574  0.68563745  0.17407343  1  0.127341  -0.000215  0.942812  0.0  0.136337  -0.000107  1.008715  0.0  0.140803  -9.4e-05  1.005255  0.0  0.126711  0.132916  -0.00012  1.011429  0.0
H  H16  1  0.31655685  0.95793426  0.64025640  1  0.096967  2.5e-05  0.971633  0.0  0.10474  -1e-06  1.040414  0.0  0.108304  -1e-06  1.037518  0.0  0.105705  0.102065  4e-06  1.042788  0.0
H  H17  1  0.68344836  0.04206012  0.35974927  1  0.096968  -3.2e-05  0.971692  0.0  0.104739  1e-06  1.040474  0.0  0.108301  1e-06  1.03758  0.0  0.105717  0.102062  -4e-06  1.042844  0.0
H  H18  1  0.43816262  0.39264524  0.46130254  1  0.096767  7.3e-05  0.946627  0.0  0.107948  -1e-06  1.00577  0.0  0.111109  -1e-05  1.003772  0.0  0.107568  0.105568  3e-06  1.00745  0.0
H  H19  1  0.56183558  0.60735028  0.53869758  1  0.096845  -7.8e-05  0.946539  0.0  0.108038  1e-06  1.005675  0.0  0.111206  1e-05  1.003663  0.0  0.10761  0.10566  -3e-06  1.007359  0.0
H  H20  1  0.19278841  0.52066050  0.56540523  1  0.106276  -0.000174  1.00041  0.0  0.112439  -4.1e-05  1.070722  0.0  0.116903  -4.3e-05  1.067073  0.0  0.105846  0.109123  -4.1e-05  1.073431  0.0
H  H21  1  0.80721226  0.47933616  0.43459522  1  0.106297  0.000171  1.000337  0.0  0.112475  4.1e-05  1.070636  0.0  0.116933  4.3e-05  1.066992  0.0  0.105846  0.109159  4.1e-05  1.073344  0.0
H  H22  1  0.50419924  0.10979220  0.49702554  1  0.087389  -8.4e-05  0.985007  0.0  0.098989  -1e-06  1.047112  0.0  0.101187  3e-06  1.046863  0.0  0.10217  0.097357  -7e-06  1.047595  0.0
H  H23  1  0.49580032  0.89020332  0.50297595  1  0.087431  8.4e-05  0.984919  0.0  0.09904  1e-06  1.047006  0.0  0.10124  -2e-06  1.046751  0.0  0.102178  0.097408  7e-06  1.04749  0.0
H  H24  1  0.89697572  0.56142657  0.59957491  1  0.121013  7.6e-05  0.944871  0.0  0.131971  8e-05  1.008379  0.0  0.134118  7.8e-05  1.008443  0.0  0.122289  0.130254  7.5e-05  1.00857  0.0
H  H25  1  0.10303012  0.43857121  0.40042712  1  0.121004  -7.2e-05  0.944864  0.0  0.131942  -8e-05  1.008395  0.0  0.134082  -7.7e-05  1.008477  0.0  0.122278  0.13023  -7.5e-05  1.008575  0.0
H  H26  1  0.01170113  0.62600139  0.68356383  1  0.121627  0.000475  0.947457  0.001  0.134393  0.000246  1.004887  0.0  0.13753  0.0003  1.002353  0.001  0.118569  0.132087  0.000191  1.006728  0.0
H  H27  1  0.98829718  0.37399414  0.31644302  1  0.12156  -0.000476  0.947525  -0.001  0.134333  -0.000246  1.004944  0.0  0.137469  -0.0003  1.002412  -0.001  0.118548  0.13203  -0.000191  1.006778  0.0
H  H28  1  0.78826758  0.98991270  0.92347714  1  0.134246  0.000106  0.913127  0.0  0.14465  0.000119  0.974139  0.0  0.148138  0.000111  0.971465  0.0  0.128531  0.14199  0.000126  0.976494  0.0
H  H29  1  0.21173143  0.01008508  0.07651653  1  0.134232  -0.000108  0.913165  0.0  0.144632  -0.000118  0.974157  0.0  0.148121  -0.000111  0.97148  0.0  0.128519  0.141969  -0.000126  0.976515  0.0
H  H30  1  0.74939347  0.87763934  0.83930354  1  0.124879  0.000657  0.940707  0.001  0.135673  0.000324  1.001306  0.001  0.138996  0.00037  0.998871  0.001  0.121086  0.133201  0.000244  1.003301  0.0
H  H31  1  0.25060598  0.12236298  0.16068781  1  0.124863  -0.000659  0.940735  -0.001  0.135635  -0.000324  1.001331  -0.001  0.138957  -0.00037  0.998894  -0.001  0.121074  0.133165  -0.000244  1.003326  0.0
H  H32  1  0.60389935  0.66833018  0.07561085  1  0.412004  -0.000118  0.888522  0.0  0.384335  -0.000101  0.948768  0.0  0.394197  -9.2e-05  0.934121  0.0  0.293561  0.377249  -0.000104  0.959324  0.0
H  H33  1  0.39609736  0.33167330  0.92439030  1  0.412057  0.000118  0.888434  0.0  0.384395  0.000101  0.948668  0.0  0.394259  9.2e-05  0.934015  0.0  0.293598  0.377309  0.000104  0.959223  0.0
H  H34  1  0.78284966  0.64367878  0.00135811  1  0.412904  -4.9e-05  0.888881  0.0  0.38725  -2.9e-05  0.945505  0.0  0.396818  -2.1e-05  0.931613  0.0  0.287952  0.380651  -3.8e-05  0.955077  0.0
H  H35  1  0.21714750  0.35632243  0.99864413  1  0.412966  4.8e-05  0.888796  0.0  0.387324  2.9e-05  0.945398  0.0  0.396891  2.1e-05  0.931507  0.0  0.287983  0.380725  3.8e-05  0.954969  0.0
H  H36  1  0.26707312  0.70637331  0.63611157  1  0.422284  1.4e-05  0.881881  0.0  0.394892  1.5e-05  0.941958  0.0  0.404925  1.3e-05  0.927013  0.0  0.288771  0.387796  1.9e-05  0.952459  0.0
H  H37  1  0.73292111  0.29364266  0.36388316  1  0.422398  -1.5e-05  0.881747  0.0  0.394995  -1.5e-05  0.941844  0.0  0.405029  -1.3e-05  0.926896  0.0  0.288821  0.387896  -1.9e-05  0.95235  0.0
H  H38  1  0.39726579  0.60217000  0.71659402  1  0.405693  0.000101  0.893687  0.0  0.378734  8.4e-05  0.95548  0.0  0.388663  7.6e-05  0.940797  0.0  0.287013  0.371825  8.6e-05  0.965686  0.0
H  H39  1  0.60272381  0.39784939  0.28340281  1  0.40574  -0.000101  0.893757  0.0  0.378803  -8.4e-05  0.955397  0.0  0.388727  -7.6e-05  0.940722  0.0  0.28699  0.371897  -8.6e-05  0.965598  0.0
C  C40  1  0.04448441  0.05331945  0.77236595  1  -0.0544  0.000258  3.616509  -0.001  -0.118353  -4.9e-05  3.876728  0.0  -0.113504  -0.000255  3.886269  -0.001  -0.057941  -0.12148  8.3e-05  3.871132  0.0
C  C41  1  0.95551719  0.94667947  0.22763552  1  -0.054322  -0.00025  3.616419  0.001  -0.118244  4.9e-05  3.876627  0.0  -0.113405  0.000254  3.886195  0.001  -0.057899  -0.12137  -8.3e-05  3.870997  0.0
C  C42  1  0.11460793  0.31285497  0.66335307  1  0.127048  -0.001138  3.680634  -0.003  0.124571  -0.000397  3.925351  -0.001  0.1286  -0.000591  3.949695  -0.001  0.082287  0.121652  -0.000311  3.909318  -0.001
C  C43  1  0.88539927  0.68714281  0.33665034  1  0.12717  0.00113  3.680559  0.003  0.124622  0.000398  3.925411  0.001  0.128653  0.00059  3.949749  0.001  0.082272  0.121698  0.000311  3.909375  0.001
C  C44  1  0.94414210  0.31332238  0.92464914  1  0.662698  0.000295  3.851979  0.0  0.618652  -0.000241  4.159164  0.0  0.654891  3.4e-05  4.150622  0.0  0.200789  0.593216  -0.000403  4.164935  0.0
C  C45  1  0.05584812  0.68667317  0.07535545  1  0.662663  -0.000298  3.852087  0.0  0.618712  0.000241  4.159171  0.0  0.65495  -3.3e-05  4.150635  0.0  0.200906  0.593274  0.000403  4.164938  0.0
C  C46  1  0.81295892  0.06198568  0.66062999  1  -0.199332  -2.5e-05  3.596079  -0.001  -0.2521  1.1e-05  3.842879  -0.001  -0.254042  -1.9e-05  3.849761  -0.001  -0.069275  -0.25106  -4.6e-05  3.839127  -0.001
C  C47  1  0.18705372  0.93801774  0.33936146  1  -0.199467  2.3e-05  3.596115  0.001  -0.252289  -1.2e-05  3.843011  0.001  -0.25422  1.9e-05  3.84988  0.001  -0.069247  -0.251227  4.7e-05  3.839233  0.001
C  C48  1  0.14905977  0.15259556  0.68554953  1  0.002205  0.003003  3.708062  0.004  0.017424  0.00054  3.946324  0.001  0.013643  0.000561  3.971984  0.001  -0.009528  0.019713  0.000497  3.92955  0.001
C  C49  1  0.85094633  0.84740109  0.31445492  1  0.002121  -0.003007  3.708029  -0.004  0.01733  -0.000541  3.946365  -0.001  0.013538  -0.000559  3.972048  -0.001  -0.009501  0.019614  -0.000497  3.929589  -0.001
C  C50  1  0.78657991  0.21149972  0.58232415  1  0.67064  -0.000737  3.847446  -0.001  0.621079  -0.001028  4.163726  -0.001  0.656479  -0.000311  4.157713  0.0  0.219757  0.596748  -0.001868  4.166691  -0.002
C  C51  1  0.21342209  0.78850374  0.41767276  1  0.670788  0.000733  3.847336  0.001  0.621236  0.001029  4.16363  0.001  0.656629  0.000308  4.157621  0.0  0.219783  0.596919  0.001868  4.166562  0.002
C  C52  1  0.05766002  0.38336931  0.82866186  1  -0.198076  -0.000189  3.578936  -0.001  -0.248721  -0.000265  3.819505  -0.001  -0.251675  -0.000218  3.825527  -0.001  -0.065499  -0.246367  -0.000418  3.815682  -0.001
C  C53  1  0.94233556  0.61662622  0.17134224  1  -0.197801  0.000184  3.578666  0.001  -0.248533  0.000264  3.819156  0.001  -0.251496  0.000215  3.825181  0.001  -0.065478  -0.246187  0.000418  3.815325  0.001
C  C54  1  0.28930859  0.08190236  0.62353033  1  -0.097096  -0.001765  3.720996  -0.003  -0.117546  -0.000163  3.970391  0.0  -0.118589  -0.000216  3.990747  0.0  -0.082098  -0.116433  -0.000133  3.956296  0.0
C  C55  1  0.71069659  0.91809201  0.37647384  1  -0.097111  0.001778  3.720954  0.003  -0.117547  0.000164  3.970363  0.0  -0.118587  0.000216  3.990717  0.0  -0.082158  -0.116432  0.000133  3.956262  0.0
C  C56  1  0.35772470  0.32395496  0.52279632  1  -0.030861  -0.002271  3.744137  -0.003  -0.046766  -0.000294  3.998255  0.0  -0.046141  -0.000323  4.016286  0.0  -0.084901  -0.047068  -0.000294  3.986049  0.0
C  C57  1  0.64227777  0.67603941  0.47720585  1  -0.030955  0.002277  3.744236  0.003  -0.046893  0.000294  3.998381  0.0  -0.046267  0.000323  4.016413  0.0  -0.084957  -0.047201  0.000294  3.986178  0.0
C  C58  1  0.21753439  0.39712348  0.58233932  1  -0.135118  0.004267  3.71769  0.006  -0.158593  0.00068  3.969949  0.001  -0.161575  0.000676  3.987386  0.001  -0.091582  -0.156409  0.000642  3.958227  0.001
C  C59  1  0.78247081  0.60287771  0.41766294  1  -0.135175  -0.004253  3.717688  -0.006  -0.158635  -0.00068  3.969974  -0.001  -0.161612  -0.000674  3.987424  -0.001  -0.091593  -0.156456  -0.000642  3.958262  -0.001
C  C60  1  0.39354477  0.16612601  0.54318659  1  -0.067235  0.003852  3.762188  0.005  -0.086135  0.000464  4.014801  0.001  -0.088648  0.000458  4.036347  0.001  -0.093241  -0.084531  0.000442  4.000183  0.001
C  C61  1  0.60645616  0.83386951  0.45681628  1  -0.067218  -0.003853  3.761977  -0.005  -0.086103  -0.000464  4.014566  -0.001  -0.088616  -0.000458  4.03611  -0.001  -0.093188  -0.084502  -0.000442  3.999948  -0.001
C  C62  1  0.91396264  0.55393049  0.68095216  1  -0.189906  -0.000246  3.601228  -0.001  -0.243804  0.00027  3.844905  0.0  -0.24521  0.000224  3.851174  -0.001  -0.072026  -0.242614  0.000258  3.840863  0.0
C  C63  1  0.08603402  0.44606618  0.31904940  1  -0.189791  0.000236  3.601239  0.001  -0.243648  -0.00027  3.844896  0.0  -0.24506  -0.000223  3.851167  0.001  -0.071972  -0.24246  -0.000258  3.840852  0.0
C  C64  1  0.72896982  0.61026595  0.73201763  1  0.66615  0.000386  3.841758  0.0  0.624391  0.000178  4.144803  0.0  0.658165  0.000413  4.137657  0.001  0.207045  0.600921  -0.000108  4.149713  0.0
C  C65  1  0.27102816  0.38973071  0.26798231  1  0.665966  -0.000378  3.841468  0.0  0.624169  -0.000178  4.14458  0.0  0.657944  -0.000414  4.137434  -0.001  0.20692  0.600701  0.000109  4.149491  0.0
C  C66  1  0.54174743  0.07371628  0.85450001  1  0.680355  -4.1e-05  3.79856  -0.001  0.636448  5e-06  4.109594  0.0  0.67154  0.000394  4.102188  0.001  0.223888  0.61258  -0.000549  4.113309  0.0
C  C67  1  0.45825279  0.92628265  0.14549859  1  0.68031  3.9e-05  3.798621  0.001  0.636407  -5e-06  4.109609  0.0  0.67149  -0.000393  4.10221  -0.001  0.223911  0.612537  0.000549  4.113315  0.0
C  C68  1  0.73876094  0.99378709  0.84951711  1  -0.191932  0.000274  3.579256  -0.001  -0.24756  0.000361  3.830841  0.0  -0.248926  0.000279  3.836064  -0.001  -0.066068  -0.247382  0.000417  3.828994  0.0
C  C69  1  0.26123722  0.00621524  0.15047736  1  -0.191985  -0.000267  3.579365  0.001  -0.247489  -0.00036  3.83076  0.0  -0.248853  -0.000279  3.83598  0.001  -0.066029  -0.247303  -0.000417  3.828903  0.0
N  N70  1  0.84590716  0.08562074  0.76261952  1  -0.108882  0.023933  3.299552  0.042  -0.052175  0.009613  3.561976  0.019  -0.075653  0.010934  3.584891  0.022  -0.344626  -0.03837  0.008454  3.549015  0.016
N  N71  1  0.15409547  0.91437931  0.23737642  1  -0.108821  -0.023931  3.299649  -0.042  -0.052109  -0.009612  3.562068  -0.019  -0.075594  -0.010934  3.584991  -0.022  -0.344633  -0.038308  -0.008453  3.549086  -0.016
N  N72  1  0.97777867  0.39196334  0.73044524  1  -0.13286  0.020313  3.262629  0.037  -0.07681  0.007473  3.513867  0.016  -0.099924  0.00874  3.536586  0.019  -0.31849  -0.061961  0.006152  3.498764  0.014
N  N73  1  0.02222204  0.60803332  0.26955745  1  -0.132989  -0.020313  3.262645  -0.037  -0.076904  -0.007473  3.513907  -0.016  -0.100014  -0.008744  3.536628  -0.019  -0.318508  -0.062054  -0.006152  3.498796  -0.014
O  O74  1  0.52213696  0.22201644  0.81857189  1  -0.548784  0.012372  2.043636  0.027  -0.511758  -0.000612  2.298659  0.004  -0.549839  0.001384  2.288589  0.008  -0.303294  -0.48503  -0.003117  2.304306  0.0
O  O75  1  0.47786144  0.77798475  0.18142425  1  -0.54875  -0.012372  2.043666  -0.027  -0.511736  0.000612  2.298697  -0.004  -0.549801  -0.001386  2.288619  -0.008  -0.303241  -0.485005  0.003116  2.304334  0.0
O  O76  1  0.80228800  0.26442446  0.90920662  1  -0.577036  0.002199  2.12008  0.013  -0.545003  -0.006179  2.389231  -0.003  -0.58413  -0.003237  2.382433  0.003  -0.352565  -0.518329  -0.009063  2.394097  -0.008
O  O77  1  0.19770622  0.73557108  0.09079611  1  -0.576997  -0.002199  2.119976  -0.013  -0.545026  0.006181  2.389164  0.003  -0.584158  0.003237  2.382367  -0.003  -0.352611  -0.518354  0.009064  2.394028  0.008
O  O78  1  0.73323708  0.33087292  0.62240340  1  -0.537755  0.005903  2.090745  0.02  -0.510116  -0.006843  2.366356  -0.003  -0.551533  -0.003556  2.363384  0.002  -0.301188  -0.481454  -0.010365  2.367922  -0.009
O  O79  1  0.26676559  0.66912713  0.37759479  1  -0.537791  -0.005901  2.090659  -0.02  -0.510219  0.006846  2.366363  0.003  -0.551639  0.003562  2.363391  -0.002  -0.30124  -0.481564  0.010368  2.367918  0.009
O  O80  1  0.80851691  0.21615093  0.48745333  1  -0.585242  -0.001223  1.952743  -0.002  -0.536947  -0.003706  2.177066  -0.007  -0.562413  -0.002646  2.168487  -0.005  -0.297179  -0.518117  -0.005038  2.181441  -0.009
O  O81  1  0.19147993  0.78385822  0.51253934  1  -0.585336  0.001224  1.952709  0.002  -0.537024  0.003706  2.17702  0.007  -0.562491  0.002646  2.168448  0.005  -0.297204  -0.518197  0.005038  2.18137  0.009
O  O82  1  0.98968671  0.30079603  0.01285887  1  -0.602344  0.001375  1.910023  0.003  -0.556195  -0.001363  2.124454  -0.002  -0.580148  -0.00105  2.115228  -0.002  -0.332935  -0.539455  -0.00158  2.130536  -0.003
O  O83  1  0.01030442  0.69920178  0.98714525  1  -0.602396  -0.001371  1.910234  -0.003  -0.556272  0.001364  2.124623  0.002  -0.580225  0.001055  2.115397  0.002  -0.332981  -0.539533  0.00158  2.130703  0.003
O  O84  1  0.41269960  0.00518751  0.89117763  1  -0.598195  0.000159  1.892037  0.0  -0.560918  -0.001848  2.116607  -0.003  -0.585026  -0.001253  2.10897  -0.002  -0.349332  -0.542689  -0.002899  2.120851  -0.005
O  O85  1  0.58729857  0.99481482  0.10881758  1  -0.598182  -0.000155  1.892019  0.0  -0.56091  0.001847  2.116557  0.003  -0.585019  0.001255  2.108924  0.002  -0.349406  -0.542688  0.002898  2.120806  0.005
O  O86  1  0.62593701  0.50582686  0.77027486  1  -0.583319  0.011181  2.090028  0.023  -0.54456  0.001231  2.345191  0.007  -0.580051  0.002216  2.333701  0.009  -0.340629  -0.521799  0.000544  2.354399  0.005
O  O87  1  0.37405855  0.49416867  0.22972775  1  -0.58327  -0.011187  2.089972  -0.023  -0.544495  -0.001232  2.345147  -0.007  -0.579983  -0.002214  2.333641  -0.009  -0.340604  -0.521733  -0.000544  2.354349  -0.005
O  O88  1  0.67795338  0.74630328  0.73295290  1  -0.595873  0.000511  1.929613  0.001  -0.557842  -0.001761  2.15492  -0.003  -0.580318  -0.001381  2.147616  -0.003  -0.341106  -0.542606  -0.001934  2.159209  -0.004
O  O89  1  0.32203789  0.25369339  0.26704616  1  -0.595775  -0.00051  1.929421  -0.001  -0.55774  0.001762  2.154746  0.003  -0.580217  0.001381  2.147437  0.003  -0.341037  -0.542503  0.001934  2.159036  0.004
O  O90  1  0.66070069  0.61469061  0.02056190  1  -0.876806  -0.000288  1.764639  -0.001  -0.835829  -0.00013  1.919789  0.0  -0.853303  -0.000108  1.891076  0.0  -0.688173  -0.823165  -0.000132  1.939818  0.0
O  O91  1  0.33929647  0.38531060  0.97944034  1  -0.87691  0.00029  1.764513  0.001  -0.835926  0.00013  1.919634  0.0  -0.8534  0.000107  1.890912  0.0  -0.688229  -0.82326  0.000132  1.939662  0.0
O  O92  1  0.28250766  0.67368967  0.71086203  1  -0.863854  0.000278  1.776759  0.0  -0.824832  7.6e-05  1.938451  0.0  -0.841926  7.2e-05  1.90822  0.0  -0.655131  -0.812545  7.1e-05  1.959592  0.0
O  O93  1  0.71748775  0.32633426  0.28913274  1  -0.864002  -0.000278  1.776732  0.0  -0.825003  -7.6e-05  1.938335  0.0  -0.842085  -7.1e-05  1.908091  0.0  -0.655153  -0.812721  -7.1e-05  1.959481  0.0
