# generated using pymatgen
data_CuH12C14(NO2)2
_symmetry_space_group_name_H-M   'P 1'
_cell_length_a   8.71178486
_cell_length_b   9.20390715
_cell_length_c   15.52838332
_cell_angle_alpha   83.26356997
_cell_angle_beta   73.49699705
_cell_angle_gamma   76.24028889
_symmetry_Int_Tables_number   1
_chemical_formula_structural   CuH12C14(NO2)2
_chemical_formula_sum   'Cu3 H36 C42 N6 O12'
_cell_volume   1157.89656789
_cell_formula_units_Z   3
loop_
 _symmetry_equiv_pos_site_id
 _symmetry_equiv_pos_as_xyz
  1  'x, y, z'
loop_
 _atom_site_type_symbol
 _atom_site_label
 _atom_site_symmetry_multiplicity
 _atom_site_fract_x
 _atom_site_fract_y
 _atom_site_fract_z
 _atom_site_occupancy
 _atom_site_pbe_bader_charge
 _atom_site_pbe_bader_spin_density
 _atom_site_pbe_cm5_charge
 _atom_site_pbe_ddec_charge
 _atom_site_pbe_ddec_spin_density
 _atom_site_pbe_ddec_sum_bond_order
 _atom_site_pbe_magmom
Cu  Cu0  1  0.49999985  0.50001069  0.00000019  1  1.032976  0.541821  0.717916  0.719209  0.750403  2.192479  0.543
Cu  Cu1  1  0.12946081  0.43155988  0.57393751  1  1.072436  -0.570575  0.73249  0.778466  -0.748584  2.176286  -0.57
Cu  Cu2  1  0.87053581  0.56843276  0.42606102  1  1.072534  -0.570579  0.732496  0.778486  -0.748585  2.176343  -0.57
H  H3  1  0.64258230  0.38469552  0.54359889  1  0.078208  0.000211  0.103571  0.124446  5.4e-05  1.05018  0.0
H  H4  1  0.35741789  0.61528369  0.45639927  1  0.07782  0.000211  0.103552  0.124481  5.4e-05  1.050101  0.0
H  H5  1  0.44397739  0.21348619  0.80231630  1  0.05292  -0.000246  0.103735  0.129207  -0.000144  0.985098  0.0
H  H6  1  0.55601171  0.78653428  0.19768941  1  0.052903  -0.000246  0.103752  0.12923  -0.000143  0.985085  0.0
H  H7  1  0.65948684  0.20520921  0.77109757  1  0.100189  -0.000945  0.100872  0.130181  -0.000424  1.030494  -0.001
H  H8  1  0.34051414  0.79479799  0.22890969  1  0.100222  -0.000945  0.100887  0.130153  -0.000424  1.030546  -0.001
H  H9  1  0.66551756  0.74365321  0.00575185  1  0.136092  0.001513  0.118835  0.098459  0.00071  1.004099  0.001
H  H10  1  0.33448827  0.25636788  0.99424285  1  0.136076  0.001514  0.118858  0.098497  0.000711  1.004042  0.001
H  H11  1  0.94601384  0.79816721  0.94770027  1  0.071694  0.001267  0.11201  0.114314  0.000692  0.977919  0.001
H  H12  1  0.05399288  0.20185502  0.05229486  1  0.072049  0.001266  0.112059  0.114394  0.000692  0.978149  0.001
H  H13  1  0.17377909  0.60528633  0.85620421  1  0.142964  0.000171  0.108664  0.117681  9.7e-05  1.004368  0.0
H  H14  1  0.82622551  0.39472561  0.14379575  1  0.14307  0.000171  0.108714  0.11777  9.7e-05  1.004253  0.0
H  H15  1  0.10263319  0.37170464  0.82372192  1  0.140767  0.001064  0.110665  0.134931  0.000559  1.030374  0.001
H  H16  1  0.89736631  0.62830820  0.17628329  1  0.140694  0.001065  0.110635  0.134881  0.000559  1.030293  0.001
H  H17  1  0.81588363  0.33562220  0.88754439  1  0.136662  0.001524  0.121226  0.103345  0.00071  0.996804  0.001
H  H18  1  0.18411442  0.66438728  0.11245803  1  0.136438  0.001524  0.121202  0.103313  0.00071  0.996927  0.001
H  H19  1  0.44407630  0.38287531  0.43291070  1  0.134616  -0.00234  0.116263  0.090812  -0.001283  1.05098  -0.002
H  H20  1  0.55592000  0.61710036  0.56709086  1  0.134523  -0.002341  0.11625  0.090813  -0.001283  1.050937  -0.002
H  H21  1  0.61533020  0.18204956  0.33113074  1  0.09222  -0.001196  0.112374  0.119159  -0.000616  0.990697  -0.001
H  H22  1  0.38467315  0.81791256  0.66888087  1  0.092008  -0.001196  0.112348  0.11921  -0.000616  0.990591  -0.001
H  H23  1  0.52884230  0.93640516  0.34552821  1  0.131364  -8.8e-05  0.108185  0.113194  -2.9e-05  1.02091  0.0
H  H24  1  0.47114500  0.06356331  0.65448421  1  0.131486  -8.8e-05  0.108193  0.113184  -2.9e-05  1.020939  0.0
H  H25  1  0.26380685  0.90948839  0.45846908  1  0.083681  -0.001245  0.102265  0.105215  -0.000615  1.035235  -0.001
H  H26  1  0.73617305  0.09049463  0.54153972  1  0.08397  -0.001245  0.102271  0.105311  -0.000615  1.035226  -0.001
H  H27  1  0.10149069  0.12614990  0.55388405  1  0.138559  -0.002319  0.116462  0.088332  -0.001112  1.044823  -0.001
H  H28  1  0.89849191  0.87383662  0.44612219  1  0.138453  -0.002318  0.116409  0.088258  -0.001112  1.044979  -0.001
H  H29  1  0.21517922  0.70443860  0.60031641  1  0.108994  -0.001806  0.116  0.08588  -0.000805  1.034126  -0.002
H  H30  1  0.78482905  0.29556011  0.39967350  1  0.109189  -0.001806  0.116016  0.085964  -0.000805  1.03408  -0.002
H  H31  1  0.07906065  0.94750321  0.67615733  1  0.106173  -0.001152  0.113444  0.124964  -0.000631  0.999556  -0.001
H  H32  1  0.92095567  0.05249690  0.32382866  1  0.105609  -0.001152  0.113371  0.124897  -0.000631  0.999747  -0.001
H  H33  1  0.79134141  0.97827620  0.77085187  1  0.113332  -0.000174  0.112343  0.111877  -0.000105  0.993324  0.0
H  H34  1  0.20867252  0.02173737  0.22913431  1  0.113317  -0.000173  0.112293  0.111781  -0.000104  0.993472  0.0
H  H35  1  0.64722042  0.76231674  0.78654655  1  0.112212  -0.001228  0.112188  0.122654  -0.000651  0.988455  -0.001
H  H36  1  0.35279254  0.23769549  0.21344888  1  0.112096  -0.001228  0.1122  0.122622  -0.000651  0.988388  -0.001
H  H37  1  0.79592002  0.53508371  0.70440181  1  0.115406  -0.002194  0.119436  0.092604  -0.001019  1.014598  -0.001
H  H38  1  0.20408430  0.46492034  0.29559805  1  0.115503  -0.002193  0.119446  0.092583  -0.001018  1.014707  -0.001
C  C39  1  0.83491256  0.31813912  0.61550343  1  1.536409  -0.000576  0.191295  0.601949  -0.001521  4.230962  0.001
C  C40  1  0.16508998  0.68184912  0.38449639  1  1.53568  -0.000577  0.191343  0.602  -0.001521  4.230861  0.001
C  C41  1  0.66289244  0.34387014  0.60920907  1  -0.045162  -0.005128  -0.098026  -0.279358  -0.003996  3.882978  -0.004
C  C42  1  0.33710862  0.65611919  0.39079091  1  -0.045118  -0.005129  -0.098018  -0.27935  -0.003997  3.882919  -0.004
C  C43  1  0.53153172  0.33019311  0.67840145  1  -0.042029  -0.009129  -0.001557  0.071596  -0.006426  3.89513  -0.007
C  C44  1  0.46846456  0.66980959  0.32160038  1  -0.041893  -0.009128  -0.001603  0.071507  -0.006426  3.895183  -0.007
C  C45  1  0.36655677  0.35732464  0.65980510  1  1.563648  0.001463  0.196323  0.542259  0.000146  4.209432  0.003
C  C46  1  0.63343774  0.64267577  0.34019585  1  1.563693  0.001464  0.196257  0.542197  0.000145  4.209564  0.003
C  C47  1  0.53957480  0.27773943  0.77211919  1  -0.03146  0.007732  -0.170142  -0.343647  0.005993  3.952553  0.006
C  C48  1  0.46042561  0.72227911  0.22788359  1  -0.031612  0.007732  -0.17012  -0.34356  0.005993  3.952478  0.006
C  C49  1  0.51233724  0.40317941  0.83517436  1  1.572035  -0.001143  0.200736  0.628622  0.000166  4.1507  -0.003
C  C50  1  0.48766259  0.59684140  0.16482708  1  1.572621  -0.001145  0.200759  0.628684  0.000167  4.150864  -0.003
C  C51  1  0.76691167  0.66492727  0.96535858  1  0.388791  -0.000573  0.042204  0.077923  0.000371  3.949221  0.0
C  C52  1  0.23308851  0.33510156  0.03463652  1  0.388798  -0.000574  0.042145  0.077933  0.000369  3.949257  0.0
C  C53  1  0.92373434  0.69330648  0.93290731  1  -0.001278  0.005589  -0.082477  -0.129688  0.004116  4.005679  0.005
C  C54  1  0.07626524  0.30670651  0.06709080  1  -0.00116  0.005589  -0.082528  -0.129825  0.004116  4.006053  0.005
C  C55  1  0.04892521  0.58734849  0.88222967  1  -0.070313  -0.003821  -0.063162  -0.020919  -0.002545  3.928297  -0.002
C  C56  1  0.95108478  0.41265690  0.11776664  1  -0.070389  -0.00382  -0.063179  -0.020991  -0.002544  3.928074  -0.002
C  C57  1  0.01095255  0.45631125  0.86531309  1  0.059016  0.005753  -0.079854  -0.120212  0.004264  3.940136  0.005
C  C58  1  0.98905445  0.54370080  0.13468392  1  0.058856  0.005753  -0.079807  -0.120073  0.004264  3.939843  0.005
C  C59  1  0.85137035  0.43537380  0.89998019  1  0.396334  -0.000524  0.046062  0.083081  0.000392  3.92733  0.0
C  C60  1  0.14863215  0.56464593  0.10002220  1  0.396347  -0.000522  0.04601  0.083047  0.000393  3.927928  0.0
C  C61  1  0.40744993  0.27696908  0.43599496  1  0.434061  0.000768  0.046432  0.089472  -0.000126  3.91407  0.0
C  C62  1  0.59254334  0.72301316  0.56401246  1  0.434464  0.00077  0.046496  0.089774  -0.000126  3.914432  0.0
C  C63  1  0.50391600  0.16287989  0.38041870  1  0.002808  -0.006042  -0.079537  -0.123544  -0.004189  3.96397  -0.005
C  C64  1  0.49607606  0.83709324  0.61959205  1  0.002503  -0.006042  -0.079563  -0.123827  -0.004189  3.964003  -0.005
C  C65  1  0.45420785  0.02773319  0.38791220  1  -0.062601  0.003957  -0.064656  -0.023105  0.002769  3.939154  0.002
C  C66  1  0.54577681  0.97224544  0.61209613  1  -0.06248  0.003956  -0.064676  -0.023034  0.002769  3.93891  0.002
C  C67  1  0.30776381  0.01270256  0.45071287  1  0.027012  -0.005064  -0.085556  -0.125974  -0.003567  3.9817  -0.004
C  C68  1  0.69222032  0.98727392  0.54928989  1  0.027656  -0.005061  -0.085512  -0.125974  -0.003566  3.981603  -0.004
C  C69  1  0.21614195  0.13203686  0.50331280  1  0.404282  0.001188  0.045394  0.085833  0.000244  3.922579  0.001
C  C70  1  0.78385015  0.86794084  0.49669444  1  0.402502  0.001183  0.04547  0.08591  0.000244  3.922862  0.001
C  C71  1  0.08879239  0.72453773  0.64135422  1  0.424785  0.001016  0.040939  0.081937  0.000128  3.936651  0.001
C  C72  1  0.91122187  0.27546124  0.35863024  1  0.424256  0.001016  0.040975  0.081869  0.000128  3.936579  0.001
C  C73  1  0.01371905  0.85739437  0.68444188  1  -0.000221  -0.005365  -0.083359  -0.133223  -0.00376  3.970612  -0.004
C  C74  1  0.98628892  0.14260998  0.31554772  1  0.000381  -0.005364  -0.083308  -0.133227  -0.003759  3.970827  -0.004
C  C75  1  0.85247548  0.87416481  0.73753446  1  -0.070052  0.003764  -0.061626  -0.018997  0.002626  3.954075  0.002
C  C76  1  0.14753691  0.12583619  0.26245853  1  -0.070523  0.003766  -0.061522  -0.018693  0.002628  3.953885  0.002
C  C77  1  0.77273003  0.75677532  0.74583952  1  0.030671  -0.005258  -0.079762  -0.127549  -0.003677  3.971638  -0.004
C  C78  1  0.22727642  0.24323906  0.25415357  1  0.031547  -0.005255  -0.07979  -0.127649  -0.003676  3.971773  -0.004
C  C79  1  0.85569991  0.62775540  0.69994327  1  0.446448  0.000989  0.05067  0.100663  6.6e-05  3.916965  0.001
C  C80  1  0.14431219  0.37224672  0.30004970  1  0.446126  0.000987  0.05062  0.100634  6.5e-05  3.917215  0.001
N  N81  1  0.73097676  0.53742221  0.94971608  1  -1.223578  0.088151  -0.342845  -0.23819  0.063205  3.620207  0.077
N  N82  1  0.26902398  0.46259978  0.05028386  1  -1.223583  0.088145  -0.342784  -0.238253  0.063202  3.620653  0.077
N  N83  1  0.26542383  0.26196639  0.49610844  1  -1.220329  -0.087836  -0.342951  -0.217513  -0.059776  3.59853  -0.076
N  N84  1  0.73456767  0.73800903  0.50389968  1  -1.219374  -0.087829  -0.34301  -0.21776  -0.059773  3.599013  -0.076
N  N85  1  0.01089989  0.61167717  0.64827279  1  -1.218321  -0.081786  -0.340958  -0.223264  -0.05565  3.590263  -0.071
N  N86  1  0.98911068  0.38832143  0.35172514  1  -1.218113  -0.08178  -0.340985  -0.223236  -0.055646  3.590006  -0.071
O  O87  1  0.89072644  0.22612472  0.67075155  1  -1.172053  -0.000781  -0.319741  -0.542854  -0.000141  2.106991  0.0
O  O88  1  0.10927165  0.77386229  0.32924839  1  -1.171443  -0.000781  -0.319747  -0.54286  -0.000141  2.106928  0.0
O  O89  1  0.91888731  0.40434721  0.55759487  1  -1.120715  -0.087177  -0.336972  -0.592969  -0.057227  2.457657  -0.08
O  O90  1  0.08111107  0.59564317  0.44240611  1  -1.120605  -0.087186  -0.337061  -0.593076  -0.057234  2.457599  -0.08
O  O91  1  0.26590280  0.28132238  0.70448493  1  -1.162046  -0.001751  -0.320212  -0.555343  -0.000808  2.155668  -0.002
O  O92  1  0.73409674  0.71867699  0.29551788  1  -1.161974  -0.001752  -0.320159  -0.555278  -0.000809  2.155639  -0.002
O  O93  1  0.34059239  0.45395373  0.59472055  1  -1.116456  -0.122634  -0.322878  -0.543714  -0.08034  2.34799  -0.111
O  O94  1  0.65940219  0.54603781  0.40527386  1  -1.116552  -0.122627  -0.322827  -0.54368  -0.080334  2.348112  -0.111
O  O95  1  0.46372766  0.53800374  0.81487104  1  -1.189246  0.000796  -0.337048  -0.57775  0.000332  2.088379  0.001
O  O96  1  0.53626742  0.46201695  0.18513051  1  -1.189085  0.000795  -0.337143  -0.577843  0.000332  2.088635  0.001
O  O97  1  0.54493214  0.35083227  0.91120793  1  -1.125425  0.112273  -0.346706  -0.570848  0.076926  2.357803  0.101
O  O98  1  0.45507364  0.64918420  0.08879222  1  -1.125966  0.112263  -0.346655  -0.570797  0.076918  2.357809  0.101
