# generated using pymatgen
data_NdH8C7NO8
_symmetry_space_group_name_H-M   'P 1'
_cell_length_a   7.74465059
_cell_length_b   9.25787062
_cell_length_c   15.54973020
_cell_angle_alpha   100.52591165
_cell_angle_beta   89.99962785
_cell_angle_gamma   89.99867356
_symmetry_Int_Tables_number   1
_chemical_formula_structural   NdH8C7NO8
_chemical_formula_sum   'Nd4 H32 C28 N4 O32'
_cell_volume   1096.13859299
_cell_formula_units_Z   4
loop_
 _symmetry_equiv_pos_site_id
 _symmetry_equiv_pos_as_xyz
  1  'x, y, z'
loop_
 _atom_site_type_symbol
 _atom_site_label
 _atom_site_symmetry_multiplicity
 _atom_site_fract_x
 _atom_site_fract_y
 _atom_site_fract_z
 _atom_site_occupancy
 _atom_site_hle17_bader_spin_density
 _atom_site_hle17_ddec_charge
 _atom_site_hle17_ddec_spin_density
 _atom_site_hle17_ddec_sum_bond_order
 _atom_site_hle17_magmom
 _atom_site_hse06_10hf_bader_spin_density
 _atom_site_hse06_10hf_ddec_charge
 _atom_site_hse06_10hf_ddec_spin_density
 _atom_site_hse06_10hf_ddec_sum_bond_order
 _atom_site_hse06_10hf_magmom
 _atom_site_hse06_bader_spin_density
 _atom_site_hse06_ddec_charge
 _atom_site_hse06_ddec_spin_density
 _atom_site_hse06_ddec_sum_bond_order
 _atom_site_hse06_magmom
 _atom_site_pbe_bader_spin_density
 _atom_site_pbe_cm5_charge
 _atom_site_pbe_ddec_charge
 _atom_site_pbe_ddec_spin_density
 _atom_site_pbe_ddec_sum_bond_order
 _atom_site_pbe_magmom
Nd  Nd0  1  0.17473648  0.98780029  0.74651607  1  0  2.282293  0  1.635998  0  0  2.105893  0  2.110594  0  0  2.202502  0  1.961705  0  0  1.503616  2.074247  0  2.145509  0
Nd  Nd1  1  0.67472683  0.51220785  0.75347899  1  0  2.28237  0  1.63608  0  0  2.105979  0  2.110703  0  0  2.202591  0  1.961796  0  0  1.503664  2.074322  0  2.145645  0
Nd  Nd2  1  0.82526444  0.01219708  0.25348182  1  0  2.282353  0  1.63603  0  0  2.105977  0  2.110586  0  0  2.202571  0  1.961731  0  0  1.503593  2.074382  0  2.145368  0
Nd  Nd3  1  0.32527151  0.48779721  0.24651994  1  0  2.282328  0  1.636157  0  0  2.105889  0  2.110868  0  0  2.20256  0  1.961878  0  0  1.503646  2.074297  0  2.145662  0
H  H4  1  0.45541522  0.98659216  0.59053723  1  0  0.43914  0  0.809678  0  0  0.419998  0  0.867637  0  0  0.429289  0  0.854618  0  0  0.329677  0.413419  0  0.875755  0
H  H5  1  0.95538782  0.51348313  0.90948744  1  0  0.439225  0  0.809433  0  0  0.419995  0  0.867577  0  0  0.429288  0  0.854608  0  0  0.329594  0.413414  0  0.875697  0
H  H6  1  0.54459474  0.01344882  0.40947039  1  0  0.439176  0  0.809545  0  0  0.419994  0  0.867595  0  0  0.429284  0  0.85461  0  0  0.329652  0.413415  0  0.875718  0
H  H7  1  0.04460794  0.48653003  0.09052160  1  0  0.439229  0  0.809417  0  0  0.420025  0  0.867528  0  0  0.429312  0  0.854573  0  0  0.329643  0.413441  0  0.875651  0
H  H8  1  0.31707030  0.09475487  0.56524891  1  0  0.448203  0  0.821142  0  0  0.422591  0  0.877563  0  0  0.431976  0  0.863706  0  0  0.320864  0.415952  0  0.88749  0
H  H9  1  0.81706398  0.40528702  0.93475844  1  0  0.448372  0  0.820925  0  0  0.422743  0  0.877376  0  0  0.432128  0  0.863517  0  0  0.320835  0.416103  0  0.887301  0
H  H10  1  0.68293192  0.90526694  0.43474841  1  0  0.448239  0  0.821246  0  0  0.422612  0  0.877582  0  0  0.431997  0  0.863725  0  0  0.320801  0.415968  0  0.887515  0
H  H11  1  0.18294598  0.59471111  0.06524406  1  0  0.448268  0  0.82104  0  0  0.422658  0  0.877475  0  0  0.432043  0  0.863619  0  0  0.320878  0.416011  0  0.887409  0
H  H12  1  0.91968831  0.14812568  0.89788331  1  0  0.439333  0  0.861035  0  0  0.409135  0  0.923408  0  0  0.420088  0  0.90765  0  0  0.295421  0.401547  0  0.934337  0
H  H13  1  0.41968312  0.35187850  0.60212451  1  0  0.439288  0  0.861089  0  0  0.40905  0  0.923498  0  0  0.419997  0  0.907752  0  0  0.295414  0.401461  0  0.934426  0
H  H14  1  0.08030228  0.85186381  0.10211610  1  0  0.439433  0  0.860923  0  0  0.409178  0  0.923371  0  0  0.420126  0  0.907622  0  0  0.295402  0.401587  0  0.934302  0
H  H15  1  0.58031781  0.64812097  0.39787495  1  0  0.439238  0  0.861179  0  0  0.409009  0  0.923575  0  0  0.419956  0  0.907829  0  0  0.295393  0.401416  0  0.934508  0
H  H16  1  0.87832195  0.17966186  0.80058375  1  0  0.43287  0  0.874842  0  0  0.401378  0  0.938892  0  0  0.413312  0  0.921575  0  0  0.298065  0.392863  0  0.951404  0
H  H17  1  0.37830978  0.32035039  0.69943170  1  0  0.432897  0  0.874795  0  0  0.40139  0  0.938882  0  0  0.41333  0  0.921557  0  0  0.298073  0.392873  0  0.951398  0
H  H18  1  0.12167123  0.82032883  0.19941453  1  0  0.433007  0  0.874713  0  0  0.40155  0  0.938698  0  0  0.413482  0  0.921384  0  0  0.298146  0.39303  0  0.951218  0
H  H19  1  0.62168985  0.67964650  0.30057257  1  0  0.432839  0  0.874872  0  0  0.401349  0  0.938933  0  0  0.413287  0  0.921611  0  0  0.298051  0.392832  0  0.951447  0
H  H20  1  0.50859312  0.84602175  0.78641836  1  0  0.429216  0  0.881564  0  0  0.397823  0  0.946391  0  0  0.408904  0  0.930741  0  0  0.29501  0.3898  0  0.958008  0
H  H21  1  0.00858665  0.65397619  0.71356801  1  0  0.429133  0  0.88168  0  0  0.397791  0  0.946461  0  0  0.408871  0  0.930812  0  0  0.294915  0.389764  0  0.958085  0
H  H22  1  0.49140909  0.15399219  0.21358048  1  0  0.429191  0  0.881615  0  0  0.397889  0  0.946335  0  0  0.408971  0  0.930682  0  0  0.29496  0.389858  0  0.957967  0
H  H23  1  0.99141427  0.34601082  0.28643493  1  0  0.429098  0  0.881718  0  0  0.397799  0  0.946444  0  0  0.40888  0  0.930794  0  0  0.294888  0.389761  0  0.958086  0
H  H24  1  0.51661005  0.82021909  0.68614595  1  0  0.435964  0  0.864283  0  0  0.407118  0  0.923957  0  0  0.419504  0  0.905902  0  0  0.298769  0.398351  0  0.936898  0
H  H25  1  0.01660531  0.67976216  0.81383880  1  0  0.435876  0  0.864318  0  0  0.407095  0  0.923898  0  0  0.419477  0  0.905849  0  0  0.298764  0.398331  0  0.936835  0
H  H26  1  0.48338829  0.17977614  0.31385102  1  0  0.436033  0  0.864185  0  0  0.407226  0  0.923821  0  0  0.419612  0  0.905765  0  0  0.298782  0.398451  0  0.936775  0
H  H27  1  0.98340465  0.32023067  0.18616042  1  0  0.435774  0  0.864481  0  0  0.407041  0  0.923996  0  0  0.419411  0  0.905959  0  0  0.298727  0.398271  0  0.936939  0
H  H28  1  0.48634195  0.38035764  0.01479330  1  0  0.135243  0  0.942887  0  0  0.142802  0  1.007251  0  0  0.147495  0  1.003759  0  0  0.11792  0.139376  0  1.009995  0
H  H29  1  0.98635830  0.11964395  0.48521292  1  0  0.135227  0  0.943084  0  0  0.142878  0  1.007297  0  0  0.147568  0  1.00381  0  0  0.117963  0.139467  0  1.010037  0
H  H30  1  0.51365639  0.61965232  0.98521401  1  0  0.135184  0  0.94314  0  0  0.142852  0  1.007344  0  0  0.147544  0  1.00385  0  0  0.117961  0.139429  0  1.010086  0
H  H31  1  0.01364391  0.88034769  0.51478742  1  0  0.135304  0  0.943177  0  0  0.142928  0  1.007396  0  0  0.14762  0  1.003905  0  0  0.117962  0.139497  0  1.010164  0
H  H32  1  0.27010558  0.00699936  0.10724101  1  0  0.136805  0  0.961745  0  0  0.147045  0  1.020551  0  0  0.151942  0  1.016873  0  0  0.116144  0.143638  0  1.023043  0
H  H33  1  0.77013359  0.49299686  0.39275084  1  0  0.13682  0  0.96179  0  0  0.147072  0  1.020585  0  0  0.151971  0  1.016902  0  0  0.116186  0.143671  0  1.023078  0
H  H34  1  0.72988501  0.99300255  0.89275556  1  0  0.136839  0  0.961689  0  0  0.147083  0  1.020497  0  0  0.151981  0  1.016818  0  0  0.116161  0.143676  0  1.023  0
H  H35  1  0.22987896  0.50699283  0.60724602  1  0  0.136787  0  0.961782  0  0  0.147014  0  1.020611  0  0  0.15191  0  1.016937  0  0  0.116149  0.143613  0  1.023115  0
C  C36  1  0.39969567  0.28169440  0.84283970  1  0  0.68299  0  3.850428  0  0  0.636388  0  4.134853  0  0  0.671126  0  4.126959  0  0  0.245701  0.612655  0  4.142487  0
C  C37  1  0.89970752  0.21830706  0.65716587  1  0  0.683286  0  3.850494  0  0  0.636582  0  4.135153  0  0  0.671321  0  4.127252  0  0  0.245739  0.61284  0  4.142797  0
C  C38  1  0.60030267  0.71831017  0.15716560  1  0  0.683089  0  3.850491  0  0  0.636426  0  4.135056  0  0  0.671167  0  4.127158  0  0  0.245604  0.612687  0  4.142696  0
C  C39  1  0.10029986  0.78169576  0.34283340  1  0  0.683108  0  3.850368  0  0  0.636392  0  4.135057  0  0  0.671132  0  4.127162  0  0  0.245659  0.61264  0  4.142711  0
C  C40  1  0.37252384  0.20785546  0.91983541  1  0  0.114941  0  3.813034  0  0  0.117768  0  4.061056  0  0  0.120151  0  4.080765  0  0  0.108109  0.116389  0  4.048439  0
C  C41  1  0.87253087  0.29214271  0.58016271  1  0  0.11498  0  3.812621  0  0  0.117748  0  4.060783  0  0  0.120131  0  4.080494  0  0  0.1081  0.116382  0  4.048163  0
C  C42  1  0.62747062  0.79214401  0.08016405  1  0  0.114888  0  3.812765  0  0  0.11765  0  4.060921  0  0  0.120034  0  4.080629  0  0  0.108086  0.116283  0  4.048284  0
C  C43  1  0.12746876  0.70784974  0.41984161  1  0  0.114936  0  3.812467  0  0  0.117658  0  4.06069  0  0  0.120048  0  4.080403  0  0  0.108089  0.116297  0  4.048052  0
C  C44  1  0.42200877  0.27416011  0.00325605  1  0  -0.212623  0  3.645093  0  0  -0.247757  0  3.904073  0  0  -0.254318  0  3.919385  0  0  -0.081076  -0.243038  0  3.893414  0
C  C45  1  0.92202331  0.22582920  0.49674030  1  0  -0.212869  0  3.645391  0  0  -0.247994  0  3.904322  0  0  -0.25456  0  3.919641  0  0  -0.08117  -0.243287  0  3.893679  0
C  C46  1  0.57798441  0.72583492  0.99674346  1  0  -0.212766  0  3.64554  0  0  -0.247925  0  3.90449  0  0  -0.254493  0  3.91981  0  0  -0.081174  -0.243209  0  3.893827  0
C  C47  1  0.07797373  0.77416664  0.50326318  1  0  -0.21298  0  3.645757  0  0  -0.248064  0  3.904683  0  0  -0.254632  0  3.919984  0  0  -0.081165  -0.243342  0  3.894049  0
C  C48  1  0.38237284  0.20396123  0.07420323  1  0  0.431839  0  3.863418  0  0  0.419669  0  4.126311  0  0  0.43714  0  4.140174  0  0  0.107849  0.407524  0  4.11846  0
C  C49  1  0.88239808  0.29603057  0.42580063  1  0  0.432107  0  3.863302  0  0  0.419942  0  4.126173  0  0  0.437413  0  4.140025  0  0  0.107852  0.407785  0  4.118347  0
C  C50  1  0.61761517  0.79603027  0.92579902  1  0  0.432188  0  3.863587  0  0  0.420003  0  4.126476  0  0  0.437476  0  4.14033  0  0  0.107896  0.407846  0  4.118648  0
C  C51  1  0.11760672  0.70397105  0.57419976  1  0  0.432266  0  3.863789  0  0  0.420085  0  4.126623  0  0  0.437568  0  4.140461  0  0  0.107937  0.407933  0  4.118794  0
C  C52  1  0.30176702  0.06447071  0.05424135  1  0  -0.220768  0  3.607654  0  0  -0.253387  0  3.85918  0  0  -0.261581  0  3.876436  0  0  -0.086234  -0.247894  0  3.847001  0
C  C53  1  0.80178682  0.43552136  0.44575244  1  0  -0.22068  0  3.607332  0  0  -0.253334  0  3.858872  0  0  -0.261526  0  3.876129  0  0  -0.086211  -0.247839  0  3.846702  0
C  C54  1  0.69822099  0.93552881  0.94575747  1  0  -0.220846  0  3.607528  0  0  -0.253476  0  3.859074  0  0  -0.261674  0  3.876337  0  0  -0.086246  -0.247992  0  3.846921  0
C  C55  1  0.19821798  0.56447162  0.55424486  1  0  -0.220779  0  3.607473  0  0  -0.253399  0  3.858979  0  0  -0.261598  0  3.876239  0  0  -0.086238  -0.247912  0  3.846831  0
C  C56  1  0.25847079  0.00592194  0.96824841  1  0  0.117578  0  3.785154  0  0  0.122503  0  4.034481  0  0  0.124987  0  4.056415  0  0  0.10814  0.120962  0  4.020645  0
C  C57  1  0.75847938  0.49407772  0.53174761  1  0  0.117596  0  3.785064  0  0  0.122569  0  4.034371  0  0  0.125052  0  4.056307  0  0  0.108186  0.121025  0  4.020537  0
C  C58  1  0.74152626  0.99408431  0.03174939  1  0  0.117505  0  3.78521  0  0  0.122441  0  4.034548  0  0  0.124925  0  4.056486  0  0  0.108115  0.120907  0  4.020706  0
C  C59  1  0.24152413  0.50591851  0.46825078  1  0  0.117531  0  3.785019  0  0  0.122557  0  4.034305  0  0  0.125039  0  4.056249  0  0  0.108153  0.121012  0  4.020476  0
C  C60  1  0.16573710  0.86026963  0.94118732  1  0  0.657376  0  3.860326  0  0  0.603909  0  4.163959  0  0  0.636953  0  4.156503  0  0  0.225579  0.581553  0  4.169003  0
C  C61  1  0.66574348  0.63973154  0.55879975  1  0  0.657379  0  3.860805  0  0  0.603855  0  4.164531  0  0  0.636898  0  4.15708  0  0  0.225489  0.581501  0  4.169573  0
C  C62  1  0.83426769  0.13973405  0.05880048  1  0  0.657409  0  3.860735  0  0  0.603918  0  4.164427  0  0  0.636962  0  4.156966  0  0  0.225501  0.581559  0  4.169475  0
C  C63  1  0.33425486  0.36025312  0.44120481  1  0  0.657601  0  3.860304  0  0  0.603938  0  4.164238  0  0  0.636983  0  4.15678  0  0  0.225542  0.581589  0  4.169282  0
N  N64  1  0.29174873  0.07691473  0.90164309  1  0  -0.476958  0  3.315533  0  0  -0.430744  0  3.570423  0  0  -0.451291  0  3.592509  0  0  -0.414848  -0.420292  0  3.55578  0
N  N65  1  0.79174801  0.42308738  0.59835511  1  0  -0.477012  0  3.315496  0  0  -0.430797  0  3.570446  0  0  -0.451342  0  3.592527  0  0  -0.414836  -0.420338  0  3.555787  0
N  N66  1  0.70825090  0.92309118  0.09835917  1  0  -0.476867  0  3.315135  0  0  -0.430634  0  3.570046  0  0  -0.451179  0  3.59213  0  0  -0.414774  -0.420181  0  3.555381  0
N  N67  1  0.20825421  0.57690685  0.40164043  1  0  -0.476869  0  3.315192  0  0  -0.430623  0  3.570092  0  0  -0.451181  0  3.592179  0  0  -0.414756  -0.420164  0  3.555422  0
O  O68  1  0.31804315  0.22721236  0.77245014  1  0  -0.718625  0  2.074657  0  0  -0.656026  0  2.310039  0  0  -0.688034  0  2.295215  0  0  -0.373795  -0.638477  0  2.318941  0
O  O69  1  0.81803570  0.27280542  0.72755332  1  0  -0.718819  0  2.074593  0  0  -0.656191  0  2.310026  0  0  -0.6882  0  2.295198  0  0  -0.373832  -0.638629  0  2.318927  0
O  O70  1  0.68194874  0.77279904  0.22755286  1  0  -0.718657  0  2.07487  0  0  -0.656038  0  2.310283  0  0  -0.688047  0  2.295459  0  0  -0.37374  -0.638502  0  2.319183  0
O  O71  1  0.18198588  0.72720393  0.27244747  1  0  -0.718675  0  2.07469  0  0  -0.656048  0  2.31014  0  0  -0.688061  0  2.2953  0  0  -0.373829  -0.638498  0  2.319041  0
O  O72  1  0.49815560  0.39207612  0.85062049  1  0  -0.690815  0  1.99827  0  0  -0.634885  0  2.242488  0  0  -0.665382  0  2.227518  0  0  -0.379002  -0.618595  0  2.250966  0
O  O73  1  0.99814995  0.10793338  0.64938271  1  0  -0.690822  0  1.99872  0  0  -0.634875  0  2.243035  0  0  -0.665366  0  2.228062  0  0  -0.378977  -0.618586  0  2.251515  0
O  O74  1  0.50185048  0.60792320  0.14938088  1  0  -0.690856  0  1.99826  0  0  -0.634887  0  2.242521  0  0  -0.665394  0  2.227547  0  0  -0.378966  -0.618608  0  2.250985  0
O  O75  1  0.00183548  0.89205821  0.35061827  1  0  -0.690798  0  1.998632  0  0  -0.634828  0  2.242929  0  0  -0.665321  0  2.22796  0  0  -0.378968  -0.618551  0  2.251405  0
O  O76  1  0.12825678  0.82765387  0.85930417  1  0  -0.716672  0  2.040201  0  0  -0.652342  0  2.279712  0  0  -0.684479  0  2.26606  0  0  -0.36453  -0.634355  0  2.287526  0
O  O77  1  0.62823398  0.67234814  0.64068246  1  0  -0.716784  0  2.040398  0  0  -0.652413  0  2.27996  0  0  -0.684553  0  2.266304  0  0  -0.364525  -0.634412  0  2.287769  0
O  O78  1  0.87176480  0.17234828  0.14068922  1  0  -0.716716  0  2.039921  0  0  -0.652383  0  2.279394  0  0  -0.684521  0  2.265741  0  0  -0.364453  -0.634388  0  2.287189  0
O  O79  1  0.37175145  0.32763850  0.35931077  1  0  -0.716911  0  2.039688  0  0  -0.652508  0  2.279328  0  0  -0.684653  0  2.265651  0  0  -0.364523  -0.634501  0  2.287121  0
O  O80  1  0.12934624  0.78072993  0.99651377  1  0  -0.625417  0  1.92022  0  0  -0.574049  0  2.137683  0  0  -0.596531  0  2.126194  0  0  -0.314676  -0.557814  0  2.144711  0
O  O81  1  0.62936024  0.71926499  0.50347833  1  0  -0.625226  0  1.920613  0  0  -0.573841  0  2.138067  0  0  -0.596324  0  2.12659  0  0  -0.314535  -0.55761  0  2.145094  0
O  O82  1  0.87063790  0.21926401  0.00348559  1  0  -0.625331  0  1.920972  0  0  -0.573956  0  2.13845  0  0  -0.596435  0  2.126954  0  0  -0.314649  -0.557739  0  2.14549  0
O  O83  1  0.37063680  0.28073902  0.49651981  1  0  -0.62534  0  1.921034  0  0  -0.573906  0  2.138593  0  0  -0.596381  0  2.127101  0  0  -0.314617  -0.557689  0  2.145631  0
O  O84  1  0.41837432  0.26588421  0.15519829  1  0  -0.755952  0  2.063545  0  0  -0.68791  0  2.306654  0  0  -0.720255  0  2.295003  0  0  -0.430653  -0.670672  0  2.313327  0
O  O85  1  0.91839081  0.23410149  0.34480274  1  0  -0.756119  0  2.063535  0  0  -0.688095  0  2.306637  0  0  -0.72043  0  2.294984  0  0  -0.430644  -0.670841  0  2.313313  0
O  O86  1  0.58161239  0.73411926  0.84480686  1  0  -0.75614  0  2.063889  0  0  -0.688077  0  2.307014  0  0  -0.720409  0  2.29536  0  0  -0.430701  -0.670834  0  2.313704  0
O  O87  1  0.08161915  0.76588500  0.65519241  1  0  -0.756172  0  2.063992  0  0  -0.688135  0  2.307111  0  0  -0.720473  0  2.295452  0  0  -0.430702  -0.670885  0  2.313799  0
O  O88  1  0.33465620  0.01535828  0.59811516  1  0  -0.859382  0  1.821472  0  0  -0.812469  0  2.000699  0  0  -0.834638  0  1.968507  0  0  -0.59132  -0.800749  0  2.019653  0
O  O89  1  0.83465590  0.48464957  0.90186826  1  0  -0.859619  0  1.821092  0  0  -0.812616  0  2.000482  0  0  -0.834784  0  1.968342  0  0  -0.591239  -0.80091  0  2.019444  0
O  O90  1  0.66534343  0.98464760  0.40187294  1  0  -0.85944  0  1.821507  0  0  -0.812471  0  2.000758  0  0  -0.83464  0  1.968597  0  0  -0.591242  -0.800762  0  2.019723  0
O  O91  1  0.16534114  0.51536554  0.09814426  1  0  -0.859512  0  1.82122  0  0  -0.812541  0  2.000667  0  0  -0.834716  0  1.968522  0  0  -0.591353  -0.800846  0  2.019639  0
O  O92  1  0.93843511  0.11121812  0.83411312  1  0  -0.956222  0  1.87271  0  0  -0.903594  0  2.067293  0  0  -0.930726  0  2.029251  0  0  -0.663847  -0.889457  0  2.090756  0
O  O93  1  0.43842799  0.38879865  0.66589893  1  0  -0.956216  0  1.872647  0  0  -0.903567  0  2.067381  0  0  -0.930684  0  2.029306  0  0  -0.66386  -0.889424  0  2.09085  0
O  O94  1  0.06155935  0.88876050  0.16588354  1  0  -0.956482  0  1.872634  0  0  -0.903819  0  2.067259  0  0  -0.930932  0  2.029189  0  0  -0.663921  -0.8897  0  2.090726  0
O  O95  1  0.56158068  0.61119719  0.33410455  1  0  -0.956109  0  1.872777  0  0  -0.903469  0  2.067468  0  0  -0.930598  0  2.029391  0  0  -0.663822  -0.889353  0  2.090944  0
O  O96  1  0.46409505  0.89074238  0.73604133  1  0  -0.950374  0  1.837846  0  0  -0.900877  0  2.033551  0  0  -0.92817  0  1.994629  0  0  -0.67088  -0.886931  0  2.057894  0
O  O97  1  0.96408644  0.60924614  0.76394074  1  0  -0.950273  0  1.838037  0  0  -0.900887  0  2.033567  0  0  -0.928176  0  1.994651  0  0  -0.670797  -0.886943  0  2.057914  0
O  O98  1  0.53591104  0.10926621  0.26395486  1  0  -0.950477  0  1.837841  0  0  -0.901113  0  2.033311  0  0  -0.928407  0  1.994391  0  0  -0.670886  -0.887183  0  2.057657  0
O  O99  1  0.03591965  0.39075094  0.23606097  1  0  -0.950219  0  1.838128  0  0  -0.900904  0  2.033541  0  0  -0.928192  0  1.994652  0  0  -0.670799  -0.886975  0  2.057889  0
