# generated using pymatgen
data_HgH18C18(SN4)2
_symmetry_space_group_name_H-M   'P 1'
_cell_length_a   8.19196186
_cell_length_b   11.47594780
_cell_length_c   11.47594730
_cell_angle_alpha   112.01344720
_cell_angle_beta   89.15212227
_cell_angle_gamma   89.15192720
_symmetry_Int_Tables_number   1
_chemical_formula_structural   HgH18C18(SN4)2
_chemical_formula_sum   'Hg2 H36 C36 S4 N16'
_cell_volume   999.85608190
_cell_formula_units_Z   2
loop_
 _symmetry_equiv_pos_site_id
 _symmetry_equiv_pos_as_xyz
  1  'x, y, z'
loop_
 _atom_site_type_symbol
 _atom_site_label
 _atom_site_symmetry_multiplicity
 _atom_site_fract_x
 _atom_site_fract_y
 _atom_site_fract_z
 _atom_site_occupancy
 _atom_site_hle17_bader_spin_density
 _atom_site_hle17_ddec_charge
 _atom_site_hle17_ddec_spin_density
 _atom_site_hle17_ddec_sum_bond_order
 _atom_site_hle17_magmom
 _atom_site_hse06_10hf_bader_spin_density
 _atom_site_hse06_10hf_ddec_charge
 _atom_site_hse06_10hf_ddec_spin_density
 _atom_site_hse06_10hf_ddec_sum_bond_order
 _atom_site_hse06_10hf_magmom
 _atom_site_hse06_bader_spin_density
 _atom_site_hse06_ddec_charge
 _atom_site_hse06_ddec_spin_density
 _atom_site_hse06_ddec_sum_bond_order
 _atom_site_hse06_magmom
 _atom_site_pbe_bader_spin_density
 _atom_site_pbe_cm5_charge
 _atom_site_pbe_ddec_charge
 _atom_site_pbe_ddec_spin_density
 _atom_site_pbe_ddec_sum_bond_order
 _atom_site_pbe_magmom
Hg  Hg0  1  0.74999874  0.03568539  0.96430955  1  0  0.59842  0  2.191029  0  0  0.439994  0  2.706278  0  0  0.480634  0  2.68022  0  0  0.49041  0.412501  0  2.723541  0
Hg  Hg1  1  0.25000146  0.96431146  0.03568586  1  0  0.598401  0  2.191025  0  0  0.439976  0  2.706266  0  0  0.480616  0  2.680209  0  0  0.490399  0.412483  0  2.723532  0
H  H2  1  0.31251769  0.64196175  0.84026725  1  0  0.070927  0  0.954405  0  0  0.084418  0  1.013832  0  0  0.086593  0  1.012223  0  0  0.102324  0.082819  0  1.015056  0
H  H3  1  0.18748030  0.15973871  0.35803550  1  0  0.070958  0  0.95433  0  0  0.084405  0  1.013807  0  0  0.086595  0  1.012162  0  0  0.102328  0.082805  0  1.015032  0
H  H4  1  0.68748845  0.35803529  0.15974127  1  0  0.070995  0  0.954425  0  0  0.084453  0  1.013854  0  0  0.086645  0  1.012203  0  0  0.102333  0.082841  0  1.015112  0
H  H5  1  0.81251724  0.84027328  0.64196971  1  0  0.070866  0  0.954468  0  0  0.084377  0  1.013891  0  0  0.086558  0  1.012272  0  0  0.102324  0.082774  0  1.015118  0
H  H6  1  0.14823482  0.63715357  0.65858432  1  0  0.094172  0  0.966621  0  0  0.101361  0  1.034683  0  0  0.104798  0  1.033123  0  0  0.096534  0.098885  0  1.035898  0
H  H7  1  0.35176189  0.34142235  0.36284660  1  0  0.094359  0  0.966617  0  0  0.101498  0  1.034704  0  0  0.104931  0  1.033152  0  0  0.096609  0.099018  0  1.035929  0
H  H8  1  0.85177000  0.36285194  0.34142725  1  0  0.094335  0  0.966651  0  0  0.10149  0  1.034731  0  0  0.104925  0  1.033176  0  0  0.09659  0.099009  0  1.035958  0
H  H9  1  0.64823805  0.65858875  0.63716177  1  0  0.094335  0  0.966666  0  0  0.101543  0  1.03467  0  0  0.104978  0  1.033112  0  0  0.096632  0.099065  0  1.035899  0
H  H10  1  0.94592409  0.46150398  0.56973446  1  0  0.083314  0  0.952837  0  0  0.09863  0  1.008018  0  0  0.100714  0  1.007012  0  0  0.102943  0.097118  0  1.00875  0
H  H11  1  0.55407643  0.43026726  0.53849630  1  0  0.083294  0  0.952836  0  0  0.098611  0  1.008023  0  0  0.100693  0  1.007017  0  0  0.102928  0.097096  0  1.008759  0
H  H12  1  0.05408202  0.53850418  0.43027022  1  0  0.083344  0  0.952718  0  0  0.098613  0  1.007972  0  0  0.100692  0  1.006965  0  0  0.102945  0.097103  0  1.0087  0
H  H13  1  0.44592598  0.56973730  0.46151320  1  0  0.083317  0  0.952769  0  0  0.098609  0  1.007984  0  0  0.100692  0  1.00698  0  0  0.102934  0.097094  0  1.008714  0
H  H14  1  0.91459718  0.30744141  0.67635177  1  0  0.11448  0  0.958967  0  0  0.124892  0  1.020327  0  0  0.128205  0  1.018851  0  0  0.112858  0.122521  0  1.021485  0
H  H15  1  0.58540374  0.32364332  0.69255264  1  0  0.114395  0  0.959016  0  0  0.124828  0  1.020349  0  0  0.128142  0  1.018872  0  0  0.112814  0.122452  0  1.021512  0
H  H16  1  0.08540907  0.69256010  0.32364615  1  0  0.11447  0  0.958954  0  0  0.124866  0  1.020318  0  0  0.128178  0  1.018843  0  0  0.112833  0.122493  0  1.021474  0
H  H17  1  0.41459760  0.67635273  0.30745032  1  0  0.114351  0  0.959114  0  0  0.124833  0  1.020399  0  0  0.128144  0  1.018922  0  0  0.112821  0.122459  0  1.021556  0
H  H18  1  0.38727847  0.25880944  0.02678671  1  0  0.060164  0  0.948453  0  0  0.071805  0  1.022244  0  0  0.072264  0  1.022367  0  0  0.095467  0.071317  0  1.022346  0
H  H19  1  0.11272059  0.97320889  0.74118557  1  0  0.060171  0  0.948429  0  0  0.071816  0  1.022226  0  0  0.072271  0  1.02234  0  0  0.095455  0.071326  0  1.022328  0
H  H20  1  0.61272047  0.74118749  0.97321222  1  0  0.060209  0  0.948433  0  0  0.071831  0  1.02224  0  0  0.072293  0  1.022355  0  0  0.09546  0.071342  0  1.022336  0
H  H21  1  0.88727715  0.02678894  0.25881107  1  0  0.060191  0  0.948414  0  0  0.071832  0  1.022207  0  0  0.072293  0  1.022326  0  0  0.095461  0.071344  0  1.022307  0
H  H22  1  0.38743597  0.34501550  0.92574164  1  0  0.075858  0  0.93632  0  0  0.089764  0  1.000011  0  0  0.090361  0  1.000082  0  0  0.110666  0.089209  0  1.000123  0
H  H23  1  0.11255765  0.07425402  0.65497847  1  0  0.075834  0  0.936271  0  0  0.089763  0  0.999931  0  0  0.090345  0  1.000011  0  0  0.110691  0.089208  0  1.000044  0
H  H24  1  0.61256300  0.65497953  0.07425573  1  0  0.075855  0  0.936272  0  0  0.089786  0  0.999909  0  0  0.090371  0  0.999994  0  0  0.110695  0.089232  0  1.000019  0
H  H25  1  0.88743644  0.92574383  0.34501733  1  0  0.07583  0  0.936303  0  0  0.089745  0  0.999987  0  0  0.090338  0  1.000062  0  0  0.110665  0.089187  0  1.000096  0
H  H26  1  0.27601212  0.53588663  0.10422185  1  0  0.114743  0  0.963566  0  0  0.127114  0  1.03741  0  0  0.129378  0  1.036283  0  0  0.088157  0.125425  0  1.038301  0
H  H27  1  0.22398628  0.89577439  0.46410928  1  0  0.114754  0  0.963617  0  0  0.127145  0  1.037443  0  0  0.129407  0  1.036314  0  0  0.08816  0.125452  0  1.038333  0
H  H28  1  0.72398565  0.46411023  0.89577270  1  0  0.11476  0  0.963599  0  0  0.127153  0  1.037418  0  0  0.129415  0  1.036289  0  0  0.088186  0.125462  0  1.038314  0
H  H29  1  0.77601509  0.10422530  0.53588889  1  0  0.114763  0  0.963526  0  0  0.127131  0  1.037385  0  0  0.129395  0  1.036256  0  0  0.08816  0.125442  0  1.038278  0
H  H30  1  0.46661161  0.48185189  0.13960698  1  0  0.105287  0  0.970562  0  0  0.127408  0  1.031044  0  0  0.128183  0  1.031848  0  0  0.090375  0.126775  0  1.030547  0
H  H31  1  0.03338741  0.86038699  0.51814290  1  0  0.105367  0  0.970522  0  0  0.127491  0  1.031001  0  0  0.128262  0  1.031806  0  0  0.090393  0.126855  0  1.03051  0
H  H32  1  0.53338614  0.51814685  0.86038824  1  0  0.105329  0  0.970581  0  0  0.12746  0  1.03106  0  0  0.128226  0  1.03187  0  0  0.090388  0.126828  0  1.030566  0
H  H33  1  0.96661526  0.13960888  0.48185127  1  0  0.105259  0  0.97058  0  0  0.127409  0  1.031032  0  0  0.12817  0  1.03185  0  0  0.090357  0.126777  0  1.030539  0
H  H34  1  0.28232735  0.44850882  0.20484646  1  0  0.090439  0  0.972989  0  0  0.109735  0  1.039887  0  0  0.110613  0  1.040698  0  0  0.077819  0.109023  0  1.039397  0
H  H35  1  0.21767238  0.79514979  0.55148595  1  0  0.090478  0  0.973039  0  0  0.109802  0  1.03991  0  0  0.110679  0  1.04072  0  0  0.077852  0.109087  0  1.039421  0
H  H36  1  0.71767038  0.55148995  0.79515052  1  0  0.090443  0  0.973028  0  0  0.109758  0  1.039911  0  0  0.110636  0  1.040717  0  0  0.077832  0.109048  0  1.039424  0
H  H37  1  0.78232902  0.20484893  0.44851012  1  0  0.090465  0  0.97301  0  0  0.109779  0  1.039887  0  0  0.110658  0  1.040696  0  0  0.077843  0.109064  0  1.039402  0
C  C38  1  0.22256925  0.56906160  0.80130766  1  0  0.124281  0  3.737853  0  0  0.098538  0  3.998583  0  0  0.10341  0  4.015915  0  0  0.039405  0.095324  0  3.986883  0
C  C39  1  0.27742920  0.19869406  0.43093409  1  0  0.124185  0  3.737795  0  0  0.098474  0  3.998518  0  0  0.103345  0  4.015861  0  0  0.039344  0.09526  0  3.986821  0
C  C40  1  0.77743941  0.43093530  0.19869471  1  0  0.124214  0  3.737927  0  0  0.09853  0  3.998612  0  0  0.103402  0  4.015957  0  0  0.039461  0.095318  0  3.986905  0
C  C41  1  0.72256835  0.80131607  0.56907132  1  0  0.124449  0  3.737934  0  0  0.098662  0  3.998695  0  0  0.103532  0  4.016035  0  0  0.039405  0.095452  0  3.986995  0
C  C42  1  0.13147819  0.56534446  0.69820645  1  0  -0.127761  0  3.762069  0  0  -0.142688  0  4.017112  0  0  -0.147825  0  4.038302  0  0  -0.093884  -0.139353  0  4.002862  0
C  C43  1  0.36852081  0.30179913  0.43465490  1  0  -0.12792  0  3.76219  0  0  -0.142803  0  4.017218  0  0  -0.147941  0  4.038413  0  0  -0.093939  -0.139471  0  4.00297  0
C  C44  1  0.86852545  0.43466009  0.30180304  1  0  -0.12795  0  3.762088  0  0  -0.142853  0  4.017105  0  0  -0.147997  0  4.038306  0  0  -0.093997  -0.139518  0  4.002852  0
C  C45  1  0.63148160  0.69820914  0.56535332  1  0  -0.128003  0  3.762432  0  0  -0.142935  0  4.017489  0  0  -0.148071  0  4.038682  0  0  -0.093925  -0.139612  0  4.003254  0
C  C46  1  0.01962732  0.46911018  0.65049037  1  0  -0.024998  0  3.768939  0  0  -0.039689  0  4.014609  0  0  -0.038188  0  4.034692  0  0  -0.07686  -0.040434  0  4.000835  0
C  C47  1  0.48037144  0.34950982  0.53088709  1  0  -0.025018  0  3.768981  0  0  -0.03971  0  4.014642  0  0  -0.038211  0  4.034727  0  0  -0.076881  -0.04045  0  4.000865  0
C  C48  1  0.98037637  0.53089521  0.34951419  1  0  -0.025039  0  3.76883  0  0  -0.039705  0  4.014506  0  0  -0.038199  0  4.034587  0  0  -0.076869  -0.040455  0  4.000737  0
C  C49  1  0.51963099  0.65049749  0.46911991  1  0  -0.025042  0  3.76899  0  0  -0.039719  0  4.014693  0  0  -0.038221  0  4.034775  0  0  -0.076975  -0.040464  0  4.000919  0
C  C50  1  0.00134586  0.38323714  0.70837221  1  0  -0.132505  0  3.704821  0  0  -0.153269  0  3.947872  0  0  -0.158624  0  3.968716  0  0  -0.078987  -0.14979  0  3.933955  0
C  C51  1  0.49865472  0.29162536  0.61675869  1  0  -0.132387  0  3.704663  0  0  -0.153164  0  3.947693  0  0  -0.158516  0  3.968536  0  0  -0.078921  -0.149683  0  3.933774  0
C  C52  1  0.99866040  0.61676157  0.29162558  1  0  -0.132444  0  3.704748  0  0  -0.153143  0  3.947753  0  0  -0.158496  0  3.968597  0  0  -0.078932  -0.149658  0  3.93383  0
C  C53  1  0.50134289  0.70837450  0.38324652  1  0  -0.132404  0  3.704715  0  0  -0.153221  0  3.947726  0  0  -0.158571  0  3.968567  0  0  -0.078921  -0.149738  0  3.9338  0
C  C54  1  0.09558537  0.39710702  0.81389815  1  0  0.159506  0  3.803228  0  0  0.163513  0  4.052329  0  0  0.168552  0  4.070619  0  0  0.121178  0.16004  0  4.04006  0
C  C55  1  0.40441040  0.18609885  0.60288794  1  0  0.159481  0  3.803133  0  0  0.163515  0  4.05219  0  0  0.168553  0  4.070482  0  0  0.121146  0.160039  0  4.039913  0
C  C56  1  0.90441601  0.60289080  0.18610022  1  0  0.159576  0  3.803209  0  0  0.163528  0  4.05232  0  0  0.168567  0  4.070609  0  0  0.121156  0.16005  0  4.040047  0
C  C57  1  0.59558358  0.81390378  0.39711393  1  0  0.159528  0  3.803087  0  0  0.163562  0  4.052154  0  0  0.168601  0  4.070445  0  0  0.121161  0.160084  0  4.039878  0
C  C58  1  0.06566115  0.31387746  0.88173531  1  0  0.209637  0  3.73462  0  0  0.175784  0  4.012967  0  0  0.186374  0  4.027078  0  0  0.21873  0.168786  0  4.003364  0
C  C59  1  0.43433712  0.11826144  0.68611781  1  0  0.209582  0  3.734566  0  0  0.175744  0  4.012883  0  0  0.186334  0  4.026997  0  0  0.218731  0.168762  0  4.003259  0
C  C60  1  0.93434394  0.68611748  0.11826026  1  0  0.209503  0  3.734733  0  0  0.17573  0  4.012957  0  0  0.18632  0  4.027069  0  0  0.218709  0.168754  0  4.003327  0
C  C61  1  0.56565688  0.88173932  0.31388339  1  0  0.209626  0  3.734588  0  0  0.175745  0  4.012903  0  0  0.186334  0  4.027016  0  0  0.218718  0.168762  0  4.003277  0
C  C62  1  0.07279046  0.21853601  0.01578490  1  0  0.271994  0  3.806755  0  0  0.237595  0  4.096229  0  0  0.254734  0  4.112055  0  0  0.202015  0.22621  0  4.085273  0
C  C63  1  0.42720764  0.98421396  0.78145874  1  0  0.271845  0  3.806903  0  0  0.237509  0  4.096314  0  0  0.254645  0  4.112147  0  0  0.20196  0.226122  0  4.085357  0
C  C64  1  0.92720974  0.78145899  0.98421159  1  0  0.271829  0  3.806844  0  0  0.23747  0  4.096255  0  0  0.254606  0  4.112085  0  0  0.201959  0.226088  0  4.085295  0
C  C65  1  0.57278886  0.01578484  0.21853913  1  0  0.271934  0  3.80676  0  0  0.237505  0  4.09624  0  0  0.254639  0  4.112076  0  0  0.201999  0.226125  0  4.085272  0
C  C66  1  0.32793906  0.33637674  0.00804562  1  0  0.068381  0  3.627578  0  0  0.010696  0  3.885898  0  0  0.016618  0  3.895525  0  0  -0.059015  0.006813  0  3.879338  0
C  C67  1  0.17205852  0.99194973  0.66361671  1  0  0.06853  0  3.627477  0  0  0.01083  0  3.885829  0  0  0.01679  0  3.895403  0  0  -0.05896  0.006948  0  3.87927  0
C  C68  1  0.67206114  0.66361920  0.99195121  1  0  0.068383  0  3.627504  0  0  0.01069  0  3.88583  0  0  0.016627  0  3.895433  0  0  -0.058996  0.006806  0  3.87927  0
C  C69  1  0.82793679  0.00804811  0.33637907  1  0  0.068458  0  3.627612  0  0  0.010746  0  3.885907  0  0  0.016677  0  3.895518  0  0  -0.058971  0.006866  0  3.879343  0
C  C70  1  0.33761930  0.45851457  0.12147648  1  0  -0.316938  0  3.691195  0  0  -0.39083  0  3.932842  0  0  -0.393683  0  3.941684  0  0  -0.25124  -0.388526  0  3.926758  0
C  C71  1  0.16237892  0.87851924  0.54148085  1  0  -0.317146  0  3.691439  0  0  -0.391068  0  3.933004  0  0  -0.393939  0  3.94187  0  0  -0.251306  -0.388753  0  3.92692  0
C  C72  1  0.66237845  0.54148232  0.87851982  1  0  -0.317025  0  3.691329  0  0  -0.390935  0  3.932895  0  0  -0.393801  0  3.941784  0  0  -0.251287  -0.388626  0  3.926817  0
C  C73  1  0.83762126  0.12147857  0.45851578  1  0  -0.317013  0  3.691245  0  0  -0.390937  0  3.932857  0  0  -0.393787  0  3.941715  0  0  -0.251264  -0.388632  0  3.926781  0
S  S74  1  0.12557898  0.17807008  0.14039590  1  0  -0.375536  0  2.235863  0  0  -0.346278  0  2.627323  0  0  -0.363324  0  2.62112  0  0  -0.168278  -0.334431  0  2.6313  0
S  S75  1  0.37441834  0.85960247  0.82192627  1  0  -0.375512  0  2.235912  0  0  -0.346268  0  2.62735  0  0  -0.363302  0  2.621143  0  0  -0.168273  -0.334414  0  2.631313  0
S  S76  1  0.87441634  0.82192590  0.85960009  1  0  -0.37552  0  2.235857  0  0  -0.346293  0  2.62732  0  0  -0.363327  0  2.621114  0  0  -0.168298  -0.334445  0  2.631289  0
S  S77  1  0.62558186  0.14039530  0.17806860  1  0  -0.375544  0  2.235784  0  0  -0.346283  0  2.627234  0  0  -0.36332  0  2.621029  0  0  -0.1683  -0.334434  0  2.631205  0
N  N78  1  0.20638838  0.48783144  0.85913330  1  0  -0.325994  0  3.05124  0  0  -0.295121  0  3.317057  0  0  -0.304953  0  3.331879  0  0  -0.312991  -0.288361  0  3.307017  0
N  N79  1  0.29361072  0.14086686  0.51216353  1  0  -0.325928  0  3.051323  0  0  -0.295068  0  3.317117  0  0  -0.3049  0  3.331943  0  0  -0.312931  -0.288308  0  3.307073  0
N  N80  1  0.79361665  0.51216360  0.14086754  1  0  -0.326021  0  3.051342  0  0  -0.295172  0  3.317187  0  0  -0.305005  0  3.332012  0  0  -0.313007  -0.288417  0  3.30715  0
N  N81  1  0.70638568  0.85913947  0.48783791  1  0  -0.326005  0  3.051229  0  0  -0.295142  0  3.317072  0  0  -0.304975  0  3.331898  0  0  -0.312977  -0.288384  0  3.307028  0
N  N82  1  0.93015870  0.24770176  0.86677009  1  0  -0.234482  0  2.93584  0  0  -0.227126  0  3.223797  0  0  -0.23258  0  3.237448  0  0  -0.217531  -0.223235  0  3.214386  0
N  N83  1  0.56983737  0.13322712  0.75229343  1  0  -0.234449  0  2.935889  0  0  -0.227101  0  3.223847  0  0  -0.232558  0  3.2375  0  0  -0.217545  -0.22322  0  3.214434  0
N  N84  1  0.06984277  0.75229317  0.13322288  1  0  -0.234413  0  2.935834  0  0  -0.22708  0  3.223768  0  0  -0.232538  0  3.237422  0  0  -0.217503  -0.223197  0  3.214352  0
N  N85  1  0.43015785  0.86677363  0.24770776  1  0  -0.234504  0  2.935807  0  0  -0.227168  0  3.223792  0  0  -0.232623  0  3.237444  0  0  -0.21755  -0.223283  0  3.214375  0
N  N86  1  0.93488810  0.18911756  0.94977530  1  0  -0.258422  0  3.185765  0  0  -0.190044  0  3.478072  0  0  -0.208702  0  3.496408  0  0  -0.222285  -0.177436  0  3.465316  0
N  N87  1  0.56510493  0.05022443  0.81087998  1  0  -0.258314  0  3.185772  0  0  -0.189963  0  3.478058  0  0  -0.20862  0  3.496395  0  0  -0.222217  -0.177354  0  3.465299  0
N  N88  1  0.06510966  0.81087931  0.05022013  1  0  -0.258323  0  3.185703  0  0  -0.189982  0  3.478014  0  0  -0.208637  0  3.496348  0  0  -0.222243  -0.177379  0  3.465262  0
N  N89  1  0.43489030  0.94977630  0.18912033  1  0  -0.258339  0  3.185726  0  0  -0.189966  0  3.478036  0  0  -0.208622  0  3.496375  0  0  -0.222259  -0.177361  0  3.465281  0
N  N90  1  0.15991850  0.29683694  0.97284664  1  0  -0.145765  0  3.422015  0  0  -0.056231  0  3.641429  0  0  -0.073263  0  3.663665  0  0  -0.222611  -0.044962  0  3.626273  0
N  N91  1  0.34007812  0.02715004  0.70315784  1  0  -0.145743  0  3.421995  0  0  -0.056251  0  3.641426  0  0  -0.073289  0  3.663652  0  0  -0.222628  -0.044994  0  3.626275  0
N  N92  1  0.84008172  0.70315804  0.02714898  1  0  -0.145703  0  3.422076  0  0  -0.056158  0  3.641384  0  0  -0.073189  0  3.663614  0  0  -0.222601  -0.044903  0  3.626231  0
N  N93  1  0.65991715  0.97284879  0.29684091  1  0  -0.145748  0  3.422051  0  0  -0.056125  0  3.641358  0  0  -0.073156  0  3.663594  0  0  -0.22256  -0.044865  0  3.6262  0
