# generated using pymatgen
data_CdH20C22N2O7
_symmetry_space_group_name_H-M   'P 1'
_cell_length_a   12.00847363
_cell_length_b   12.00847305
_cell_length_c   17.65528652
_cell_angle_alpha   96.40969985
_cell_angle_beta   96.40993174
_cell_angle_gamma   109.50614391
_symmetry_Int_Tables_number   1
_chemical_formula_structural   CdH20C22N2O7
_chemical_formula_sum   'Cd4 H80 C88 N8 O28'
_cell_volume   2354.49813247
_cell_formula_units_Z   4
loop_
 _symmetry_equiv_pos_site_id
 _symmetry_equiv_pos_as_xyz
  1  'x, y, z'
loop_
 _atom_site_type_symbol
 _atom_site_label
 _atom_site_symmetry_multiplicity
 _atom_site_fract_x
 _atom_site_fract_y
 _atom_site_fract_z
 _atom_site_occupancy
 _atom_site_pbe_bader_charge
 _atom_site_pbe_bader_spin_density
 _atom_site_pbe_cm5_charge
 _atom_site_pbe_ddec_charge
 _atom_site_pbe_ddec_spin_density
 _atom_site_pbe_ddec_sum_bond_order
 _atom_site_pbe_magmom
Cd  Cd0  1  0.70532510  0.54610313  0.92853957  1  1.263238  0  0.757446  0.858423  0  2.150553  0
Cd  Cd1  1  0.45390081  0.29468128  0.57146315  1  1.263202  0  0.757431  0.858359  0  2.150588  0
Cd  Cd2  1  0.29467275  0.45389777  0.07146013  1  1.263252  0  0.757433  0.858416  0  2.150552  0
Cd  Cd3  1  0.54610331  0.70532354  0.42853900  1  1.26328  0  0.757408  0.858376  0  2.150665  0
H  H4  1  0.44599664  0.41902209  0.90896656  1  0.649017  0  0.29127  0.397775  0  0.928935  0
H  H5  1  0.58097868  0.55400097  0.59103623  1  0.649027  0  0.291297  0.397858  0  0.928823  0
H  H6  1  0.55400215  0.58097665  0.09103701  1  0.649003  0  0.291304  0.397846  0  0.928843  0
H  H7  1  0.41902727  0.44599696  0.40896611  1  0.64894  0  0.291279  0.397778  0  0.928934  0
H  H8  1  0.50031056  0.42281480  0.83238463  1  0.62237  0  0.297641  0.377958  0  0.937724  0
H  H9  1  0.57718337  0.49968925  0.66761933  1  0.622617  0  0.297639  0.377945  0  0.937727  0
H  H10  1  0.49969003  0.57718290  0.16761843  1  0.622645  0  0.297619  0.37794  0  0.937803  0
H  H11  1  0.42281809  0.50031128  0.33238344  1  0.622361  0  0.297619  0.377945  0  0.937775  0
H  H12  1  0.73522952  0.50834093  0.75096514  1  0.125448  0  0.113357  0.093876  0  1.045095  0
H  H13  1  0.49166362  0.26477663  0.74904109  1  0.125383  0  0.113335  0.093819  0  1.045134  0
H  H14  1  0.26476920  0.49166531  0.24903502  1  0.125551  0  0.113361  0.093871  0  1.045149  0
H  H15  1  0.50833423  0.73522511  0.25095980  1  0.125456  0  0.113337  0.093851  0  1.045137  0
H  H16  1  0.81919554  0.40150903  0.65813922  1  0.080663  0  0.112676  0.126844  0  0.994243  0
H  H17  1  0.59849594  0.18080487  0.84186348  1  0.080525  0  0.112652  0.126802  0  0.994244  0
H  H18  1  0.18080321  0.59849388  0.34186239  1  0.080814  0  0.112686  0.126829  0  0.99428  0
H  H19  1  0.40149835  0.81918889  0.15813430  1  0.080769  0  0.112698  0.126836  0  0.994217  0
H  H20  1  0.98797206  0.29567497  0.85315716  1  0.081981  0  0.099811  0.104044  0  1.028004  0
H  H21  1  0.70431981  0.01203243  0.64684320  1  0.082127  0  0.099849  0.10412  0  1.027915  0
H  H22  1  0.01202225  0.70432218  0.14684484  1  0.081975  0  0.099841  0.104084  0  1.028046  0
H  H23  1  0.29567534  0.98796666  0.35315334  1  0.081544  0  0.099842  0.10408  0  1.027946  0
H  H24  1  0.89039549  0.40287737  0.93769199  1  0.120016  0  0.117464  0.10331  0  1.01948  0
H  H25  1  0.59711615  0.10961116  0.56230872  1  0.120031  0  0.117445  0.103272  0  1.019454  0
H  H26  1  0.10959790  0.59711943  0.06230708  1  0.120048  0  0.117451  0.103344  0  1.019379  0
H  H27  1  0.40287809  0.89038928  0.43768784  1  0.120144  0  0.11746  0.103336  0  1.019383  0
H  H28  1  0.05076327  0.27383454  0.72313099  1  0.039202  0  0.09199  0.092793  0  0.996937  0
H  H29  1  0.72616340  0.94923651  0.77686971  1  0.039231  0  0.091992  0.0928  0  0.996953  0
H  H30  1  0.94923549  0.72616838  0.27687118  1  0.039259  0  0.091965  0.092788  0  0.996924  0
H  H31  1  0.27382999  0.05075945  0.22312873  1  0.039267  0  0.092006  0.092833  0  0.99694  0
H  H32  1  0.90579519  0.16803718  0.69290934  1  0.03316  0  0.090719  0.086952  0  1.020503  0
H  H33  1  0.83196173  0.09420265  0.80709090  1  0.033332  0  0.090715  0.086948  0  1.02052  0
H  H34  1  0.09420270  0.83196291  0.30709370  1  0.033278  0  0.090682  0.086898  0  1.020581  0
H  H35  1  0.16803255  0.90579194  0.19290581  1  0.033061  0  0.090731  0.086967  0  1.02047  0
H  H36  1  0.02376889  0.38374017  0.61478007  1  0.057906  0  0.093439  0.094045  0  1.012203  0
H  H37  1  0.61625940  0.97623241  0.88522068  1  0.057906  0  0.093431  0.094022  0  1.01218  0
H  H38  1  0.97622810  0.61625792  0.38522106  1  0.057862  0  0.093443  0.094041  0  1.012284  0
H  H39  1  0.38374209  0.02376477  0.11478185  1  0.057992  0  0.093448  0.094034  0  1.0122  0
H  H40  1  0.87618561  0.28303292  0.58437438  1  0.030729  0  0.095225  0.091985  0  0.983926  0
H  H41  1  0.71696763  0.12381633  0.91562721  1  0.030917  0  0.095213  0.091942  0  0.983911  0
H  H42  1  0.12381407  0.71696362  0.41562683  1  0.030717  0  0.095214  0.091948  0  0.983927  0
H  H43  1  0.28303294  0.87617967  0.08437176  1  0.03084  0  0.0952  0.091917  0  0.983969  0
H  H44  1  0.04784148  0.25065332  0.51596524  1  0.083263  0  0.103533  0.116849  0  0.971735  0
H  H45  1  0.74934728  0.95215850  0.98403570  1  0.083247  0  0.103538  0.116833  0  0.971709  0
H  H46  1  0.95216272  0.74934400  0.48404033  1  0.083191  0  0.103506  0.116796  0  0.971723  0
H  H47  1  0.25065954  0.04783805  0.01596207  1  0.083141  0  0.103508  0.116814  0  0.971735  0
H  H48  1  0.08635846  0.19232739  0.59841812  1  0.040731  0  0.093101  0.098702  0  0.984279  0
H  H49  1  0.80767167  0.91364244  0.90158234  1  0.04076  0  0.093113  0.098698  0  0.984285  0
H  H50  1  0.91364305  0.80767234  0.40158969  1  0.040889  0  0.093081  0.098685  0  0.984299  0
H  H51  1  0.19233153  0.08635615  0.09841248  1  0.040882  0  0.093105  0.098702  0  0.984297  0
H  H52  1  0.77519252  0.80380099  0.56341034  1  0.109453  0  0.119288  0.09298  0  0.984405  0
H  H53  1  0.19620161  0.22480444  0.93659360  1  0.109517  0  0.119305  0.093047  0  0.984358  0
H  H54  1  0.22480804  0.19619921  0.43659064  1  0.10949  0  0.119277  0.093047  0  0.984353  0
H  H55  1  0.80380158  0.77520087  0.06340569  1  0.109645  0  0.119293  0.092998  0  0.984331  0
H  H56  1  0.95202234  0.98859137  0.61897529  1  0.055093  0  0.101787  0.106677  0  1.000672  0
H  H57  1  0.01141216  0.04797164  0.88102679  1  0.054968  0  0.101844  0.106744  0  1.000693  0
H  H58  1  0.04797467  0.01140674  0.38102811  1  0.055051  0  0.101851  0.106769  0  1.000634  0
H  H59  1  0.98859551  0.95202938  0.11896911  1  0.055068  0  0.101869  0.106774  0  1.000655  0
H  H60  1  0.84693979  0.15787551  0.43426505  1  0.123847  0  0.108267  0.131226  0  1.019835  0
H  H61  1  0.84212502  0.15306147  0.06573329  1  0.123853  0  0.108252  0.131206  0  1.019919  0
H  H62  1  0.15306882  0.84212755  0.56573673  1  0.124203  0  0.108226  0.131186  0  1.019932  0
H  H63  1  0.15787372  0.84693554  0.93426279  1  0.124177  0  0.108259  0.131193  0  1.019863  0
H  H64  1  0.67620126  0.96638727  0.38618271  1  0.109683  0  0.110473  0.077897  0  1.040103  0
H  H65  1  0.03361209  0.32379966  0.11381646  1  0.109699  0  0.110472  0.077882  0  1.040105  0
H  H66  1  0.32380646  0.03361379  0.61381773  1  0.109633  0  0.110459  0.077853  0  1.040136  0
H  H67  1  0.96638394  0.67620225  0.88618092  1  0.109651  0  0.110492  0.077973  0  1.040099  0
H  H68  1  0.01682679  0.24615270  0.27136447  1  0.609753  0  0.3448  0.37886  0  0.854525  0
H  H69  1  0.75385212  0.98318168  0.22863234  1  0.609943  0  0.344786  0.37889  0  0.854504  0
H  H70  1  0.98316839  0.75384305  0.72863296  1  0.609795  0  0.344827  0.37895  0  0.854567  0
H  H71  1  0.24615821  0.01682783  0.77136607  1  0.609856  0  0.344781  0.37885  0  0.854589  0
H  H72  1  0.67445082  0.59930016  0.19460307  1  0.083995  0  0.105337  0.096925  0  1.063169  0
H  H73  1  0.40068834  0.32554219  0.30539804  1  0.083893  0  0.105344  0.09694  0  1.063137  0
H  H74  1  0.32554082  0.40069353  0.80539904  1  0.083897  0  0.105293  0.096836  0  1.063117  0
H  H75  1  0.59931043  0.67445821  0.69460395  1  0.083925  0  0.105338  0.096938  0  1.063172  0
H  H76  1  0.80158661  0.44528234  0.37797140  1  0.15143  0  0.117325  0.125598  0  0.98452  0
H  H77  1  0.55470995  0.19841330  0.12202975  1  0.15141  0  0.117355  0.125653  0  0.984537  0
H  H78  1  0.19841932  0.55471809  0.62202999  1  0.151439  0  0.117331  0.125604  0  0.98452  0
H  H79  1  0.44528520  0.80158580  0.87796792  1  0.151501  0  0.117341  0.125652  0  0.984558  0
H  H80  1  0.86584796  0.36314992  0.14522141  1  0.107573  0  0.109854  0.115399  0  1.017972  0
H  H81  1  0.63685154  0.13415728  0.35478044  1  0.107466  0  0.109842  0.115379  0  1.017989  0
H  H82  1  0.13414721  0.63685087  0.85477865  1  0.107527  0  0.109819  0.115373  0  1.017964  0
H  H83  1  0.36315166  0.86584551  0.64521752  1  0.107463  0  0.109826  0.11537  0  1.018032  0
C  C84  1  0.79023033  0.45822292  0.77094972  1  0.460367  0  0.038945  0.087863  0  3.962775  0
C  C85  1  0.54177947  0.20977748  0.72905322  1  0.459817  0  0.03898  0.087877  0  3.962717  0
C  C86  1  0.20976930  0.54178198  0.22905153  1  0.460327  0  0.038919  0.087739  0  3.962644  0
C  C87  1  0.45821837  0.79022425  0.27094541  1  0.459801  0  0.038968  0.087822  0  3.962857  0
C  C88  1  0.83877874  0.39846714  0.71943042  1  -0.024098  0  -0.087391  -0.184402  0  3.937905  0
C  C89  1  0.60153431  0.16122685  0.78057243  1  -0.02378  0  -0.08737  -0.184365  0  3.937864  0
C  C90  1  0.16121825  0.60153432  0.28057379  1  -0.024307  0  -0.087328  -0.184253  0  3.937772  0
C  C91  1  0.39846443  0.83877521  0.21942742  1  -0.024005  0  -0.087295  -0.184245  0  3.937962  0
C  C92  1  0.90974460  0.33560761  0.74720392  1  0.012091  0  0.011896  0.162838  0  3.941653  0
C  C93  1  0.66439124  0.09025775  0.75279869  1  0.011773  0  0.011879  0.162878  0  3.941545  0
C  C94  1  0.09024882  0.66439006  0.25279862  1  0.0117  0  0.011848  0.162865  0  3.941505  0
C  C95  1  0.33560126  0.90973537  0.24719778  1  0.011933  0  0.011726  0.162729  0  3.941678  0
C  C96  1  0.93054171  0.33972263  0.82745020  1  -0.066842  0  -0.089477  -0.183281  0  3.953502  0
C  C97  1  0.66027194  0.06946170  0.67255219  1  -0.066727  0  -0.089575  -0.183502  0  3.953435  0
C  C98  1  0.06945169  0.66027586  0.17255070  1  -0.066975  0  -0.089518  -0.183439  0  3.953552  0
C  C99  1  0.33971608  0.93052982  0.32744326  1  -0.066662  0  -0.089447  -0.18329  0  3.953256  0
C  C100  1  0.87780467  0.39995604  0.87531868  1  0.485587  0  0.043811  0.091026  0  3.947131  0
C  C101  1  0.60004355  0.12220254  0.62468364  1  0.485625  0  0.043845  0.091079  0  3.947228  0
C  C102  1  0.12218960  0.60004443  0.12468129  1  0.485712  0  0.043856  0.091084  0  3.947094  0
C  C103  1  0.39995340  0.87779888  0.37531604  1  0.485694  0  0.04378  0.090916  0  3.947062  0
C  C104  1  0.96024745  0.26327674  0.69519299  1  -0.024723  0  -0.159988  -0.204942  0  3.964174  0
C  C105  1  0.73672100  0.03975286  0.80480729  1  -0.025014  0  -0.159945  -0.20491  0  3.964164  0
C  C106  1  0.03974863  0.73672355  0.30480880  1  -0.024733  0  -0.159927  -0.204892  0  3.964096  0
C  C107  1  0.26327149  0.96024360  0.19518999  1  -0.024756  0  -0.159955  -0.204933  0  3.964257  0
C  C108  1  0.96525029  0.29090596  0.61313367  1  -0.032093  0  -0.158728  -0.129486  0  3.902297  0
C  C109  1  0.70909567  0.03475078  0.88686918  1  -0.032012  0  -0.158724  -0.129423  0  3.902251  0
C  C110  1  0.03474850  0.70909278  0.38686877  1  -0.031741  0  -0.158727  -0.12943  0  3.902242  0
C  C111  1  0.29090490  0.96524523  0.11313035  1  -0.032177  0  -0.158677  -0.129378  0  3.902397  0
C  C112  1  0.01186955  0.20689085  0.56380844  1  -0.033968  0  -0.157325  -0.206843  0  3.927236  0
C  C113  1  0.79310837  0.98812980  0.93619123  1  -0.034009  0  -0.157311  -0.206784  0  3.927379  0
C  C114  1  0.98813193  0.79310886  0.43619654  1  -0.034192  0  -0.157258  -0.206757  0  3.927211  0
C  C115  1  0.20689485  0.01186880  0.06380473  1  -0.034331  0  -0.157287  -0.206742  0  3.927446  0
C  C116  1  0.79446536  0.88488133  0.53708584  1  0.496856  0  0.046466  0.094456  0  3.976436  0
C  C117  1  0.11511967  0.20553055  0.96291668  1  0.497385  0  0.046398  0.094279  0  3.976466  0
C  C118  1  0.20553431  0.11511689  0.46291606  1  0.496908  0  0.046395  0.094179  0  3.976533  0
C  C119  1  0.88488354  0.79447058  0.03708173  1  0.496945  0  0.046429  0.094375  0  3.976472  0
C  C120  1  0.89182048  0.98824632  0.56779426  1  -0.090966  0  -0.091546  -0.201842  0  3.978389  0
C  C121  1  0.01175583  0.10817350  0.93220820  1  -0.090811  0  -0.091574  -0.201872  0  3.97833  0
C  C122  1  0.10817563  0.01175230  0.43220911  1  -0.090916  0  -0.091584  -0.201827  0  3.978383  0
C  C123  1  0.98825006  0.89182774  0.06778929  1  -0.090942  0  -0.091569  -0.201797  0  3.978358  0
C  C124  1  0.91309597  0.09024520  0.53199293  1  0.002062  0  0.014103  0.169537  0  3.951195  0
C  C125  1  0.90975365  0.08690134  0.96800794  1  0.001992  0  0.01406  0.16949  0  3.95123  0
C  C126  1  0.08690552  0.90975115  0.46801010  1  0.001883  0  0.014048  0.16944  0  3.9511  0
C  C127  1  0.09025044  0.91310008  0.03198772  1  0.002185  0  0.01395  0.169209  0  3.951429  0
C  C128  1  0.83391039  0.08174068  0.46511277  1  -0.039179  0  -0.085191  -0.187641  0  3.919966  0
C  C129  1  0.91825873  0.16609013  0.03488722  1  -0.039179  0  -0.085174  -0.187649  0  3.920054  0
C  C130  1  0.16609556  0.91825809  0.53488907  1  -0.039475  0  -0.085123  -0.187588  0  3.919889  0
C  C131  1  0.08174360  0.83390817  0.96511035  1  -0.03945  0  -0.085074  -0.187357  0  3.919839  0
C  C132  1  0.73888124  0.97542554  0.43811901  1  0.467466  0  0.041571  0.092404  0  3.972131  0
C  C133  1  0.02457323  0.26112080  0.06188027  1  0.467481  0  0.041577  0.092441  0  3.972117  0
C  C134  1  0.26112379  0.02457624  0.56188242  1  0.467556  0  0.041608  0.092496  0  3.972087  0
C  C135  1  0.97542459  0.73888091  0.93811665  1  0.46751  0  0.041516  0.092234  0  3.972271  0
C  C136  1  0.76468169  0.47896191  0.16051739  1  -0.012703  0  -0.015465  -0.03056  0  3.978022  0
C  C137  1  0.52103617  0.23531988  0.33948365  1  -0.012941  0  -0.015484  -0.030741  0  3.978218  0
C  C138  1  0.23530989  0.52103843  0.83948124  1  -0.012455  0  -0.015453  -0.030502  0  3.978007  0
C  C139  1  0.47896614  0.76468344  0.66051543  1  -0.012667  0  -0.015491  -0.030677  0  3.97823  0
C  C140  1  0.71961147  0.54033577  0.21366413  1  0.008029  0  -0.071904  -0.096463  0  3.936093  0
C  C141  1  0.45965848  0.28038695  0.28633682  1  0.007734  0  -0.0719  -0.09639  0  3.936205  0
C  C142  1  0.28038637  0.45967017  0.78633764  1  0.007743  0  -0.071706  -0.096158  0  3.936046  0
C  C143  1  0.54033581  0.71960934  0.71366228  1  0.007619  0  -0.071843  -0.09632  0  3.936208  0
C  C144  1  0.73082875  0.52781844  0.29152076  1  -0.055985  0  -0.015765  -0.025262  0  3.9702  0
C  C145  1  0.47216955  0.26916481  0.20848280  1  -0.05554  0  -0.015673  -0.025004  0  3.970386  0
C  C146  1  0.26917274  0.47217874  0.70848176  1  -0.056043  0  -0.015844  -0.025413  0  3.970302  0
C  C147  1  0.52782476  0.73082813  0.79151662  1  -0.055418  0  -0.015758  -0.025328  0  3.970408  0
C  C148  1  0.79279629  0.45617187  0.31738286  1  -0.02536  0  -0.059673  -0.083141  0  3.905499  0
C  C149  1  0.54381460  0.20719957  0.18262094  1  -0.025385  0  -0.059816  -0.083511  0  3.905922  0
C  C150  1  0.20720250  0.54382267  0.68261758  1  -0.025386  0  -0.059654  -0.083126  0  3.905408  0
C  C151  1  0.45617968  0.79279922  0.81737834  1  -0.025306  0  -0.059729  -0.083281  0  3.905619  0
C  C152  1  0.84443175  0.39903029  0.26529188  1  -0.020801  0  -0.021493  -0.065778  0  4.008645  0
C  C153  1  0.60096841  0.15556828  0.23471044  1  -0.019333  0  -0.021486  -0.065598  0  4.008603  0
C  C154  1  0.15556879  0.60096988  0.73470683  1  -0.020486  0  -0.02142  -0.06564  0  4.008573  0
C  C155  1  0.39903302  0.84443390  0.76528961  1  -0.019478  0  -0.021549  -0.065789  0  4.008743  0
C  C156  1  0.82896279  0.40904137  0.18672337  1  -0.027481  0  -0.06526  -0.082889  0  3.895576  0
C  C157  1  0.59095753  0.17103740  0.31327838  1  -0.02772  0  -0.06523  -0.082845  0  3.895597  0
C  C158  1  0.17103597  0.59095903  0.81327750  1  -0.027167  0  -0.065284  -0.082965  0  3.895735  0
C  C159  1  0.40904658  0.82896405  0.68672069  1  -0.027778  0  -0.065186  -0.082786  0  3.895564  0
C  C160  1  0.74346932  0.48942699  0.07676377  1  1.549848  0  0.196046  0.564511  0  4.223352  0
C  C161  1  0.51057950  0.25653515  0.42323636  1  1.549847  0  0.196048  0.564479  0  4.223125  0
C  C162  1  0.25653121  0.51057571  0.92323683  1  1.54989  0  0.195977  0.56435  0  4.223017  0
C  C163  1  0.48943086  0.74346852  0.57676163  1  1.549535  0  0.19596  0.56437  0  4.223501  0
C  C164  1  0.91567559  0.33040263  0.29703406  1  1.473097  0  0.227389  0.565653  0  4.136054  0
C  C165  1  0.66960015  0.08433060  0.20296467  1  1.473174  0  0.227403  0.565624  0  4.136038  0
C  C166  1  0.08432678  0.66959737  0.70296874  1  1.472971  0  0.227407  0.565641  0  4.135942  0
C  C167  1  0.33040566  0.91567476  0.79702631  1  1.472945  0  0.227384  0.565675  0  4.135876  0
C  C168  1  0.67360694  0.59057904  0.34464387  1  1.553222  0  0.183729  0.547889  0  4.259076  0
C  C169  1  0.40941331  0.32639005  0.15535557  1  1.553039  0  0.183689  0.547745  0  4.259216  0
C  C170  1  0.32639364  0.40941867  0.65535919  1  1.553209  0  0.183808  0.547966  0  4.259005  0
C  C171  1  0.59058184  0.67360736  0.84464028  1  1.553009  0  0.183796  0.548118  0  4.258893  0
N  N172  1  0.80732042  0.45790714  0.84755518  1  -1.234013  0  -0.332819  -0.254484  0  3.513244  0
N  N173  1  0.54209505  0.19268576  0.65244821  1  -1.234069  0  -0.332789  -0.254336  0  3.513244  0
N  N174  1  0.19267386  0.54209333  0.15244536  1  -1.233882  0  -0.332848  -0.254501  0  3.513199  0
N  N175  1  0.45790459  0.80731577  0.34755110  1  -1.233965  0  -0.332856  -0.254433  0  3.513231  0
N  N176  1  0.71840703  0.87849699  0.47345510  1  -1.237957  0  -0.330542  -0.250402  0  3.513248  0
N  N177  1  0.12150135  0.28159377  0.02654360  1  -1.238498  0  -0.330504  -0.250305  0  3.513211  0
N  N178  1  0.28159979  0.12150207  0.52654399  1  -1.237859  0  -0.330505  -0.250271  0  3.513094  0
N  N179  1  0.87849738  0.71840659  0.97345330  1  -1.238099  0  -0.330515  -0.250353  0  3.513326  0
O  O180  1  0.50779275  0.39802414  0.88314118  1  -1.240041  0  -0.581248  -0.728912  0  1.998239  0
O  O181  1  0.60197711  0.49220769  0.61686309  1  -1.240297  0  -0.58127  -0.728979  0  1.9982  0
O  O182  1  0.49220783  0.60197608  0.11686320  1  -1.240303  0  -0.581258  -0.728975  0  1.998229  0
O  O183  1  0.39802616  0.50779181  0.38314030  1  -1.239965  0  -0.581227  -0.728908  0  1.998313  0
O  O184  1  0.79301324  0.44303677  0.02958731  1  -1.172231  0  -0.327227  -0.554107  0  2.152986  0
O  O185  1  0.55698034  0.20699953  0.47041604  1  -1.17241  0  -0.327258  -0.554081  0  2.152754  0
O  O186  1  0.20700781  0.55698748  0.97041751  1  -1.172458  0  -0.327267  -0.554086  0  2.152799  0
O  O187  1  0.44303984  0.79301181  0.52958267  1  -1.172367  0  -0.327245  -0.554072  0  2.152891  0
O  O188  1  0.67570958  0.54864205  0.05662221  1  -1.157941  0  -0.326176  -0.562796  0  2.249071  0
O  O189  1  0.45136137  0.32429363  0.44337913  1  -1.157795  0  -0.326144  -0.56276  0  2.249029  0
O  O190  1  0.32428203  0.45135160  0.94337537  1  -1.157922  0  -0.326126  -0.562761  0  2.24914  0
O  O191  1  0.54864369  0.67570481  0.55662262  1  -1.157906  0  -0.326075  -0.562708  0  2.249245  0
O  O192  1  0.96815803  0.28372483  0.24294279  1  -1.118867  0  -0.33406  -0.487825  0  2.277587  0
O  O193  1  0.71627797  0.03184660  0.25705539  1  -1.119265  0  -0.33412  -0.487914  0  2.277513  0
O  O194  1  0.03184070  0.71627554  0.75705523  1  -1.119179  0  -0.334081  -0.487882  0  2.277749  0
O  O195  1  0.28372701  0.96815934  0.74294350  1  -1.11923  0  -0.333991  -0.487748  0  2.277891  0
O  O196  1  0.92978585  0.31584965  0.36457643  1  -1.143738  0  -0.288129  -0.488876  0  2.105303  0
O  O197  1  0.68415088  0.07022477  0.13542646  1  -1.143793  0  -0.288041  -0.488809  0  2.105432  0
O  O198  1  0.07021558  0.68414916  0.63542111  1  -1.143618  0  -0.288215  -0.489008  0  2.105002  0
O  O199  1  0.31585501  0.92978403  0.86457554  1  -1.143548  0  -0.288163  -0.488972  0  2.104747  0
O  O200  1  0.60303848  0.63786128  0.31170893  1  -1.187299  0  -0.348958  -0.599325  0  2.241551  0
O  O201  1  0.36213150  0.39695808  0.18829092  1  -1.187336  0  -0.348873  -0.59921  0  2.2415  0
O  O202  1  0.39696476  0.36214072  0.68829352  1  -1.187335  0  -0.348953  -0.599315  0  2.241492  0
O  O203  1  0.63786368  0.60303850  0.81170657  1  -1.187244  0  -0.34891  -0.599339  0  2.241414  0
O  O204  1  0.69433473  0.59364607  0.41656728  1  -1.140971  0  -0.330403  -0.536038  0  2.101028  0
O  O205  1  0.40635536  0.30566763  0.08343267  1  -1.140954  0  -0.330456  -0.536068  0  2.10113  0
O  O206  1  0.30566406  0.40635267  0.58343572  1  -1.14092  0  -0.330473  -0.536083  0  2.100986  0
O  O207  1  0.59363890  0.69432779  0.91656239  1  -1.140884  0  -0.330493  -0.536191  0  2.100905  0
