# generated using pymatgen
data_ZnH12C19(NO2)2
_symmetry_space_group_name_H-M   'P 1'
_cell_length_a   7.42659215
_cell_length_b   14.48981350
_cell_length_c   17.30973803
_cell_angle_alpha   90.00018788
_cell_angle_beta   89.99988889
_cell_angle_gamma   93.81155867
_symmetry_Int_Tables_number   1
_chemical_formula_structural   ZnH12C19(NO2)2
_chemical_formula_sum   'Zn4 H48 C76 N8 O16'
_cell_volume   1858.57964126
_cell_formula_units_Z   4
loop_
 _symmetry_equiv_pos_site_id
 _symmetry_equiv_pos_as_xyz
  1  'x, y, z'
loop_
 _atom_site_type_symbol
 _atom_site_label
 _atom_site_symmetry_multiplicity
 _atom_site_fract_x
 _atom_site_fract_y
 _atom_site_fract_z
 _atom_site_occupancy
 _atom_site_pbe_bader_charge
 _atom_site_pbe_bader_spin_density
 _atom_site_pbe_cm5_charge
 _atom_site_pbe_ddec_charge
 _atom_site_pbe_ddec_spin_density
 _atom_site_pbe_ddec_sum_bond_order
 _atom_site_pbe_magmom
Zn  Zn0  1  0.57302845  0.69740559  0.37205834  1  1.246631  0  0.695632  0.761029  0  2.397981  0
Zn  Zn1  1  0.42697081  0.80259479  0.87206034  1  1.246674  0  0.695606  0.760938  0  2.398118  0
Zn  Zn2  1  0.42696456  0.30259298  0.62793984  1  1.246697  0  0.695582  0.760909  0  2.398082  0
Zn  Zn3  1  0.57303488  0.19740868  0.12793900  1  1.246727  0  0.695569  0.760898  0  2.398051  0
H  H4  1  0.21571479  0.57433696  0.35981781  1  0.142119  0  0.117011  0.098166  0  1.022474  0
H  H5  1  0.14096079  0.40472644  0.34461865  1  0.087076  0  0.109361  0.116372  0  1.012841  0
H  H6  1  0.38642625  0.29530387  0.35958281  1  0.074419  0  0.110275  0.110094  0  0.993315  0
H  H7  1  0.75777864  0.53277731  0.39743624  1  0.144423  0  0.116833  0.099982  0  1.046615  0
H  H8  1  0.96001438  0.17118661  0.30793517  1  0.078206  0  0.107774  0.117275  0  0.98068  0
H  H9  1  0.23189190  0.76271168  0.30225509  1  0.103013  0  0.122472  0.090164  0  0.97823  0
H  H10  1  0.00591392  0.87604358  0.33607792  1  0.161065  0  0.111458  0.136795  0  1.024761  0
H  H11  1  0.32624043  0.94406767  0.54057664  1  0.101326  0  0.114021  0.121503  0  0.994726  0
H  H12  1  0.53482696  0.82634866  0.49830770  1  0.122397  0  0.121116  0.09898  0  1.000794  0
H  H13  1  0.90305987  0.99006615  0.42104952  1  0.072909  0  0.113603  0.118235  0  0.984184  0
H  H14  1  0.81059597  0.40166264  0.50624588  1  0.093877  0  0.100781  0.099372  0  1.04711  0
H  H15  1  0.13963192  0.18692492  0.43051567  1  0.07902  0  0.100971  0.101143  0  1.013007  0
H  H16  1  0.78428785  0.92565717  0.85981869  1  0.142018  0  0.117011  0.098092  0  1.022531  0
H  H17  1  0.85904518  0.09526984  0.84461683  1  0.087113  0  0.109356  0.11639  0  1.012839  0
H  H18  1  0.61357942  0.20469040  0.85958033  1  0.074456  0  0.110295  0.110118  0  0.993504  0
H  H19  1  0.24222305  0.96722180  0.89743595  1  0.14442  0  0.116852  0.099999  0  1.046554  0
H  H20  1  0.03997676  0.32880810  0.80793178  1  0.078156  0  0.107806  0.117348  0  0.980575  0
H  H21  1  0.76811572  0.73728848  0.80225546  1  0.103129  0  0.122469  0.09011  0  0.978206  0
H  H22  1  0.99409523  0.62395948  0.83608126  1  0.161043  0  0.11149  0.136819  0  1.024745  0
H  H23  1  0.67374921  0.55593003  0.04057764  1  0.101366  0  0.113994  0.121506  0  0.994691  0
H  H24  1  0.46516309  0.67364663  0.99830353  1  0.122276  0  0.121125  0.098995  0  1.000829  0
H  H25  1  0.09695036  0.50993792  0.92104984  1  0.072839  0  0.113598  0.118228  0  0.984093  0
H  H26  1  0.18940610  0.09833373  0.00624683  1  0.093858  0  0.100771  0.099353  0  1.047052  0
H  H27  1  0.86036262  0.31306888  0.93050982  1  0.079257  0  0.100933  0.101048  0  1.013081  0
H  H28  1  0.78427807  0.42566023  0.64017805  1  0.142223  0  0.117007  0.098112  0  1.022487  0
H  H29  1  0.85904451  0.59527357  0.65537779  1  0.087122  0  0.109388  0.11646  0  1.012767  0
H  H30  1  0.61357462  0.70469267  0.64041653  1  0.074326  0  0.110265  0.110102  0  0.99341  0
H  H31  1  0.24221437  0.46722126  0.60256541  1  0.144333  0  0.116852  0.100003  0  1.046502  0
H  H32  1  0.03997903  0.82881543  0.69206994  1  0.078087  0  0.107789  0.117364  0  0.980674  0
H  H33  1  0.76809534  0.23728342  0.69774540  1  0.103096  0  0.122436  0.090062  0  0.97823  0
H  H34  1  0.99408037  0.12395431  0.66392372  1  0.161087  0  0.111502  0.136889  0  1.024716  0
H  H35  1  0.67376321  0.05592957  0.45942038  1  0.101196  0  0.114014  0.121565  0  0.994686  0
H  H36  1  0.46517406  0.17364926  0.50168817  1  0.12229  0  0.121107  0.09898  0  1.00079  0
H  H37  1  0.09694408  0.00993386  0.57894981  1  0.073259  0  0.113612  0.11824  0  0.984147  0
H  H38  1  0.18939798  0.59834423  0.49375865  1  0.094047  0  0.100798  0.099452  0  1.047221  0
H  H39  1  0.86035151  0.81307223  0.56949291  1  0.079107  0  0.100957  0.101114  0  1.013093  0
H  H40  1  0.21570897  0.07433935  0.14017775  1  0.142152  0  0.117006  0.098106  0  1.022456  0
H  H41  1  0.14095560  0.90472600  0.15537904  1  0.087093  0  0.109373  0.116412  0  1.012804  0
H  H42  1  0.38642849  0.79530893  0.14041784  1  0.074482  0  0.110264  0.110091  0  0.993447  0
H  H43  1  0.75777852  0.03278097  0.10256685  1  0.144376  0  0.116843  0.099972  0  1.046588  0
H  H44  1  0.96003360  0.67120092  0.19207102  1  0.078352  0  0.107841  0.117347  0  0.98072  0
H  H45  1  0.23189766  0.26271157  0.19774502  1  0.103043  0  0.122505  0.090205  0  0.978209  0
H  H46  1  0.00590753  0.37604191  0.16392096  1  0.161046  0  0.111468  0.136793  0  1.024771  0
H  H47  1  0.32623826  0.44406714  0.95942227  1  0.101246  0  0.114008  0.121534  0  0.99472  0
H  H48  1  0.53483293  0.32635472  0.00169176  1  0.122267  0  0.121129  0.099008  0  1.000792  0
H  H49  1  0.90305882  0.49006072  0.07894834  1  0.072912  0  0.1136  0.11825  0  0.984219  0
H  H50  1  0.81059833  0.90165867  0.99375308  1  0.094027  0  0.100761  0.099361  0  1.047202  0
H  H51  1  0.13964696  0.68693322  0.06949356  1  0.079199  0  0.100954  0.101036  0  1.013161  0
C  C52  1  0.32038086  0.52503789  0.36416323  1  0.407694  0  0.046876  0.079043  0  3.922436  0
C  C53  1  0.27940287  0.43041979  0.35627276  1  0.026728  0  -0.079876  -0.113107  0  3.971098  0
C  C54  1  0.41615775  0.36979187  0.36471816  1  -0.014185  0  -0.058446  -0.065345  0  3.909618  0
C  C55  1  0.59201967  0.40506761  0.38153006  1  0.007575  0  0.004512  0.043571  0  3.982969  0
C  C56  1  0.62220326  0.50098482  0.38786591  1  0.443045  0  0.052949  0.051874  0  3.858406  0
C  C57  1  0.74348771  0.34509691  0.39349081  1  7e-06  0  -0.00512  0.035707  0  3.996496  0
C  C58  1  0.78971528  0.28052850  0.33727783  1  -0.071881  0  -0.006589  -0.045135  0  3.933263  0
C  C59  1  0.92919933  0.22214780  0.35165630  1  -0.017622  0  -0.089944  -0.119248  0  3.994705  0
C  C60  1  0.24696635  0.80449755  0.35450839  1  0.468924  0  0.057388  0.112665  0  3.93951  0
C  C61  1  0.12325951  0.86865368  0.37309056  1  0.003113  0  -0.074634  -0.165578  0  3.879493  0
C  C62  1  0.14477400  0.91928030  0.44215463  1  -0.072987  0  0.013022  0.151594  0  4.015469  0
C  C63  1  0.29854380  0.90553033  0.48738920  1  0.017807  0  -0.0786  -0.173749  0  3.942142  0
C  C64  1  0.41542655  0.84028704  0.46477751  1  0.429573  0  0.048051  0.093801  0  3.94247  0
C  C65  1  0.00584645  0.97995029  0.46489053  1  -0.061511  0  -0.071946  -0.112714  0  3.93743  0
C  C66  1  0.09867689  0.31108560  0.54672154  1  1.560685  0  0.198946  0.564619  0  4.238885  0
C  C67  1  0.98769970  0.29680080  0.47491879  1  0.008183  0  -0.023399  -0.039634  0  4.003236  0
C  C68  1  0.84361684  0.35213555  0.46192624  1  -0.005248  0  -0.082736  -0.142994  0  3.957102  0
C  C69  1  0.02904897  0.23091809  0.41953698  1  -0.081314  0  -0.087163  -0.099786  0  4.014193  0
C  C70  1  0.70692196  0.27839380  0.25812473  1  1.592622  0  0.194672  0.567515  0  4.259437  0
C  C71  1  0.67962081  0.97495971  0.86416780  1  0.408077  0  0.046817  0.079124  0  3.922502  0
C  C72  1  0.72059662  0.06957928  0.85627387  1  0.026317  0  -0.079855  -0.11319  0  3.971088  0
C  C73  1  0.58385130  0.13020866  0.86471955  1  -0.014112  0  -0.058475  -0.065294  0  3.909927  0
C  C74  1  0.40799059  0.09493230  0.88153150  1  0.007541  0  0.004502  0.043385  0  3.983105  0
C  C75  1  0.37780521  0.99901428  0.88786907  1  0.443111  0  0.052964  0.051983  0  3.858462  0
C  C76  1  0.25651885  0.15490648  0.89349023  1  -7.5e-05  0  -0.005117  0.035681  0  3.996646  0
C  C77  1  0.21029024  0.21946361  0.83727689  1  -0.071758  0  -0.006546  -0.045039  0  3.933182  0
C  C78  1  0.07079702  0.27784709  0.85165564  1  -0.017525  0  -0.090056  -0.119472  0  3.994561  0
C  C79  1  0.75303266  0.69550000  0.85450866  1  0.468921  0  0.057397  0.112708  0  3.939574  0
C  C80  1  0.87674498  0.63134535  0.87309574  1  0.003022  0  -0.074539  -0.165476  0  3.879508  0
C  C81  1  0.85523156  0.58071899  0.94215797  1  -0.072966  0  0.012958  0.151497  0  4.015779  0
C  C82  1  0.70145880  0.59446843  0.98739039  1  0.017772  0  -0.0786  -0.173759  0  3.942151  0
C  C83  1  0.58457179  0.65970886  0.96477552  1  0.429035  0  0.048013  0.093722  0  3.942469  0
C  C84  1  0.99415656  0.52005116  0.96489069  1  0.034962  0  -0.071942  -0.112668  0  3.937436  0
C  C85  1  0.90131170  0.18891225  0.04671347  1  1.560177  0  0.198953  0.564658  0  4.238869  0
C  C86  1  0.01229593  0.20319248  0.97491682  1  0.008035  0  -0.023373  -0.039521  0  4.00338  0
C  C87  1  0.15638097  0.14786461  0.96192688  1  -0.005212  0  -0.082693  -0.142943  0  3.957006  0
C  C88  1  0.97094823  0.26907499  0.91953207  1  -0.081455  0  -0.087092  -0.099664  0  4.014391  0
C  C89  1  0.29308688  0.22160079  0.75812546  1  1.592716  0  0.194668  0.567523  0  4.25962  0
C  C90  1  0.67961311  0.47495723  0.63583263  1  0.407937  0  0.046826  0.079139  0  3.922507  0
C  C91  1  0.72058983  0.56957602  0.64372368  1  0.02657  0  -0.079855  -0.113273  0  3.971154  0
C  C92  1  0.58383811  0.63020811  0.63528060  1  -0.014125  0  -0.058459  -0.065366  0  3.909788  0
C  C93  1  0.40797485  0.59493236  0.61847043  1  0.007665  0  0.004515  0.043557  0  3.982863  0
C  C94  1  0.37779253  0.49901446  0.61213457  1  0.443074  0  0.052972  0.051891  0  3.858377  0
C  C95  1  0.25651037  0.65491068  0.60651084  1  -0.000132  0  -0.005115  0.035702  0  3.996428  0
C  C96  1  0.21028898  0.71947427  0.66272439  1  -0.071856  0  -0.006593  -0.045051  0  3.933096  0
C  C97  1  0.07079289  0.77785562  0.64834881  1  -0.017158  0  -0.08995  -0.11945  0  3.994497  0
C  C98  1  0.75302619  0.19549688  0.64548979  1  0.469014  0  0.057406  0.112798  0  3.93942  0
C  C99  1  0.87674120  0.13134147  0.62690647  1  0.002973  0  -0.074603  -0.165661  0  3.879476  0
C  C100  1  0.85523225  0.08071626  0.55784297  1  -0.073403  0  0.013004  0.151635  0  4.0157  0
C  C101  1  0.70146403  0.09446831  0.51260667  1  0.018209  0  -0.078637  -0.173926  0  3.942241  0
C  C102  1  0.58457685  0.15970813  0.53521720  1  0.429554  0  0.047955  0.093729  0  3.942545  0
C  C103  1  0.99415330  0.02004832  0.53510996  1  0.034497  0  -0.071967  -0.11272  0  3.937592  0
C  C104  1  0.90131192  0.68891158  0.45328703  1  1.560347  0  0.19889  0.5645  0  4.238944  0
C  C105  1  0.01229347  0.70319916  0.52508632  1  0.007535  0  -0.023326  -0.039496  0  4.003533  0
C  C106  1  0.15637696  0.64786995  0.53807425  1  -0.004812  0  -0.082757  -0.143092  0  3.957474  0
C  C107  1  0.97093731  0.76908046  0.58046813  1  -0.081763  0  -0.087163  -0.099747  0  4.014334  0
C  C108  1  0.29308182  0.72161657  0.74187807  1  1.592111  0  0.194732  0.56746  0  4.259396  0
C  C109  1  0.32038337  0.02504237  0.13583153  1  0.408048  0  0.04685  0.079233  0  3.922445  0
C  C110  1  0.27940867  0.93042073  0.14372373  1  0.026512  0  -0.079839  -0.113236  0  3.971098  0
C  C111  1  0.41615828  0.86979344  0.13527979  1  -0.014076  0  -0.058473  -0.065337  0  3.90978  0
C  C112  1  0.59202168  0.90506982  0.11846553  1  0.007483  0  0.004485  0.043466  0  3.983055  0
C  C113  1  0.62220009  0.00098573  0.11213257  1  0.443085  0  0.052953  0.051945  0  3.858517  0
C  C114  1  0.74348819  0.84509700  0.10650621  1  5.4e-05  0  -0.005018  0.035791  0  3.996534  0
C  C115  1  0.78971688  0.78054056  0.16272591  1  -0.071822  0  -0.006498  -0.044959  0  3.932724  0
C  C116  1  0.92921525  0.72215502  0.14834427  1  -0.017435  0  -0.090145  -0.119643  0  3.994652  0
C  C117  1  0.24697390  0.30449932  0.14549183  1  0.469075  0  0.057365  0.112586  0  3.939754  0
C  C118  1  0.12325628  0.36865465  0.12690648  1  0.003026  0  -0.074532  -0.165471  0  3.879473  0
C  C119  1  0.14476375  0.41927614  0.05784137  1  -0.073224  0  0.012942  0.151507  0  4.015701  0
C  C120  1  0.29854055  0.40552671  0.01260779  1  0.018185  0  -0.078602  -0.173796  0  3.942255  0
C  C121  1  0.41542669  0.34029043  0.03522093  1  0.428995  0  0.04798  0.093697  0  3.942521  0
C  C122  1  0.00584446  0.47994676  0.03510806  1  -0.061629  0  -0.071908  -0.112695  0  3.937519  0
C  C123  1  0.09868947  0.81108705  0.95328182  1  1.559975  0  0.199088  0.564764  0  4.238621  0
C  C124  1  0.98770232  0.79680473  0.02508251  1  0.008114  0  -0.023414  -0.039675  0  4.003435  0
C  C125  1  0.84362139  0.85213332  0.03806898  1  -0.005502  0  -0.082772  -0.143054  0  3.957386  0
C  C126  1  0.02906080  0.73092227  0.08046784  1  -0.081739  0  -0.087109  -0.099504  0  4.014417  0
C  C127  1  0.70692340  0.77840754  0.24187849  1  1.590151  0  0.194873  0.567831  0  4.259417  0
N  N128  1  0.38903320  0.78917253  0.39988681  1  -1.25434  0  -0.333507  -0.234078  0  3.586022  0
N  N129  1  0.49011588  0.55951976  0.37932519  1  -1.249462  0  -0.330237  -0.223626  0  3.579263  0
N  N130  1  0.61096017  0.71082448  0.89988436  1  -1.253664  0  -0.333538  -0.234055  0  3.586132  0
N  N131  1  0.50988985  0.94047861  0.87932981  1  -1.249516  0  -0.330189  -0.223561  0  3.57945  0
N  N132  1  0.61095966  0.21082466  0.60011079  1  -1.254041  0  -0.333414  -0.233978  0  3.586004  0
N  N133  1  0.50988015  0.44048160  0.62067183  1  -1.249595  0  -0.330232  -0.223566  0  3.579415  0
N  N134  1  0.38903863  0.28917758  0.10011671  1  -1.253681  0  -0.333492  -0.233971  0  3.586209  0
N  N135  1  0.49011140  0.05952139  0.12067068  1  -1.249688  0  -0.330222  -0.223656  0  3.579514  0
O  O136  1  0.61939156  0.20108224  0.23978123  1  -1.161044  0  -0.346684  -0.563656  0  2.280663  0
O  O137  1  0.73348613  0.34697006  0.21496818  1  -1.172114  0  -0.326637  -0.549034  0  2.089927  0
O  O138  1  0.04228065  0.35631033  0.60233599  1  -1.186767  0  -0.325342  -0.557397  0  2.141034  0
O  O139  1  0.25461380  0.27549220  0.54394553  1  -1.172243  0  -0.336817  -0.564334  0  2.368383  0
O  O140  1  0.38062790  0.29891025  0.73978094  1  -1.160997  0  -0.346724  -0.563706  0  2.280779  0
O  O141  1  0.26651243  0.15302709  0.71496239  1  -1.172304  0  -0.326604  -0.54902  0  2.089913  0
O  O142  1  0.95770496  0.14368703  0.10233005  1  -1.186498  0  -0.325352  -0.557448  0  2.140744  0
O  O143  1  0.74537917  0.22450843  0.04394173  1  -1.171991  0  -0.336862  -0.564378  0  2.368445  0
O  O144  1  0.38060295  0.79892948  0.76021868  1  -1.16081  0  -0.346696  -0.563619  0  2.280671  0
O  O145  1  0.26653232  0.65303900  0.78503809  1  -1.171916  0  -0.326701  -0.549017  0  2.089863  0
O  O146  1  0.95770793  0.64368477  0.39767259  1  -1.186546  0  -0.325363  -0.557396  0  2.140837  0
O  O147  1  0.74537090  0.72450427  0.45605842  1  -1.172005  0  -0.336842  -0.564364  0  2.3684  0
O  O148  1  0.61938405  0.70110085  0.26021955  1  -1.160768  0  -0.346814  -0.563917  0  2.280955  0
O  O149  1  0.73348534  0.84697773  0.28503925  1  -1.169899  0  -0.326713  -0.549082  0  2.089865  0
O  O150  1  0.04229987  0.85630883  0.89766350  1  -1.186261  0  -0.325427  -0.557464  0  2.140799  0
O  O151  1  0.25463049  0.77549437  0.95605644  1  -1.172031  0  -0.336888  -0.56443  0  2.368337  0
