# generated using pymatgen
data_ZnH14(C5N2)2
_symmetry_space_group_name_H-M   'P 1'
_cell_length_a   8.32254315
_cell_length_b   8.32462750
_cell_length_c   13.24678462
_cell_angle_alpha   89.99978620
_cell_angle_beta   89.99991376
_cell_angle_gamma   120.01518846
_symmetry_Int_Tables_number   1
_chemical_formula_structural   ZnH14(C5N2)2
_chemical_formula_sum   'Zn3 H42 C30 N12'
_cell_volume   794.68585444
_cell_formula_units_Z   3
loop_
 _symmetry_equiv_pos_site_id
 _symmetry_equiv_pos_as_xyz
  1  'x, y, z'
loop_
 _atom_site_type_symbol
 _atom_site_label
 _atom_site_symmetry_multiplicity
 _atom_site_fract_x
 _atom_site_fract_y
 _atom_site_fract_z
 _atom_site_occupancy
 _atom_site_hle17_bader_spin_density
 _atom_site_hle17_ddec_charge
 _atom_site_hle17_ddec_spin_density
 _atom_site_hle17_ddec_sum_bond_order
 _atom_site_hle17_magmom
 _atom_site_hse06_10hf_bader_spin_density
 _atom_site_hse06_10hf_ddec_charge
 _atom_site_hse06_10hf_ddec_spin_density
 _atom_site_hse06_10hf_ddec_sum_bond_order
 _atom_site_hse06_10hf_magmom
 _atom_site_hse06_bader_spin_density
 _atom_site_hse06_ddec_charge
 _atom_site_hse06_ddec_spin_density
 _atom_site_hse06_ddec_sum_bond_order
 _atom_site_hse06_magmom
 _atom_site_pbe_bader_spin_density
 _atom_site_pbe_cm5_charge
 _atom_site_pbe_ddec_charge
 _atom_site_pbe_ddec_spin_density
 _atom_site_pbe_ddec_sum_bond_order
 _atom_site_pbe_magmom
Zn  Zn0  1  0.50000259  0.00000142  0.17165273  1  0  0.882406  0  2.006881  0  0  0.686186  0  2.479182  0  0  0.724164  0  2.438702  0  0  0.720411  0.660283  0  2.506529  0
Zn  Zn1  1  0.50000280  0.50000293  0.83830147  1  0  0.882935  0  2.004484  0  0  0.68619  0  2.476831  0  0  0.724352  0  2.436184  0  0  0.719914  0.660188  0  2.504253  0
Zn  Zn2  1  0.00000116  0.49999711  0.50492950  1  0  0.881884  0  2.006562  0  0  0.685272  0  2.478735  0  0  0.723311  0  2.438239  0  0  0.7201  0.659354  0  2.506082  0
H  H3  1  0.91959585  0.79084371  0.39433508  1  0  0.084327  0  0.988258  0  0  0.094087  0  1.054977  0  0  0.096049  0  1.054596  0  0  0.1079  0.092651  0  1.05537  0
H  H4  1  0.12909395  0.91923936  0.06080683  1  0  0.084037  0  0.989242  0  0  0.094047  0  1.055606  0  0  0.095977  0  1.0553  0  0  0.108003  0.092608  0  1.055986  0
H  H5  1  0.20919205  0.12873003  0.72750157  1  0  0.083815  0  0.988663  0  0  0.093677  0  1.055278  0  0  0.095566  0  1.055018  0  0  0.10783  0.092284  0  1.0556  0
H  H6  1  0.08040004  0.20914798  0.39433918  1  0  0.084371  0  0.98825  0  0  0.094133  0  1.054958  0  0  0.096096  0  1.054574  0  0  0.107925  0.092699  0  1.055349  0
H  H7  1  0.87091012  0.08076409  0.06080442  1  0  0.084042  0  0.989244  0  0  0.094049  0  1.055616  0  0  0.095978  0  1.055311  0  0  0.108003  0.092611  0  1.055991  0
H  H8  1  0.79080624  0.87127296  0.72748910  1  0  0.083842  0  0.988557  0  0  0.093699  0  1.055196  0  0  0.095587  0  1.054938  0  0  0.107835  0.092311  0  1.055517  0
H  H9  1  0.12337142  0.98219141  0.22645601  1  0  0.086627  0  0.985143  0  0  0.099065  0  1.04562  0  0  0.101076  0  1.045076  0  0  0.109532  0.097621  0  1.046055  0
H  H10  1  0.14151677  0.12279752  0.89287080  1  0  0.086991  0  0.985477  0  0  0.099049  0  1.046266  0  0  0.101107  0  1.045646  0  0  0.10951  0.097596  0  1.046729  0
H  H11  1  0.01763711  0.14099974  0.55972282  1  0  0.086868  0  0.985282  0  0  0.099252  0  1.045689  0  0  0.101349  0  1.04503  0  0  0.109606  0.09776  0  1.046196  0
H  H12  1  0.87662667  0.01780567  0.22645903  1  0  0.086639  0  0.985096  0  0  0.099064  0  1.045597  0  0  0.101063  0  1.045067  0  0  0.109532  0.097621  0  1.04603  0
H  H13  1  0.85848484  0.87720423  0.89286957  1  0  0.086964  0  0.985515  0  0  0.099016  0  1.04631  0  0  0.101075  0  1.045688  0  0  0.109494  0.097559  0  1.046775  0
H  H14  1  0.98235881  0.85899159  0.55971095  1  0  0.086864  0  0.985185  0  0  0.099292  0  1.045542  0  0  0.10139  0  1.04488  0  0  0.10958  0.097801  0  1.046049  0
H  H15  1  0.32930136  0.53057778  0.37906706  1  0  0.076664  0  0.941684  0  0  0.094152  0  1.004285  0  0  0.095446  0  1.003681  0  0  0.094325  0.093201  0  1.004793  0
H  H16  1  0.79898373  0.32981252  0.04615080  1  0  0.076057  0  0.941827  0  0  0.093637  0  1.00455  0  0  0.094984  0  1.003955  0  0  0.094059  0.092638  0  1.005063  0
H  H17  1  0.46947616  0.79867782  0.71233472  1  0  0.076218  0  0.941706  0  0  0.09397  0  1.004031  0  0  0.09525  0  1.00348  0  0  0.094025  0.092999  0  1.004529  0
H  H18  1  0.67069876  0.46941956  0.37906696  1  0  0.076702  0  0.941693  0  0  0.094189  0  1.004301  0  0  0.095482  0  1.003697  0  0  0.09434  0.093238  0  1.004807  0
H  H19  1  0.20102026  0.67019367  0.04614994  1  0  0.076033  0  0.941945  0  0  0.093606  0  1.004608  0  0  0.094954  0  1.00401  0  0  0.094064  0.092608  0  1.005127  0
H  H20  1  0.53052243  0.20132273  0.71233614  1  0  0.076251  0  0.9417  0  0  0.094011  0  1.004014  0  0  0.095291  0  1.003457  0  0  0.094028  0.093017  0  1.004533  0
H  H21  1  0.49114441  0.70056082  0.29643314  1  0  0.078914  0  0.941158  0  0  0.098239  0  0.99932  0  0  0.099834  0  0.998095  0  0  0.096999  0.097061  0  1.000286  0
H  H22  1  0.79093692  0.49138169  0.96331960  1  0  0.078964  0  0.941015  0  0  0.098047  0  0.999587  0  0  0.099703  0  0.99834  0  0  0.096995  0.096826  0  1.000588  0
H  H23  1  0.29949790  0.79052226  0.62969589  1  0  0.079169  0  0.940822  0  0  0.098425  0  0.99908  0  0  0.100095  0  0.997773  0  0  0.097032  0.097174  0  1.000151  0
H  H24  1  0.50885888  0.29943712  0.29643436  1  0  0.078939  0  0.941214  0  0  0.098278  0  0.999362  0  0  0.099875  0  0.998135  0  0  0.097006  0.097098  0  1.000328  0
H  H25  1  0.20906761  0.50862558  0.96332062  1  0  0.07897  0  0.940988  0  0  0.097977  0  0.999617  0  0  0.099611  0  0.998393  0  0  0.096954  0.09675  0  1.000632  0
H  H26  1  0.70049836  0.20947478  0.62969788  1  0  0.079186  0  0.940839  0  0  0.098458  0  0.999076  0  0  0.100125  0  0.997767  0  0  0.097046  0.0972  0  1.000147  0
H  H27  1  0.63968336  0.92262961  0.43738551  1  0  0.097771  0  0.99138  0  0  0.115182  0  1.057984  0  0  0.115728  0  1.060407  0  0  0.081186  0.11474  0  1.056346  0
H  H28  1  0.71722198  0.64020595  0.10395470  1  0  0.0976  0  0.992457  0  0  0.115299  0  1.058739  0  0  0.115812  0  1.061192  0  0  0.081246  0.114886  0  1.057075  0
H  H29  1  0.07732668  0.71678198  0.77061028  1  0  0.097062  0  0.992329  0  0  0.11532  0  1.0581  0  0  0.115874  0  1.060515  0  0  0.081356  0.114877  0  1.056459  0
H  H30  1  0.36031426  0.07736925  0.43738663  1  0  0.097768  0  0.991426  0  0  0.115198  0  1.058001  0  0  0.115744  0  1.060423  0  0  0.08121  0.114757  0  1.05636  0
H  H31  1  0.28277041  0.35979405  0.10395373  1  0  0.097646  0  0.992489  0  0  0.115321  0  1.058793  0  0  0.115835  0  1.061246  0  0  0.081253  0.114904  0  1.057132  0
H  H32  1  0.92267542  0.28322611  0.77060886  1  0  0.097096  0  0.992281  0  0  0.115344  0  1.058062  0  0  0.115897  0  1.06048  0  0  0.081372  0.114899  0  1.056423  0
H  H33  1  0.62162449  0.70740715  0.47120378  1  0  0.092083  0  0.968329  0  0  0.113679  0  1.03027  0  0  0.114719  0  1.031073  0  0  0.081247  0.112876  0  1.02976  0
H  H34  1  0.91438731  0.62231776  0.13797269  1  0  0.091787  0  0.969096  0  0  0.113178  0  1.031357  0  0  0.114176  0  1.032194  0  0  0.081057  0.11242  0  1.030813  0
H  H35  1  0.29255510  0.91397479  0.80446118  1  0  0.091525  0  0.968897  0  0  0.112886  0  1.031416  0  0  0.113924  0  1.032219  0  0  0.080927  0.112104  0  1.03088  0
H  H36  1  0.37837428  0.29259000  0.47120439  1  0  0.092067  0  0.968323  0  0  0.11366  0  1.030268  0  0  0.114705  0  1.031063  0  0  0.081243  0.11286  0  1.029756  0
H  H37  1  0.08561104  0.37768533  0.13797111  1  0  0.091802  0  0.969078  0  0  0.113185  0  1.031347  0  0  0.114181  0  1.032187  0  0  0.081055  0.112423  0  1.030807  0
H  H38  1  0.70744713  0.08602779  0.80446345  1  0  0.091565  0  0.968867  0  0  0.112923  0  1.031382  0  0  0.113962  0  1.032186  0  0  0.080933  0.112139  0  1.03085  0
H  H39  1  0.46508304  0.76977525  0.52250756  1  0  0.090325  0  0.995975  0  0  0.110119  0  1.062454  0  0  0.110808  0  1.063486  0  0  0.082556  0.109573  0  1.061763  0
H  H40  1  0.69542483  0.46603194  0.18933336  1  0  0.09019  0  0.996526  0  0  0.110243  0  1.062585  0  0  0.11093  0  1.063578  0  0  0.082489  0.109685  0  1.061917  0
H  H41  1  0.23012969  0.69509175  0.85574108  1  0  0.089926  0  0.996322  0  0  0.110159  0  1.062369  0  0  0.110863  0  1.06338  0  0  0.082504  0.10961  0  1.061684  0
H  H42  1  0.53491226  0.23021970  0.52250815  1  0  0.090417  0  0.995881  0  0  0.110189  0  1.062395  0  0  0.110858  0  1.063446  0  0  0.082589  0.109642  0  1.061708  0
H  H43  1  0.30456803  0.53396137  0.18933499  1  0  0.090217  0  0.996515  0  0  0.110259  0  1.06258  0  0  0.110946  0  1.063573  0  0  0.082498  0.109712  0  1.0619  0
H  H44  1  0.76987181  0.30491552  0.85574127  1  0  0.089931  0  0.996306  0  0  0.110158  0  1.06236  0  0  0.110861  0  1.063378  0  0  0.082494  0.109613  0  1.061671  0
C  C45  1  0.27668977  0.74916521  0.34566174  1  0  0.35707  0  3.708056  0  0  0.340627  0  3.963137  0  0  0.355217  0  3.979267  0  0  0.200414  0.331057  0  3.951907  0
C  C46  1  0.52775518  0.27694129  0.01245527  1  0  0.358954  0  3.706148  0  0  0.341746  0  3.962293  0  0  0.356398  0  3.978431  0  0  0.200503  0.332126  0  3.951055  0
C  C47  1  0.25087029  0.52747024  0.67889911  1  0  0.357712  0  3.707457  0  0  0.340092  0  3.963936  0  0  0.354722  0  3.980087  0  0  0.200107  0.330488  0  3.952677  0
C  C48  1  0.72330989  0.25083314  0.34566437  1  0  0.357007  0  3.708013  0  0  0.340593  0  3.963057  0  0  0.355182  0  3.979188  0  0  0.200349  0.331015  0  3.951839  0
C  C49  1  0.47224734  0.72306212  0.01245629  1  0  0.358876  0  3.706146  0  0  0.341713  0  3.962197  0  0  0.356363  0  3.978331  0  0  0.200497  0.3321  0  3.950956  0
C  C50  1  0.74912733  0.47252942  0.67889666  1  0  0.357701  0  3.707577  0  0  0.340136  0  3.963986  0  0  0.354762  0  3.980134  0  0  0.200136  0.330538  0  3.952711  0
C  C51  1  0.04380458  0.79965539  0.36258741  1  0  -0.033708  0  3.808756  0  0  -0.064186  0  4.069653  0  0  -0.062964  0  4.090617  0  0  -0.023521  -0.064966  0  4.055494  0
C  C52  1  0.24443704  0.04356230  0.02911406  1  0  -0.03275  0  3.809109  0  0  -0.063374  0  4.069669  0  0  -0.062161  0  4.090635  0  0  -0.023565  -0.064133  0  4.055514  0
C  C53  1  0.20035294  0.24410339  0.69577903  1  0  -0.032692  0  3.807832  0  0  -0.063267  0  4.068852  0  0  -0.062026  0  4.089798  0  0  -0.023717  -0.064058  0  4.054692  0
C  C54  1  0.95619205  0.20033850  0.36258918  1  0  -0.033829  0  3.808844  0  0  -0.064311  0  4.069745  0  0  -0.063091  0  4.090707  0  0  -0.023562  -0.065091  0  4.055582  0
C  C55  1  0.75556795  0.95644076  0.02911275  1  0  -0.032806  0  3.809079  0  0  -0.063426  0  4.069645  0  0  -0.062213  0  4.09061  0  0  -0.023584  -0.064186  0  4.055485  0
C  C56  1  0.79965146  0.75589884  0.69577134  1  0  -0.032822  0  3.808028  0  0  -0.063411  0  4.069077  0  0  -0.06217  0  4.090024  0  0  -0.02384  -0.06421  0  4.054932  0
C  C57  1  0.14284249  0.89267237  0.27824528  1  0  -0.030121  0  3.812692  0  0  -0.05966  0  4.069341  0  0  -0.058338  0  4.090322  0  0  -0.022921  -0.060493  0  4.055125  0
C  C58  1  0.25049618  0.14254971  0.94475426  1  0  -0.031419  0  3.81381  0  0  -0.060674  0  4.070473  0  0  -0.059367  0  4.091445  0  0  -0.023448  -0.06152  0  4.056258  0
C  C59  1  0.10725112  0.25005198  0.61148012  1  0  -0.030944  0  3.812046  0  0  -0.060659  0  4.068826  0  0  -0.059394  0  4.089756  0  0  -0.023  -0.061467  0  4.054663  0
C  C60  1  0.85716143  0.10732763  0.27824962  1  0  -0.030032  0  3.812623  0  0  -0.059565  0  4.069272  0  0  -0.058234  0  4.090263  0  0  -0.022894  -0.060395  0  4.055052  0
C  C61  1  0.74950766  0.85745136  0.94475318  1  0  -0.031405  0  3.813824  0  0  -0.060655  0  4.070479  0  0  -0.059346  0  4.09145  0  0  -0.023441  -0.061498  0  4.056264  0
C  C62  1  0.89274614  0.74994194  0.61147462  1  0  -0.031005  0  3.81216  0  0  -0.060751  0  4.068933  0  0  -0.059487  0  4.089863  0  0  -0.02301  -0.061559  0  4.054772  0
C  C63  1  0.40960689  0.68118183  0.36529520  1  0  -0.157321  0  3.741288  0  0  -0.197044  0  3.997404  0  0  -0.198398  0  4.007261  0  0  -0.158206  -0.196096  0  3.990526  0
C  C64  1  0.72866736  0.41005322  0.03221453  1  0  -0.15673  0  3.740124  0  0  -0.19654  0  3.996906  0  0  -0.198073  0  4.006901  0  0  -0.157899  -0.195478  0  3.989967  0
C  C65  1  0.31881688  0.72837837  0.69857456  1  0  -0.157329  0  3.74129  0  0  -0.197071  0  3.997758  0  0  -0.19851  0  4.007715  0  0  -0.157599  -0.196028  0  3.990785  0
C  C66  1  0.59039004  0.31881651  0.36529704  1  0  -0.157436  0  3.74134  0  0  -0.197188  0  3.997461  0  0  -0.198539  0  4.007308  0  0  -0.158227  -0.19623  0  3.990577  0
C  C67  1  0.27133054  0.58994967  0.03221681  1  0  -0.156699  0  3.740302  0  0  -0.196365  0  3.996838  0  0  -0.19788  0  4.00683  0  0  -0.157844  -0.195306  0  3.989903  0
C  C68  1  0.68117801  0.27162129  0.69857416  1  0  -0.157357  0  3.741378  0  0  -0.197129  0  3.99782  0  0  -0.198557  0  4.007766  0  0  -0.157627  -0.196066  0  3.990843  0
C  C69  1  0.54171257  0.77642831  0.45405920  1  0  -0.277117  0  3.690933  0  0  -0.349906  0  3.930093  0  0  -0.352526  0  3.941543  0  0  -0.252458  -0.347794  0  3.922154  0
C  C70  1  0.76542957  0.54235971  0.12083737  1  0  -0.276702  0  3.692788  0  0  -0.349622  0  3.931656  0  0  -0.352116  0  3.94324  0  0  -0.252311  -0.347596  0  3.923619  0
C  C71  1  0.22351311  0.76506878  0.78731987  1  0  -0.275387  0  3.69242  0  0  -0.349059  0  3.931161  0  0  -0.351664  0  3.942637  0  0  -0.252491  -0.346974  0  3.923156  0
C  C72  1  0.45828442  0.22356850  0.45406065  1  0  -0.277139  0  3.690868  0  0  -0.349918  0  3.930026  0  0  -0.352527  0  3.941485  0  0  -0.252497  -0.347811  0  3.922083  0
C  C73  1  0.23456598  0.45763925  0.12083773  1  0  -0.27679  0  3.692892  0  0  -0.349711  0  3.931753  0  0  -0.352205  0  3.943329  0  0  -0.25233  -0.347683  0  3.923705  0
C  C74  1  0.77648717  0.23493604  0.78732022  1  0  -0.275485  0  3.692338  0  0  -0.349152  0  3.931108  0  0  -0.351763  0  3.942581  0  0  -0.252506  -0.347067  0  3.923094  0
N  N75  1  0.28883323  0.85953563  0.26739507  1  0  -0.452182  0  3.281063  0  0  -0.36704  0  3.568416  0  0  -0.387714  0  3.581148  0  0  -0.379278  -0.353084  0  3.559521  0
N  N76  1  0.42953988  0.28885987  0.93408198  1  0  -0.452642  0  3.280563  0  0  -0.366947  0  3.56775  0  0  -0.387636  0  3.580422  0  0  -0.378761  -0.352983  0  3.558909  0
N  N77  1  0.14038468  0.42916614  0.60065463  1  0  -0.452017  0  3.280905  0  0  -0.365892  0  3.567852  0  0  -0.38662  0  3.580686  0  0  -0.378726  -0.351905  0  3.558907  0
N  N78  1  0.71116749  0.14046536  0.26739721  1  0  -0.452222  0  3.281028  0  0  -0.367054  0  3.568327  0  0  -0.387728  0  3.581053  0  0  -0.379256  -0.3531  0  3.559441  0
N  N79  1  0.57046542  0.71113991  0.93408292  1  0  -0.452575  0  3.2806  0  0  -0.366917  0  3.56779  0  0  -0.387607  0  3.580462  0  0  -0.378711  -0.35296  0  3.558956  0
N  N80  1  0.85961437  0.57083098  0.60065033  1  0  -0.451916  0  3.28083  0  0  -0.365841  0  3.56782  0  0  -0.386569  0  3.580655  0  0  -0.378667  -0.351853  0  3.558873  0
N  N81  1  0.12894412  0.70950994  0.40518725  1  0  -0.45444  0  3.265342  0  0  -0.370372  0  3.551409  0  0  -0.391006  0  3.563958  0  0  -0.378025  -0.356431  0  3.542617  0
N  N82  1  0.41964778  0.12904238  0.07188275  1  0  -0.455473  0  3.265615  0  0  -0.371025  0  3.551881  0  0  -0.391669  0  3.564423  0  0  -0.377845  -0.357072  0  3.543089  0
N  N83  1  0.29055525  0.41939808  0.73839591  1  0  -0.455309  0  3.264495  0  0  -0.370669  0  3.550656  0  0  -0.391341  0  3.563235  0  0  -0.377838  -0.3567  0  3.541848  0
N  N84  1  0.87105290  0.29048285  0.40518964  1  0  -0.454345  0  3.265217  0  0  -0.370295  0  3.551275  0  0  -0.390927  0  3.563821  0  0  -0.378021  -0.356353  0  3.542485  0
N  N85  1  0.58035931  0.87096268  0.07188331  1  0  -0.455422  0  3.265652  0  0  -0.371018  0  3.551931  0  0  -0.391662  0  3.564474  0  0  -0.377883  -0.357068  0  3.543139  0
N  N86  1  0.70944796  0.58060703  0.73839326  1  0  -0.455208  0  3.264646  0  0  -0.370559  0  3.550745  0  0  -0.391232  0  3.563326  0  0  -0.377759  -0.356589  0  3.541934  0
