# generated using pymatgen
data_NiH14(C3N2)6
_symmetry_space_group_name_H-M   'P 1'
_cell_length_a   7.84353521
_cell_length_b   9.14581040
_cell_length_c   12.97730402
_cell_angle_alpha   102.54000848
_cell_angle_beta   90.00010093
_cell_angle_gamma   90.00016079
_symmetry_Int_Tables_number   1
_chemical_formula_structural   NiH14(C3N2)6
_chemical_formula_sum   'Ni2 H28 C36 N24'
_cell_volume   908.72545658
_cell_formula_units_Z   2
loop_
 _symmetry_equiv_pos_site_id
 _symmetry_equiv_pos_as_xyz
  1  'x, y, z'
loop_
 _atom_site_type_symbol
 _atom_site_label
 _atom_site_symmetry_multiplicity
 _atom_site_fract_x
 _atom_site_fract_y
 _atom_site_fract_z
 _atom_site_occupancy
 _atom_site_hle17_ddec_charge
 _atom_site_hle17_ddec_spin_density
 _atom_site_hle17_ddec_sum_bond_order
 _atom_site_hle17_magmom
 _atom_site_hse06_10hf_ddec_charge
 _atom_site_hse06_10hf_ddec_spin_density
 _atom_site_hse06_10hf_ddec_sum_bond_order
 _atom_site_hse06_10hf_magmom
 _atom_site_hse06_ddec_charge
 _atom_site_hse06_ddec_spin_density
 _atom_site_hse06_ddec_sum_bond_order
 _atom_site_hse06_magmom
 _atom_site_pbe_cm5_charge
 _atom_site_pbe_ddec_charge
 _atom_site_pbe_ddec_spin_density
 _atom_site_pbe_ddec_sum_bond_order
 _atom_site_pbe_magmom
Ni  Ni0  1  0.99999806  0.00000254  0.00000169  1  0.91293  -1.82613  2.21134  -1.519  0.918452  -1.853471  2.617277  -1.614  0.993588  -1.917972  2.546998  -1.699  0.734275  0.86342  -1.791523  2.669348  -1.537
Ni  Ni1  1  0.50000186  0.50000248  0.50000393  1  0.913003  1.826132  2.211296  1.519  0.918553  1.853469  2.617207  1.614  0.993681  1.917973  2.546946  1.699  0.734315  0.863523  1.791521  2.669277  1.537
H  H2  1  0.30698048  0.84246378  0.11282644  1  0.104722  -0.00011  0.976699  0.0  0.113606  -4.1e-05  1.039555  0.0  0.116215  -8e-06  1.03859  0.0  0.097495  0.112091  -6.6e-05  1.039851  0.0
H  H3  1  0.80697961  0.65753127  0.38717203  1  0.104728  0.000105  0.976681  0.0  0.11362  4.1e-05  1.039531  0.0  0.116231  8e-06  1.038556  0.0  0.097509  0.112107  6.6e-05  1.039829  0.0
H  H4  1  0.69301942  0.15753113  0.88717061  1  0.104708  -0.000108  0.976752  0.0  0.113598  -4.1e-05  1.0396  0.0  0.116216  -8e-06  1.038609  0.0  0.097491  0.112085  -6.6e-05  1.039898  0.0
H  H5  1  0.19301774  0.34246587  0.61282923  1  0.104703  0.000106  0.976699  0.0  0.113588  4e-05  1.039564  0.0  0.116204  8e-06  1.038577  0.0  0.097491  0.112075  6.6e-05  1.039862  0.0
H  H6  1  0.99717627  0.39313024  0.18460377  1  0.095294  -0.000168  0.977226  0.0  0.104613  -9e-05  1.041044  0.0  0.106446  -4.1e-05  1.041005  0.0  0.095738  0.103753  -0.000169  1.040479  0.0
H  H7  1  0.49717186  0.10686919  0.31539713  1  0.095314  0.000166  0.977187  0.0  0.10464  9e-05  1.040993  0.0  0.106473  4.2e-05  1.040953  0.0  0.09574  0.103782  0.000169  1.040428  0.0
H  H8  1  0.00282618  0.60686805  0.81539073  1  0.095363  -0.00017  0.977055  0.0  0.104646  -9e-05  1.040913  0.0  0.106477  -4.1e-05  1.040878  0.0  0.09573  0.103787  -0.000169  1.040348  0.0
H  H9  1  0.50282804  0.89312461  0.68459821  1  0.095337  0.000174  0.977145  0.0  0.104649  9e-05  1.04095  0.0  0.106479  4.1e-05  1.040915  0.0  0.095743  0.103788  0.000169  1.040385  0.0
H  H10  1  0.45701977  0.65560848  0.19185892  1  0.085471  2e-06  0.968992  0.0  0.096144  -1e-06  1.03207  0.0  0.098719  -1e-06  1.031588  0.0  0.090875  0.094359  -5e-06  1.032333  0.0
H  H11  1  0.95701546  0.84438924  0.30814012  1  0.085455  -8e-06  0.969006  0.0  0.096112  1e-06  1.032108  0.0  0.098686  1e-06  1.031628  0.0  0.090871  0.09433  5e-06  1.032373  0.0
H  H12  1  0.54298140  0.34438644  0.80813505  1  0.085501  5e-06  0.968917  0.0  0.096129  -1e-06  1.032051  0.0  0.098704  -1e-06  1.03157  0.0  0.090856  0.094345  -5e-06  1.032315  0.0
H  H13  1  0.04298316  0.15560455  0.69185908  1  0.085449  -3e-06  0.96901  0.0  0.096159  1e-06  1.032043  0.0  0.098731  1e-06  1.031563  0.0  0.090897  0.094376  5e-06  1.032309  0.0
H  H14  1  0.30577006  0.43523627  0.22892312  1  0.075147  -0.000112  0.991507  0.0  0.084419  -9.1e-05  1.058657  0.0  0.085801  -7.6e-05  1.059262  0.0  0.088414  0.083245  -0.000103  1.058732  0.0
H  H15  1  0.80576727  0.06476261  0.27107672  1  0.075172  0.000111  0.99147  0.0  0.084446  9.1e-05  1.058613  0.0  0.085829  7.6e-05  1.059218  0.0  0.088437  0.083272  0.000103  1.058692  0.0
H  H16  1  0.69423111  0.56475753  0.77107068  1  0.075119  -0.00011  0.991473  0.0  0.084371  -9.1e-05  1.058646  0.0  0.085752  -7.6e-05  1.059256  0.0  0.088418  0.083196  -0.000103  1.058721  0.0
H  H17  1  0.19423263  0.93523007  0.72891922  1  0.07518  0.000116  0.991444  0.0  0.084423  9.1e-05  1.058623  0.0  0.085806  7.6e-05  1.059233  0.0  0.08842  0.08325  0.000103  1.0587  0.0
H  H18  1  0.66083883  0.87279105  0.98782362  1  0.33909  0.000151  0.892063  0.0  0.324785  4.4e-05  0.951351  0.0  0.330651  6e-05  0.946504  0.0  0.309036  0.320739  2.8e-05  0.954649  0.0
H  H19  1  0.16083487  0.62720429  0.51216899  1  0.339138  -0.000149  0.892018  0.0  0.324823  -4.4e-05  0.951322  0.0  0.33069  -6.1e-05  0.946474  0.0  0.309043  0.32078  -2.8e-05  0.95462  0.0
H  H20  1  0.33916107  0.12720947  0.01217277  1  0.339138  0.000151  0.892035  0.0  0.324829  4.4e-05  0.951318  0.0  0.330696  6e-05  0.946469  0.0  0.309048  0.320781  2.8e-05  0.95462  0.0
H  H21  1  0.83915993  0.37279288  0.48782533  1  0.339148  -0.000149  0.892016  0.0  0.324848  -4.4e-05  0.951281  0.0  0.330715  -6e-05  0.946433  0.0  0.309052  0.320804  -2.8e-05  0.954577  0.0
H  H22  1  0.57230829  0.69864878  0.97714422  1  0.321366  0.000167  0.903649  0.0  0.304831  9e-05  0.971376  0.0  0.310781  7.6e-05  0.967244  0.0  0.304155  0.300537  0.000115  0.974453  0.0
H  H23  1  0.07230367  0.80134742  0.52285074  1  0.32144  -0.000165  0.903598  0.0  0.30491  -9e-05  0.971316  0.0  0.310861  -7.6e-05  0.967181  0.0  0.304173  0.300617  -0.000115  0.974395  0.0
H  H24  1  0.42769415  0.30134951  0.02285105  1  0.321419  0.000166  0.903634  0.0  0.304882  9e-05  0.971365  0.0  0.310835  7.6e-05  0.967226  0.0  0.304153  0.30059  0.000115  0.974443  0.0
H  H25  1  0.92769368  0.19865085  0.47714761  1  0.321441  -0.000164  0.903583  0.0  0.30491  -9e-05  0.971304  0.0  0.310861  -7.6e-05  0.96717  0.0  0.30417  0.300618  -0.000115  0.974384  0.0
H  H26  1  0.71998887  0.53310252  0.09815195  1  0.307683  -0.000273  0.89371  -0.001  0.288619  -0.000238  0.957314  0.0  0.295549  -0.000181  0.952548  0.0  0.31946  0.284141  -0.000403  0.960238  -0.001
H  H27  1  0.21998972  0.96689788  0.40184957  1  0.307709  0.000273  0.893677  0.001  0.288644  0.000238  0.957286  0.0  0.295572  0.000181  0.952521  0.0  0.319462  0.284168  0.000402  0.96021  0.001
H  H28  1  0.28000721  0.46689911  0.90184692  1  0.307704  -0.000273  0.893732  -0.001  0.288635  -0.000238  0.95734  0.0  0.295562  -0.000181  0.952575  0.0  0.319455  0.284159  -0.000403  0.960264  -0.001
H  H29  1  0.78000763  0.03310151  0.59814972  1  0.307694  0.000272  0.893709  0.001  0.288628  0.000238  0.957315  0.0  0.295558  0.000181  0.952549  0.0  0.319472  0.284151  0.000402  0.960241  0.001
C  C30  1  0.98159043  0.59559062  0.12377103  1  0.162751  -0.002666  3.81283  -0.004  0.153807  -0.001609  4.060227  -0.002  0.158206  -0.001133  4.08132  -0.002  0.089431  0.151027  -0.002085  4.046085  -0.003
C  C31  1  0.48158718  0.90441054  0.37622857  1  0.162752  0.002678  3.813071  0.004  0.153858  0.001607  4.060411  0.002  0.158256  0.001134  4.081508  0.002  0.089409  0.151076  0.002085  4.046266  0.003
C  C32  1  0.01841329  0.40440653  0.87622868  1  0.162877  -0.002705  3.812917  -0.004  0.153993  -0.001608  4.060242  -0.002  0.158391  -0.001135  4.081333  -0.002  0.089481  0.151211  -0.002085  4.0461  -0.003
C  C33  1  0.51841527  0.09558662  0.62376730  1  0.162668  0.002704  3.812979  0.004  0.153774  0.001609  4.060337  0.002  0.158169  0.001135  4.081438  0.002  0.08937  0.150991  0.002085  4.046188  0.003
C  C34  1  0.23907091  0.74510225  0.12682307  1  -0.157672  2.4e-05  3.767445  0.0  -0.178495  -0.000117  4.021368  0.0  -0.181023  -9.6e-05  4.040785  0.0  -0.109649  -0.176901  -0.000143  4.008104  0.0
C  C35  1  0.73907159  0.75490046  0.37317574  1  -0.157623  -1.6e-05  3.76758  0.0  -0.178433  0.000116  4.021491  0.0  -0.180959  9.6e-05  4.040912  0.0  -0.109593  -0.17684  0.000143  4.008225  0.0
C  C36  1  0.76092644  0.25489716  0.87317237  1  -0.157648  -1.4e-05  3.767613  0.0  -0.178444  -0.000117  4.021512  0.0  -0.180971  -9.7e-05  4.040938  0.0  -0.10957  -0.176852  -0.000143  4.008248  0.0
C  C37  1  0.26093086  0.24509780  0.62682492  1  -0.157687  3.9e-05  3.767434  0.0  -0.17848  0.000119  4.021372  0.0  -0.181009  9.8e-05  4.040798  0.0  -0.10962  -0.176887  0.000143  4.008109  0.0
C  C38  1  0.80094242  0.73337649  0.05209239  1  0.63347  0.002843  3.801495  0.003  0.584625  0.000428  4.088858  0.001  0.612216  0.000977  4.095517  0.002  0.342687  0.566147  -2.7e-05  4.083396  0.0
C  C39  1  0.30094148  0.76662190  0.44790968  1  0.63346  -0.002853  3.801505  -0.003  0.584642  -0.000427  4.088845  -0.001  0.612232  -0.000978  4.0955  -0.002  0.34269  0.566162  2.7e-05  4.083392  0.0
C  C40  1  0.19905748  0.26662289  0.94790922  1  0.633578  0.002863  3.801488  0.004  0.58478  0.000427  4.08878  0.001  0.61237  0.000979  4.095429  0.002  0.34273  0.566299  -2.7e-05  4.083323  0.0
C  C41  1  0.69905460  0.23337748  0.55209115  1  0.633472  -0.002862  3.801447  -0.003  0.584652  -0.000427  4.08878  -0.001  0.612243  -0.000979  4.095437  -0.002  0.342702  0.566158  2.7e-05  4.083345  0.0
C  C42  1  0.06604937  0.72310848  0.10248074  1  0.146487  -0.000975  3.824294  -0.001  0.149749  -0.000865  4.07148  -0.001  0.155204  -0.000356  4.094799  0.0  0.081223  0.14583  -0.001282  4.05566  -0.001
C  C43  1  0.56604892  0.77689148  0.39752054  1  0.146399  0.000946  3.824262  0.001  0.149611  0.000866  4.071518  0.001  0.155065  0.000355  4.094842  0.0  0.081163  0.145692  0.001282  4.05569  0.001
C  C44  1  0.93394671  0.27688868  0.89751666  1  0.146437  -0.000925  3.824371  -0.001  0.149632  -0.000867  4.071643  -0.001  0.155086  -0.000354  4.094967  0.0  0.081126  0.145712  -0.001282  4.055819  -0.001
C  C45  1  0.43395353  0.22310677  0.60248165  1  0.1466  0.000912  3.824156  0.001  0.149783  0.000866  4.071445  0.001  0.155236  0.000353  4.09477  0.0  0.081276  0.145862  0.001282  4.055617  0.001
C  C46  1  0.06380264  0.49032411  0.16902021  1  -0.156315  -0.000279  3.764318  0.0  -0.174364  -0.000192  4.018466  0.0  -0.177016  -0.000125  4.038729  0.0  -0.107541  -0.172627  -0.000282  4.004222  0.0
C  C47  1  0.56380367  0.00967521  0.33097867  1  -0.15634  0.00029  3.764488  0.0  -0.174404  0.000194  4.018612  0.0  -0.177054  0.000125  4.038878  0.0  -0.107506  -0.172666  0.000282  4.004365  0.0
C  C48  1  0.93619725  0.50967081  0.83097531  1  -0.156652  -0.000231  3.764214  0.0  -0.174685  -0.000195  4.018361  0.0  -0.177336  -0.000123  4.038627  0.0  -0.10765  -0.172947  -0.000282  4.004118  0.0
C  C49  1  0.43619623  0.99032418  0.66901908  1  -0.156458  0.000225  3.764159  0.0  -0.174497  0.000197  4.018299  0.0  -0.177147  0.000122  4.038571  0.0  -0.107601  -0.172757  0.000282  4.004052  0.0
C  C50  1  0.32286082  0.63828665  0.17078482  1  -0.098626  0.000237  3.814903  0.0  -0.117705  0.000116  4.080597  0.0  -0.119019  9.7e-05  4.101079  0.0  -0.120231  -0.116874  0.000134  4.067079  0.0
C  C51  1  0.82285535  0.86171294  0.32921360  1  -0.098556  -0.000201  3.81507  0.0  -0.117626  -0.000116  4.080773  0.0  -0.118941  -9.8e-05  4.101264  0.0  -0.120212  -0.116799  -0.000134  4.067258  0.0
C  C52  1  0.67714163  0.36171163  0.82921276  1  -0.098647  0.00025  3.814905  0.0  -0.117698  0.000117  4.080615  0.0  -0.119013  9.8e-05  4.101108  0.0  -0.120226  -0.116868  0.000134  4.067092  0.0
C  C53  1  0.17714072  0.13828309  0.67078594  1  -0.09858  -0.000262  3.815058  0.0  -0.117684  -0.000117  4.080719  0.0  -0.118998  -9.9e-05  4.101213  0.0  -0.120273  -0.116857  -0.000134  4.067206  0.0
C  C54  1  0.71617247  0.20740707  0.11506577  1  0.496895  -0.003953  3.928865  -0.006  0.468263  -0.006531  4.217205  -0.01  0.495417  -0.005025  4.226351  -0.008  0.313947  0.448821  -0.007985  4.211764  -0.012
C  C55  1  0.21616888  0.29259603  0.38493926  1  0.496924  0.003962  3.929075  0.006  0.468302  0.006535  4.217402  0.01  0.495462  0.005026  4.226551  0.008  0.313942  0.448859  0.007989  4.211967  0.012
C  C56  1  0.28383635  0.79258783  0.88493745  1  0.496724  -0.003948  3.929113  -0.006  0.468074  -0.006535  4.217466  -0.01  0.495233  -0.005028  4.226618  -0.008  0.313894  0.448631  -0.00799  4.212026  -0.012
C  C57  1  0.78382720  0.70741119  0.61506587  1  0.49694  0.003954  3.928808  0.006  0.468337  0.006533  4.217144  0.01  0.495493  0.005023  4.226289  0.008  0.313966  0.448892  0.007987  4.211707  0.012
C  C58  1  0.23693893  0.51369681  0.19216137  1  -0.083218  0.000194  3.818424  0.0  -0.10243  5.3e-05  4.082528  0.0  -0.104048  9e-06  4.10518  0.0  -0.115597  -0.101541  0.000112  4.067636  0.0
C  C59  1  0.73693891  0.98630141  0.30783675  1  -0.083253  -0.000218  3.818434  0.0  -0.102466  -5.3e-05  4.082533  0.0  -0.104082  -9e-06  4.105177  0.0  -0.115642  -0.101579  -0.000111  4.06764  0.0
C  C60  1  0.76305714  0.48629701  0.80783012  1  -0.082946  0.000155  3.818223  0.0  -0.102142  5.6e-05  4.082304  0.0  -0.103751  7e-06  4.104933  0.0  -0.115498  -0.101255  0.000112  4.067407  0.0
C  C61  1  0.26305461  0.01369574  0.69216066  1  -0.08319  -0.00017  3.818237  0.0  -0.102395  -5.7e-05  4.08238  0.0  -0.103999  -6e-06  4.104988  0.0  -0.115557  -0.101507  -0.000111  4.067486  0.0
C  C62  1  0.63224014  0.36897132  0.26660180  1  0.493372  -0.003237  3.925666  0.0  0.468014  0.000713  4.21124  0.005  0.495108  -0.000301  4.220267  0.003  0.313499  0.448724  0.001456  4.20444  0.006
C  C63  1  0.13223430  0.13103826  0.23340260  1  0.493347  0.0033  3.925453  0.0  0.468  -0.000712  4.211009  -0.005  0.495093  0.000302  4.220039  -0.003  0.313434  0.44871  -0.001454  4.204207  -0.006
C  C64  1  0.36777123  0.63103028  0.73340400  1  0.493231  -0.003282  3.925811  0.0  0.467853  0.000712  4.211376  0.005  0.494944  -0.000304  4.220406  0.003  0.313406  0.448564  0.001453  4.204575  0.006
C  C65  1  0.86775795  0.86897792  0.76660238  1  0.493407  0.003281  3.925598  0.0  0.468078  -0.00071  4.211146  -0.005  0.495172  0.000298  4.22018  -0.003  0.313536  0.448788  -0.001454  4.204346  -0.006
N  N66  1  0.81470010  0.60630831  0.09116593  1  -0.442828  -0.001609  3.34726  -0.002  -0.384089  -0.001299  3.581902  -0.002  -0.403238  -0.000966  3.591991  -0.001  -0.390444  -0.371395  -0.001597  3.574709  -0.002
N  N67  1  0.31470073  0.89369013  0.40883307  1  -0.442883  0.001611  3.347364  0.002  -0.384165  0.001299  3.581985  0.002  -0.403322  0.000966  3.592095  0.001  -0.390469  -0.371469  0.001597  3.574797  0.002
N  N68  1  0.18529980  0.39368884  0.90883225  1  -0.442931  -0.001615  3.347411  -0.002  -0.384216  -0.001298  3.582024  -0.002  -0.403386  -0.000966  3.592167  -0.001  -0.39049  -0.371517  -0.001597  3.574832  -0.002
N  N69  1  0.68529917  0.10630703  0.59116510  1  -0.442783  0.001618  3.347359  0.002  -0.384046  0.001298  3.581956  0.002  -0.403196  0.000966  3.592051  0.001  -0.39044  -0.371345  0.001597  3.574768  0.002
N  N70  1  0.94975172  0.80641055  0.05720485  1  -0.519774  -0.060144  3.138994  -0.09  -0.491663  -0.040466  3.435067  -0.061  -0.526856  -0.032247  3.452004  -0.05  -0.352847  -0.466549  -0.047023  3.422479  -0.069
N  N71  1  0.44975052  0.69358827  0.44279667  1  -0.519749  0.060163  3.138982  0.09  -0.491652  0.040466  3.435074  0.061  -0.526845  0.032248  3.452015  0.05  -0.352854  -0.466537  0.047024  3.422485  0.069
N  N72  1  0.05024690  0.19359108  0.94279633  1  -0.519785  -0.060173  3.139011  -0.09  -0.491691  -0.040466  3.435103  -0.061  -0.526884  -0.03225  3.452041  -0.05  -0.352802  -0.466576  -0.047026  3.422514  -0.069
N  N73  1  0.55024683  0.30641223  0.55720511  1  -0.519834  0.060172  3.139032  0.09  -0.491727  0.040463  3.435135  0.061  -0.526919  0.032249  3.452073  0.05  -0.35288  -0.466606  0.047023  3.422549  0.069
N  N74  1  0.65127779  0.77901097  0.01748266  1  -0.697208  0.001355  3.068435  0.001  -0.665736  0.000552  3.302576  0.0  -0.684566  0.000577  3.298637  0.0  -0.581895  -0.652263  0.000476  3.30478  0.0
N  N75  1  0.15127934  0.72098701  0.48251456  1  -0.697314  -0.001366  3.068459  -0.001  -0.665849  -0.000551  3.302571  0.0  -0.684681  -0.000577  3.298635  0.0  -0.581904  -0.652378  -0.000476  3.304782  0.0
N  N76  1  0.34871828  0.22098842  0.98251587  1  -0.697342  0.001362  3.068528  0.001  -0.665881  0.000552  3.302632  0.0  -0.684712  0.000578  3.298691  0.0  -0.581918  -0.652407  0.000476  3.304841  0.0
N  N77  1  0.84872055  0.27901238  0.51748550  1  -0.697322  -0.001373  3.068382  -0.001  -0.665867  -0.000551  3.302499  0.0  -0.684699  -0.000577  3.298558  0.0  -0.581912  -0.652388  -0.000476  3.304715  0.0
N  N78  1  0.77396121  0.09756841  0.06210658  1  -0.549221  -0.0351  2.925345  -0.05  -0.534933  -0.026539  3.219932  -0.036  -0.560995  -0.021386  3.223337  -0.029  -0.365802  -0.51665  -0.031086  3.21832  -0.042
N  N79  1  0.27396323  0.40244268  0.43790360  1  -0.54926  0.035104  2.925107  0.05  -0.534978  0.026541  3.219679  0.036  -0.561047  0.021387  3.223097  0.029  -0.365774  -0.516689  0.031089  3.218063  0.042
N  N80  1  0.22603742  0.90244103  0.93790275  1  -0.549218  -0.035119  2.924899  -0.05  -0.534931  -0.026542  3.219487  -0.036  -0.561004  -0.021386  3.222908  -0.029  -0.365766  -0.516639  -0.03109  3.217866  -0.042
N  N81  1  0.72603667  0.59756789  0.56210436  1  -0.549283  0.035109  2.925204  0.05  -0.535004  0.026537  3.219778  0.036  -0.561066  0.021388  3.223186  0.029  -0.365775  -0.516721  0.031087  3.218168  0.042
N  N82  1  0.64824292  0.33306387  0.16406804  1  -0.474119  -0.006007  3.249246  -0.008  -0.424412  -0.002863  3.509683  -0.004  -0.447017  -0.002071  3.509902  -0.003  -0.308859  -0.408514  -0.003713  3.509509  -0.005
N  N83  1  0.14824387  0.16694798  0.33593905  1  -0.474185  0.006015  3.249482  0.008  -0.424505  0.002865  3.509943  0.004  -0.447095  0.002073  3.510122  0.003  -0.308898  -0.408607  0.003716  3.509771  0.005
N  N84  1  0.35175825  0.66694332  0.83594248  1  -0.473946  -0.00602  3.249741  -0.008  -0.424203  -0.002864  3.510157  -0.004  -0.446793  -0.002074  3.510348  -0.003  -0.308877  -0.408313  -0.003717  3.509991  -0.005
N  N85  1  0.85175603  0.83306933  0.66406302  1  -0.47415  0.006002  3.249294  0.008  -0.424494  0.002867  3.50976  0.004  -0.447092  0.00207  3.509957  0.003  -0.308941  -0.408591  0.003714  3.50958  0.005
N  N86  1  0.61392590  0.41268957  0.35798702  1  -0.539281  0.036616  2.950466  0.052  -0.526918  0.029273  3.248021  0.041  -0.553378  0.025202  3.251972  0.035  -0.360276  -0.507859  0.033087  3.244495  0.045
N  N87  1  0.11392220  0.08731994  0.14202120  1  -0.539141  -0.036671  2.950438  -0.052  -0.526763  -0.029268  3.247963  -0.041  -0.553224  -0.025198  3.251913  -0.035  -0.360156  -0.507703  -0.033082  3.244431  -0.045
N  N88  1  0.38608164  0.58731425  0.64202452  1  -0.539091  0.036653  2.950689  0.052  -0.526726  0.029267  3.248238  0.041  -0.553182  0.0252  3.25219  0.035  -0.36009  -0.50767  0.033083  3.244708  0.045
N  N89  1  0.88607388  0.91269062  0.85798599  1  -0.539302  -0.036654  2.950534  -0.052  -0.526937  -0.029275  3.248071  -0.041  -0.553399  -0.025197  3.252022  -0.035  -0.360272  -0.507881  -0.033086  3.244546  -0.045
