# generated using pymatgen
data_BiH2C8NO6
_symmetry_space_group_name_H-M   'P 1'
_cell_length_a   5.27499634
_cell_length_b   9.80819108
_cell_length_c   15.08754164
_cell_angle_alpha   94.43140960
_cell_angle_beta   90.00048361
_cell_angle_gamma   90.00046658
_symmetry_Int_Tables_number   1
_chemical_formula_structural   BiH2C8NO6
_chemical_formula_sum   'Bi4 H8 C32 N4 O24'
_cell_volume   778.26825059
_cell_formula_units_Z   4
loop_
 _symmetry_equiv_pos_site_id
 _symmetry_equiv_pos_as_xyz
  1  'x, y, z'
loop_
 _atom_site_type_symbol
 _atom_site_label
 _atom_site_symmetry_multiplicity
 _atom_site_fract_x
 _atom_site_fract_y
 _atom_site_fract_z
 _atom_site_occupancy
 _atom_site_hle17_bader_spin_density
 _atom_site_hle17_ddec_charge
 _atom_site_hle17_ddec_spin_density
 _atom_site_hle17_ddec_sum_bond_order
 _atom_site_hle17_magmom
 _atom_site_hse06_10hf_bader_spin_density
 _atom_site_hse06_10hf_ddec_charge
 _atom_site_hse06_10hf_ddec_spin_density
 _atom_site_hse06_10hf_ddec_sum_bond_order
 _atom_site_hse06_10hf_magmom
 _atom_site_hse06_bader_spin_density
 _atom_site_hse06_ddec_charge
 _atom_site_hse06_ddec_spin_density
 _atom_site_hse06_ddec_sum_bond_order
 _atom_site_hse06_magmom
 _atom_site_pbe_bader_spin_density
 _atom_site_pbe_cm5_charge
 _atom_site_pbe_ddec_charge
 _atom_site_pbe_ddec_spin_density
 _atom_site_pbe_ddec_sum_bond_order
 _atom_site_pbe_magmom
Bi  Bi0  1  0.81812971  0.35387415  0.58211049  1  0  1.814018  0  2.009411  0  0  1.605229  0  2.478512  0  0  1.687986  0  2.419989  0  0  0.943614  1.545799  0  2.519541  0
Bi  Bi1  1  0.31813336  0.14612163  0.91788597  1  0  1.814074  0  2.009404  0  0  1.605258  0  2.478501  0  0  1.688017  0  2.419978  0  0  0.943605  1.54583  0  2.519527  0
Bi  Bi2  1  0.18184551  0.64613026  0.41788888  1  0  1.814018  0  2.009551  0  0  1.6052  0  2.478664  0  0  1.687958  0  2.420142  0  0  0.943585  1.54577  0  2.519688  0
Bi  Bi3  1  0.68187030  0.85387461  0.08211366  1  0  1.814055  0  2.009382  0  0  1.605235  0  2.478476  0  0  1.687994  0  2.419955  0  0  0.943599  1.545808  0  2.519501  0
H  H4  1  0.78459216  0.53478376  0.93516483  1  0  0.135712  0  0.929785  0  0  0.1411  0  0.994313  0  0  0.145609  0  0.990744  0  0  0.118947  0.137772  0  0.997042  0
H  H5  1  0.28457984  0.96520611  0.56483539  1  0  0.135741  0  0.929845  0  0  0.141103  0  0.994412  0  0  0.145611  0  0.990842  0  0  0.118933  0.137778  0  0.997142  0
H  H6  1  0.21541528  0.46521556  0.06483761  1  0  0.135704  0  0.929862  0  0  0.141114  0  0.99435  0  0  0.145624  0  0.99078  0  0  0.11892  0.137785  0  0.997081  0
H  H7  1  0.71541054  0.03478911  0.43516684  1  0  0.135773  0  0.929814  0  0  0.141154  0  0.994353  0  0  0.145663  0  0.990783  0  0  0.119003  0.137831  0  0.997078  0
H  H8  1  0.42838686  0.68655892  0.79586850  1  0  0.123684  0  0.941501  0  0  0.129633  0  1.008731  0  0  0.132827  0  1.007656  0  0  0.113233  0.127107  0  1.010031  0
H  H9  1  0.92838345  0.81344076  0.70413065  1  0  0.123701  0  0.941464  0  0  0.129695  0  1.008634  0  0  0.132891  0  1.007559  0  0  0.113268  0.127171  0  1.009932  0
H  H10  1  0.57161679  0.31343936  0.20413057  1  0  0.123692  0  0.941415  0  0  0.129691  0  1.008624  0  0  0.132889  0  1.007546  0  0  0.113279  0.127167  0  1.009923  0
H  H11  1  0.07161642  0.18655752  0.29586775  1  0  0.123745  0  0.941413  0  0  0.12972  0  1.008613  0  0  0.132918  0  1.007535  0  0  0.113287  0.127198  0  1.009912  0
C  C12  1  0.61545716  0.36214973  0.79081384  1  0  0.650616  0  3.868084  0  0  0.588144  0  4.178115  0  0  0.625426  0  4.167863  0  0  0.228479  0.562714  0  4.184328  0
C  C13  1  0.11544828  0.13784212  0.70917849  1  0  0.650849  0  3.867624  0  0  0.588329  0  4.177667  0  0  0.625623  0  4.167404  0  0  0.228681  0.562905  0  4.183886  0
C  C14  1  0.38454081  0.63785162  0.20918671  1  0  0.650765  0  3.867829  0  0  0.588199  0  4.178  0  0  0.625499  0  4.167734  0  0  0.228468  0.562767  0  4.184214  0
C  C15  1  0.88454779  0.86215923  0.29082073  1  0  0.650845  0  3.867637  0  0  0.58833  0  4.177671  0  0  0.625629  0  4.167409  0  0  0.228702  0.562915  0  4.183896  0
C  C16  1  0.83249521  0.46290079  0.79760287  1  0  0.128006  0  3.701775  0  0  0.127537  0  3.951464  0  0  0.129551  0  3.96691  0  0  0.128623  0.125876  0  3.941605  0
C  C17  1  0.33249015  0.03709405  0.70239690  1  0  0.127952  0  3.701732  0  0  0.127516  0  3.951444  0  0  0.129526  0  3.966888  0  0  0.128579  0.125842  0  3.941613  0
C  C18  1  0.16749896  0.53710160  0.20240170  1  0  0.128051  0  3.701836  0  0  0.127596  0  3.951576  0  0  0.129603  0  3.967022  0  0  0.128667  0.125935  0  3.941722  0
C  C19  1  0.66751161  0.96290628  0.29760359  1  0  0.127925  0  3.701727  0  0  0.127482  0  3.95145  0  0  0.129493  0  3.966893  0  0  0.12856  0.125768  0  3.941678  0
C  C20  1  0.89950914  0.53985929  0.87576291  1  0  -0.065325  0  3.58684  0  0  -0.104809  0  3.841334  0  0  -0.104124  0  3.855294  0  0  -0.052448  -0.105209  0  3.83231  0
C  C21  1  0.39949052  0.96013208  0.62423375  1  0  -0.065341  0  3.586693  0  0  -0.104832  0  3.841109  0  0  -0.104145  0  3.85507  0  0  -0.052424  -0.105235  0  3.832104  0
C  C22  1  0.10050210  0.46014207  0.12423697  1  0  -0.065469  0  3.586632  0  0  -0.105007  0  3.84114  0  0  -0.10432  0  3.855097  0  0  -0.052497  -0.105407  0  3.832122  0
C  C23  1  0.60050745  0.03986620  0.37576664  1  0  -0.065449  0  3.586581  0  0  -0.104961  0  3.841076  0  0  -0.10427  0  3.85503  0  0  -0.052518  -0.10535  0  3.832083  0
C  C24  1  0.11669792  0.62162645  0.87589305  1  0  0.009548  0  3.652484  0  0  0.028906  0  3.890527  0  0  0.026096  0  3.906583  0  0  0.01418  0.030699  0  3.87962  0
C  C25  1  0.61669186  0.87836476  0.62410738  1  0  0.009508  0  3.652617  0  0  0.028998  0  3.890528  0  0  0.026182  0  3.906579  0  0  0.014229  0.030795  0  3.879625  0
C  C26  1  0.88330005  0.37836878  0.12410918  1  0  0.009657  0  3.652361  0  0  0.029114  0  3.890387  0  0  0.0263  0  3.906437  0  0  0.014253  0.03091  0  3.879478  0
C  C27  1  0.38330231  0.12163352  0.37589236  1  0  0.009624  0  3.652446  0  0  0.029033  0  3.89048  0  0  0.026218  0  3.906534  0  0  0.014237  0.03083  0  3.879572  0
C  C28  1  0.20603422  0.70037560  0.96022621  1  0  0.694119  0  3.860733  0  0  0.636729  0  4.160845  0  0  0.674668  0  4.148736  0  0  0.224818  0.610778  0  4.168262  0
C  C29  1  0.70602488  0.79962007  0.53977074  1  0  0.6942  0  3.860813  0  0  0.636705  0  4.161035  0  0  0.674669  0  4.148893  0  0  0.224769  0.610748  0  4.168465  0
C  C30  1  0.79397702  0.29962370  0.03977159  1  0  0.694175  0  3.860826  0  0  0.636698  0  4.161039  0  0  0.674657  0  4.148895  0  0  0.224794  0.610746  0  4.168463  0
C  C31  1  0.29396740  0.20037719  0.46022894  1  0  0.694279  0  3.860632  0  0  0.636835  0  4.160811  0  0  0.674787  0  4.148681  0  0  0.224826  0.610886  0  4.168229  0
C  C32  1  0.25628956  0.62589422  0.79746960  1  0  -0.076331  0  3.623263  0  0  -0.113745  0  3.876501  0  0  -0.113845  0  3.892036  0  0  -0.060654  -0.113849  0  3.866615  0
C  C33  1  0.75627766  0.87409961  0.70252807  1  0  -0.076405  0  3.623455  0  0  -0.113899  0  3.876636  0  0  -0.114003  0  3.892178  0  0  -0.060736  -0.114  0  3.866745  0
C  C34  1  0.74372546  0.37410610  0.20252824  1  0  -0.076255  0  3.623414  0  0  -0.11384  0  3.876632  0  0  -0.113947  0  3.892174  0  0  -0.060704  -0.11394  0  3.866741  0
C  C35  1  0.24373357  0.12589765  0.29747095  1  0  -0.07638  0  3.623595  0  0  -0.113896  0  3.87671  0  0  -0.114003  0  3.892257  0  0  -0.060723  -0.114  0  3.866827  0
C  C36  1  0.17178941  0.55027130  0.72130518  1  0  0.108948  0  3.734967  0  0  0.110038  0  3.983309  0  0  0.11106  0  4.000399  0  0  0.118203  0.108913  0  3.972438  0
C  C37  1  0.67178244  0.94972423  0.77869430  1  0  0.109096  0  3.734828  0  0  0.110251  0  3.983085  0  0  0.111274  0  4.000172  0  0  0.118259  0.10913  0  3.972211  0
C  C38  1  0.82820287  0.44973005  0.27869470  1  0  0.108927  0  3.73488  0  0  0.110222  0  3.982902  0  0  0.111246  0  3.999988  0  0  0.118267  0.109099  0  3.972032  0
C  C39  1  0.32822500  0.05028019  0.22130440  1  0  0.108803  0  3.734974  0  0  0.110211  0  3.98295  0  0  0.111234  0  4.000036  0  0  0.118222  0.10909  0  3.97208  0
C  C40  1  0.31131073  0.54438807  0.63418914  1  0  0.626947  0  3.917232  0  0  0.569176  0  4.221564  0  0  0.604972  0  4.213026  0  0  0.219314  0.54472  0  4.226735  0
C  C41  1  0.81131914  0.95560702  0.86580810  1  0  0.626976  0  3.91762  0  0  0.5693  0  4.22179  0  0  0.605094  0  4.213241  0  0  0.219343  0.544845  0  4.226964  0
C  C42  1  0.68867587  0.45561226  0.36581003  1  0  0.626844  0  3.917532  0  0  0.569155  0  4.221633  0  0  0.604951  0  4.213092  0  0  0.21925  0.544696  0  4.226805  0
C  C43  1  0.18870537  0.04439227  0.13418836  1  0  0.627219  0  3.9173  0  0  0.569325  0  4.221686  0  0  0.605122  0  4.213139  0  0  0.219443  0.544869  0  4.226862  0
N  N44  1  0.96495518  0.47144963  0.72258961  1  0  -0.345256  0  3.311323  0  0  -0.28148  0  3.544104  0  0  -0.298442  0  3.566363  0  0  -0.287455  -0.270094  0  3.529532  0
N  N45  1  0.46494032  0.02854473  0.77740658  1  0  -0.345247  0  3.311355  0  0  -0.281605  0  3.544265  0  0  -0.298563  0  3.566523  0  0  -0.287427  -0.270215  0  3.529699  0
N  N46  1  0.03504468  0.52855479  0.27740976  1  0  -0.345376  0  3.311485  0  0  -0.281681  0  3.544234  0  0  -0.298644  0  3.566492  0  0  -0.287551  -0.270292  0  3.52966  0
N  N47  1  0.53506713  0.97145764  0.22259136  1  0  -0.34517  0  3.311329  0  0  -0.28156  0  3.544103  0  0  -0.298521  0  3.56636  0  0  -0.287435  -0.270158  0  3.529553  0
O  O48  1  0.55567570  0.30978299  0.71461285  1  0  -0.610264  0  2.066026  0  0  -0.553076  0  2.314902  0  0  -0.583148  0  2.309662  0  0  -0.274972  -0.531978  0  2.317652  0
O  O49  1  0.05567326  0.19021682  0.78538896  1  0  -0.610594  0  2.065691  0  0  -0.553243  0  2.314459  0  0  -0.583299  0  2.309174  0  0  -0.275087  -0.532147  0  2.317211  0
O  O50  1  0.44431089  0.69022348  0.28538993  1  0  -0.610459  0  2.066034  0  0  -0.55315  0  2.314846  0  0  -0.583214  0  2.309562  0  0  -0.275018  -0.532046  0  2.317592  0
O  O51  1  0.94432471  0.80978351  0.21461154  1  0  -0.610562  0  2.06571  0  0  -0.553246  0  2.314531  0  0  -0.583291  0  2.309212  0  0  -0.275072  -0.532144  0  2.317276  0
O  O52  1  0.50827290  0.33892375  0.86409773  1  0  -0.614133  0  2.032616  0  0  -0.544569  0  2.281831  0  0  -0.576219  0  2.273776  0  0  -0.279648  -0.522099  0  2.28623  0
O  O53  1  0.00824566  0.16106256  0.63590327  1  0  -0.614172  0  2.032709  0  0  -0.544624  0  2.281969  0  0  -0.57629  0  2.273921  0  0  -0.279759  -0.522141  0  2.286332  0
O  O54  1  0.49172886  0.66107556  0.13590536  1  0  -0.614118  0  2.032492  0  0  -0.544544  0  2.281759  0  0  -0.576205  0  2.2737  0  0  -0.279624  -0.52209  0  2.286195  0
O  O55  1  0.99174472  0.83893675  0.36409850  1  0  -0.614133  0  2.032716  0  0  -0.544583  0  2.281969  0  0  -0.576258  0  2.273921  0  0  -0.279751  -0.522096  0  2.286321  0
O  O56  1  0.04932397  0.72059898  0.02334501  1  0  -0.664567  0  2.039523  0  0  -0.606776  0  2.300091  0  0  -0.63734  0  2.290648  0  0  -0.301241  -0.585052  0  2.305903  0
O  O57  1  0.54932435  0.77939714  0.47665138  1  0  -0.664564  0  2.039794  0  0  -0.60674  0  2.300395  0  0  -0.63732  0  2.290952  0  0  -0.30121  -0.585018  0  2.306215  0
O  O58  1  0.95068158  0.27940135  0.97665482  1  0  -0.66457  0  2.039783  0  0  -0.606735  0  2.300371  0  0  -0.637307  0  2.290927  0  0  -0.301237  -0.585013  0  2.306185  0
O  O59  1  0.45067172  0.22060115  0.52334901  1  0  -0.664645  0  2.039595  0  0  -0.606849  0  2.300234  0  0  -0.637403  0  2.290755  0  0  -0.30126  -0.585128  0  2.306049  0
O  O60  1  0.43891241  0.73505075  0.96115096  1  0  -0.631057  0  1.992184  0  0  -0.569185  0  2.238461  0  0  -0.600927  0  2.229747  0  0  -0.287715  -0.5466  0  2.243573  0
O  O61  1  0.93890436  0.76494693  0.53884879  1  0  -0.631086  0  1.992094  0  0  -0.569212  0  2.238459  0  0  -0.600956  0  2.229707  0  0  -0.2877  -0.546625  0  2.243574  0
O  O62  1  0.56109693  0.26494855  0.03884816  1  0  -0.631088  0  1.992115  0  0  -0.569225  0  2.238473  0  0  -0.600979  0  2.229759  0  0  -0.287712  -0.546639  0  2.243588  0
O  O63  1  0.06109361  0.23504829  0.46115079  1  0  -0.631068  0  1.992083  0  0  -0.569214  0  2.238451  0  0  -0.600979  0  2.229756  0  0  -0.2877  -0.54663  0  2.243567  0
O  O64  1  0.53938891  0.58011398  0.63347069  1  0  -0.606168  0  2.022784  0  0  -0.556766  0  2.267249  0  0  -0.584901  0  2.26321  0  0  -0.285172  -0.536757  0  2.269213  0
O  O65  1  0.03936949  0.91988814  0.86652738  1  0  -0.606028  0  2.023266  0  0  -0.55675  0  2.2678  0  0  -0.584875  0  2.263759  0  0  -0.285148  -0.536749  0  2.269773  0
O  O66  1  0.46060527  0.41988634  0.36652649  1  0  -0.606063  0  2.023005  0  0  -0.556717  0  2.267412  0  0  -0.584852  0  2.263374  0  0  -0.285096  -0.53671  0  2.269385  0
O  O67  1  0.96063227  0.08011422  0.13346858  1  0  -0.606222  0  2.022864  0  0  -0.556853  0  2.267453  0  0  -0.584989  0  2.263428  0  0  -0.285209  -0.536838  0  2.269404  0
O  O68  1  0.18641466  0.49734043  0.56495144  1  0  -0.6785  0  2.11273  0  0  -0.60608  0  2.368614  0  0  -0.639244  0  2.360026  0  0  -0.280104  -0.582741  0  2.373738  0
O  O69  1  0.68641316  0.00266401  0.93504901  1  0  -0.678695  0  2.112631  0  0  -0.606264  0  2.368369  0  0  -0.639461  0  2.359865  0  0  -0.280183  -0.582923  0  2.373487  0
O  O70  1  0.81357194  0.50266092  0.43504910  1  0  -0.678461  0  2.112707  0  0  -0.606104  0  2.368556  0  0  -0.639269  0  2.359967  0  0  -0.28009  -0.582785  0  2.373734  0
O  O71  1  0.31359618  0.99733836  0.06494959  1  0  -0.678578  0  2.112652  0  0  -0.606133  0  2.368532  0  0  -0.639315  0  2.359996  0  0  -0.280162  -0.582793  0  2.373649  0
