# generated using pymatgen
data_CuH14C16(N2Cl)2
_symmetry_space_group_name_H-M   'P 1'
_cell_length_a   7.56700994
_cell_length_b   7.93275004
_cell_length_c   13.82804919
_cell_angle_alpha   89.99992361
_cell_angle_beta   90.00018210
_cell_angle_gamma   111.65261939
_symmetry_Int_Tables_number   1
_chemical_formula_structural   CuH14C16(N2Cl)2
_chemical_formula_sum   'Cu2 H28 C32 N8 Cl4'
_cell_volume   771.48843810
_cell_formula_units_Z   2
loop_
 _symmetry_equiv_pos_site_id
 _symmetry_equiv_pos_as_xyz
  1  'x, y, z'
loop_
 _atom_site_type_symbol
 _atom_site_label
 _atom_site_symmetry_multiplicity
 _atom_site_fract_x
 _atom_site_fract_y
 _atom_site_fract_z
 _atom_site_occupancy
 _atom_site_hle17_ddec_charge
 _atom_site_hle17_ddec_spin_density
 _atom_site_hle17_ddec_sum_bond_order
 _atom_site_hle17_magmom
 _atom_site_hse06_10hf_ddec_charge
 _atom_site_hse06_10hf_ddec_spin_density
 _atom_site_hse06_10hf_ddec_sum_bond_order
 _atom_site_hse06_10hf_magmom
 _atom_site_hse06_ddec_charge
 _atom_site_hse06_ddec_spin_density
 _atom_site_hse06_ddec_sum_bond_order
 _atom_site_hse06_magmom
 _atom_site_pbe_cm5_charge
 _atom_site_pbe_ddec_charge
 _atom_site_pbe_ddec_spin_density
 _atom_site_pbe_ddec_sum_bond_order
 _atom_site_pbe_magmom
Cu  Cu0  1  0.52007073  0.69397293  0.75000041  1  0.697048  0.643924  1.989191  0.439  0.667395  0.746445  2.40449  0.558  0.754299  0.829995  2.334582  0.642  0.602377  0.619006  0.691907  2.450008  0.508
Cu  Cu1  1  0.47992867  0.30602627  0.25000013  1  0.69702  -0.643923  1.989262  -0.439  0.667423  -0.746441  2.404498  -0.558  0.754264  -0.829987  2.334708  -0.642  0.60238  0.619022  -0.691901  2.450041  -0.508
H  H2  1  0.48343210  0.29437319  0.68696995  1  0.097096  -0.000275  0.94354  0.0  0.109458  -0.000178  1.014058  0.0  0.110902  -0.000159  1.013012  0.0  0.11287  0.108302  -0.000184  1.015093  0.0
H  H3  1  0.48343113  0.29437317  0.81303184  1  0.097081  -0.000271  0.943506  0.0  0.109455  -0.000178  1.014017  0.0  0.110901  -0.000159  1.012966  0.0  0.112852  0.108299  -0.000184  1.015053  0.0
H  H4  1  0.51657312  0.70562738  0.31303204  1  0.097102  0.000274  0.943504  0.0  0.109464  0.000178  1.014039  0.0  0.110906  0.000159  1.012994  0.0  0.112848  0.108309  0.000184  1.015075  0.0
H  H5  1  0.51657276  0.70562740  0.18696943  1  0.097097  0.000279  0.943548  0.0  0.109461  0.000178  1.014074  0.0  0.110903  0.000159  1.013029  0.0  0.112853  0.108306  0.000184  1.015111  0.0
H  H6  1  0.02588326  0.96293558  0.74999915  1  0.114773  -0.000248  0.964037  0.0  0.120245  -0.000186  1.031347  0.0  0.124342  -0.00015  1.029525  0.0  0.101786  0.117353  -0.000205  1.032755  0.0
H  H7  1  0.97412038  0.03706092  0.24999922  1  0.114824  0.000243  0.963999  0.0  0.120265  0.000186  1.031327  0.0  0.124362  0.00015  1.029507  0.0  0.101791  0.117373  0.000205  1.032738  0.0
H  H8  1  0.73329056  0.03118121  0.74999868  1  0.076074  -0.000941  0.987832  0.0  0.070998  -0.000919  1.079459  0.0  0.075003  -0.000865  1.073254  0.0  0.092907  0.067261  -0.000908  1.08488  0.0
H  H9  1  0.26670703  0.96880986  0.24999897  1  0.076098  0.000943  0.98779  0.0  0.070999  0.000919  1.079435  0.0  0.075011  0.000865  1.073217  0.0  0.092905  0.067258  0.000908  1.084861  0.0
H  H10  1  0.76398260  0.36362518  0.75000003  1  0.101857  -0.000325  0.998163  0.0  0.108506  -0.000202  1.067408  0.0  0.112379  -0.000159  1.065035  0.0  0.097111  0.105819  -0.000229  1.069094  0.0
H  H11  1  0.23601604  0.63636860  0.24999907  1  0.101763  0.000318  0.998249  0.0  0.108433  0.000202  1.067482  0.0  0.112309  0.000159  1.065104  0.0  0.097091  0.105745  0.000229  1.06917  0.0
H  H12  1  0.08084436  0.59921702  0.74999934  1  0.079317  -0.000139  0.948514  0.0  0.083405  -4.9e-05  1.016898  0.0  0.087004  -5.8e-05  1.013815  0.0  0.108612  0.080888  -3.6e-05  1.01903  0.0
H  H13  1  0.91915295  0.40077676  0.24999903  1  0.079245  0.00014  0.948527  0.0  0.08335  4.9e-05  1.016914  0.0  0.086949  5.7e-05  1.01383  0.0  0.108561  0.080831  3.6e-05  1.019048  0.0
H  H14  1  0.27530705  0.14986488  0.58555422  1  0.117723  0.000537  0.964276  0.001  0.130551  0.000515  1.018758  0.001  0.133499  0.000396  1.018403  0.001  0.110273  0.12843  0.000607  1.019171  0.001
H  H15  1  0.27531115  0.14986618  0.91444877  1  0.117746  0.000539  0.964252  0.001  0.130567  0.000515  1.018744  0.001  0.133517  0.000396  1.018386  0.001  0.110278  0.128447  0.000607  1.019156  0.001
H  H16  1  0.72469472  0.85013704  0.41444850  1  0.117688  -0.000537  0.96424  -0.001  0.130517  -0.000515  1.018736  -0.001  0.133466  -0.000396  1.018378  -0.001  0.110271  0.128396  -0.000607  1.019148  -0.001
H  H17  1  0.72469194  0.85013574  0.08555178  1  0.117705  -0.000537  0.964238  -0.001  0.130529  -0.000516  1.01874  -0.001  0.133479  -0.000396  1.018383  -0.001  0.110261  0.128409  -0.000607  1.019152  -0.001
H  H18  1  0.17886125  0.97483636  0.43752137  1  0.094131  0.000336  0.95517  0.0  0.104903  0.000123  1.017215  0.0  0.106878  7.3e-05  1.015959  0.0  0.100786  0.10339  0.000168  1.01817  0.0
H  H19  1  0.17886576  0.97483372  0.06247931  1  0.094093  0.000334  0.955242  0.0  0.104878  0.000123  1.017265  0.0  0.106888  7.3e-05  1.01597  0.0  0.10078  0.103366  0.000168  1.018219  0.0
H  H20  1  0.82113864  0.02517098  0.56247846  1  0.09411  -0.000345  0.9552  0.0  0.104898  -0.000123  1.017235  0.0  0.10691  -7.3e-05  1.015939  0.0  0.100783  0.103384  -0.000168  1.018189  0.0
H  H21  1  0.82113838  0.02517092  0.93752196  1  0.094115  -0.000338  0.955207  0.0  0.104902  -0.000123  1.017239  0.0  0.106914  -7.3e-05  1.015943  0.0  0.100785  0.103389  -0.000168  1.018192  0.0
H  H22  1  0.19915002  0.65938736  0.42838717  1  0.105322  -2.4e-05  0.984119  0.0  0.113678  -6.7e-05  1.047573  0.0  0.116476  -7.7e-05  1.04787  0.0  0.097138  0.111672  -4.7e-05  1.047553  0.001
H  H23  1  0.19915061  0.65938471  0.07161306  1  0.105307  -1.7e-05  0.984125  0.0  0.113674  -6.7e-05  1.047575  0.0  0.116473  -7.7e-05  1.04787  0.0  0.097131  0.111668  -4.7e-05  1.047555  0.001
H  H24  1  0.80084802  0.34061862  0.57161048  1  0.105334  2.3e-05  0.984101  0.0  0.113719  6.7e-05  1.047524  0.0  0.116521  7.7e-05  1.047814  0.0  0.097148  0.111712  4.7e-05  1.047504  -0.001
H  H25  1  0.80084904  0.34061856  0.92838966  1  0.105316  2.5e-05  0.984122  0.0  0.113703  6.7e-05  1.047545  0.0  0.116505  7.7e-05  1.047835  0.0  0.097145  0.111696  4.7e-05  1.047526  -0.001
H  H26  1  0.34929254  0.56298711  0.56587528  1  0.082219  0.000295  0.954495  0.001  0.08655  0.000439  1.024507  0.001  0.089226  0.000329  1.021472  0.001  0.107078  0.084429  0.000533  1.026873  0.002
H  H27  1  0.34929306  0.56298570  0.93412390  1  0.082281  0.000293  0.954485  0.001  0.086593  0.000439  1.024525  0.001  0.089268  0.000329  1.021489  0.001  0.107102  0.084495  0.000533  1.026866  0.002
H  H28  1  0.65070157  0.43701208  0.43412310  1  0.082244  -0.000297  0.95453  -0.001  0.086564  -0.00044  1.024559  -0.001  0.089236  -0.00033  1.021529  -0.001  0.107091  0.084469  -0.000533  1.026894  -0.002
H  H29  1  0.65070369  0.43701350  0.06587665  1  0.082262  -0.000293  0.954519  -0.001  0.086576  -0.00044  1.024555  -0.001  0.089248  -0.00033  1.021528  -0.001  0.107087  0.084481  -0.000533  1.026891  -0.002
C  C30  1  0.40055494  0.22342926  0.75000049  1  -0.09327  -0.000481  3.702478  0.0  -0.162255  -0.000339  3.956253  0.0  -0.15884  -0.000328  3.96594  0.0  -0.057493  -0.164444  -0.000329  3.949472  0.0
C  C31  1  0.59944710  0.77656995  0.25000006  1  -0.093234  0.00046  3.702479  0.0  -0.162228  0.00034  3.956222  0.0  -0.158809  0.000328  3.965916  0.0  -0.057457  -0.164418  0.000329  3.949434  0.0
C  C32  1  0.21168047  0.24796396  0.75000031  1  0.220089  -0.000386  3.739082  0.0  0.230504  -0.000242  3.979936  0.0  0.238392  -0.000206  3.999353  0.0  0.112244  0.225624  -0.00029  3.966642  0.0
C  C33  1  0.78831920  0.75203254  0.25000023  1  0.220103  0.000324  3.739163  0.0  0.230495  0.000243  3.980011  0.0  0.238379  0.000204  3.999433  0.0  0.112236  0.225616  0.00029  3.966721  0.0
C  C34  1  0.03635467  0.10357905  0.75000022  1  -0.173378  0.00019  3.726283  0.0  -0.189936  2.5e-05  3.966709  0.0  -0.197225  4.7e-05  3.987893  0.0  -0.090031  -0.185191  2.7e-05  3.952187  0.0
C  C35  1  0.96364449  0.89641609  0.24999961  1  -0.173396  -0.000109  3.726397  0.0  -0.189882  -2.7e-05  3.966759  0.0  -0.197169  -4.5e-05  3.987946  0.0  -0.090034  -0.185138  -2.7e-05  3.95224  0.0
C  C36  1  0.87128386  0.14216271  0.74999948  1  0.003867  -0.000663  3.733446  -0.001  -0.008195  -0.000684  3.981084  -0.001  -0.005643  -0.000642  4.000049  -0.001  -0.069625  -0.009287  -0.000697  3.968362  -0.001
C  C37  1  0.12871425  0.85782972  0.24999889  1  0.003777  0.000598  3.733666  0.001  -0.008284  0.000684  3.981307  0.001  -0.005733  0.000639  4.000267  0.001  -0.069604  -0.00937  0.000697  3.968585  0.001
C  C38  1  0.88580864  0.32228313  0.75000015  1  -0.131392  7.7e-05  3.743168  0.0  -0.139209  -2.6e-05  3.978651  0.0  -0.144599  1e-05  3.997062  0.0  -0.090764  -0.135623  -4.7e-05  3.965695  0.0
C  C39  1  0.11419132  0.67771066  0.25000040  1  -0.131193  -2e-06  3.743191  0.0  -0.139002  2.5e-05  3.978648  0.0  -0.144391  -8e-06  3.997061  0.0  -0.090695  -0.135415  4.7e-05  3.965695  0.0
C  C40  1  0.06617260  0.45729963  0.74999938  1  0.13771  -0.000476  3.713159  0.0  0.113248  -0.000302  3.966787  0.0  0.120718  -0.000284  3.982637  0.0  0.043224  0.1088  -0.000322  3.9558  0.0
C  C41  1  0.93382656  0.54269551  0.24999972  1  0.137737  0.000418  3.713155  0.0  0.11322  0.000302  3.966843  0.0  0.120689  0.000283  3.98269  0.0  0.043224  0.108772  0.000322  3.955856  0.0
C  C42  1  0.35387356  0.94535548  0.66029988  1  0.358313  -0.002574  3.728902  -0.003  0.333182  0.000522  3.988096  0.0  0.351819  -0.000634  4.00431  -0.002  0.225028  0.321066  0.001417  3.977053  0.001
C  C43  1  0.35387539  0.94535546  0.83970118  1  0.35826  -0.002539  3.729084  -0.003  0.333195  0.000522  3.988176  0.0  0.351834  -0.000634  4.00439  -0.002  0.22501  0.321077  0.001417  3.977138  0.001
C  C44  1  0.64612504  0.05464508  0.33970066  1  0.358243  0.002586  3.728985  0.003  0.333165  -0.000522  3.988123  0.0  0.351804  0.000634  4.004332  0.002  0.224981  0.321045  -0.001417  3.977085  -0.001
C  C45  1  0.64612586  0.05464511  0.16029936  1  0.358298  0.002575  3.72894  0.003  0.33321  -0.000521  3.988083  0.0  0.351849  0.000634  4.004291  0.002  0.224993  0.321088  -0.001417  3.977051  -0.001
C  C46  1  0.28810699  0.01830279  0.58132230  1  -0.201098  0.007418  3.703971  0.007  -0.217547  0.004399  3.951435  0.005  -0.227771  0.004098  3.971275  0.005  -0.089702  -0.211002  0.004518  3.93805  0.005
C  C47  1  0.28810847  0.01830410  0.91867864  1  -0.201041  0.007365  3.703896  0.007  -0.217523  0.0044  3.951346  0.005  -0.22775  0.004098  3.971201  0.005  -0.0897  -0.21098  0.004519  3.937971  0.005
C  C48  1  0.71189530  0.98170048  0.41867969  1  -0.200948  -0.007426  3.703985  -0.007  -0.217424  -0.004399  3.951462  -0.005  -0.227649  -0.0041  3.971318  -0.005  -0.089661  -0.21088  -0.004519  3.93808  -0.005
C  C49  1  0.71189619  0.98170189  0.08131902  1  -0.201015  -0.007414  3.703985  -0.007  -0.21749  -0.0044  3.951472  -0.005  -0.227717  -0.0041  3.971328  -0.005  -0.089657  -0.210948  -0.004519  3.938099  -0.005
C  C50  1  0.23189348  0.91739109  0.49738671  1  0.029547  -0.005757  3.716331  -0.005  0.011055  -0.002259  3.960537  -0.002  0.018495  -0.002598  3.976147  -0.003  -0.065601  0.00647  -0.001952  3.949769  -0.002
C  C51  1  0.23189368  0.91738846  0.00261266  1  0.029508  -0.0057  3.71648  -0.005  0.011023  -0.002259  3.96068  -0.002  0.018436  -0.002598  3.976285  -0.003  -0.065597  0.00644  -0.001951  3.949911  -0.002
C  C52  1  0.76810749  0.08261218  0.50260949  1  0.029521  0.00578  3.716525  0.005  0.011011  0.002258  3.960762  0.002  0.018418  0.002599  3.97637  0.003  -0.065587  0.006432  0.001951  3.949985  0.002
C  C53  1  0.76810624  0.08261210  0.99739006  1  0.029527  0.005759  3.716451  0.005  0.011021  0.002259  3.960687  0.002  0.018429  0.002599  3.976293  0.003  -0.065591  0.006442  0.001951  3.949912  0.002
C  C54  1  0.24433654  0.74631038  0.49162820  1  -0.136833  0.006409  3.737495  0.006  -0.148292  0.003499  3.982681  0.004  -0.156543  0.00326  4.002786  0.004  -0.09617  -0.142988  0.003642  3.969045  0.004
C  C55  1  0.24433649  0.74631046  0.00837132  1  -0.136769  0.006342  3.737575  0.006  -0.148236  0.003499  3.982746  0.004  -0.156489  0.00326  4.002862  0.004  -0.09613  -0.142933  0.003642  3.969118  0.004
C  C56  1  0.75566575  0.25369289  0.50837162  1  -0.136855  -0.006421  3.737342  -0.006  -0.148324  -0.003499  3.982533  -0.004  -0.156576  -0.003263  4.002646  -0.004  -0.096196  -0.14302  -0.003643  3.968902  -0.004
C  C57  1  0.75566685  0.25369552  0.99162778  1  -0.136813  -0.006415  3.737274  -0.006  -0.148289  -0.003499  3.982469  -0.004  -0.15654  -0.003263  4.00258  -0.004  -0.096192  -0.142984  -0.003644  3.96884  -0.004
C  C58  1  0.32403085  0.68923979  0.56883369  1  0.14584  -0.005692  3.709534  -0.006  0.117033  -0.0016  3.96208  -0.002  0.127293  -0.002504  3.979526  -0.003  0.041916  0.110624  -0.000849  3.950617  -0.001
C  C59  1  0.32403216  0.68923702  0.93116535  1  0.145838  -0.005642  3.709523  -0.006  0.117024  -0.0016  3.962092  -0.002  0.127286  -0.002504  3.979535  -0.003  0.041899  0.110597  -0.000849  3.950627  -0.001
C  C60  1  0.67596403  0.31076483  0.43116252  1  0.145881  0.005704  3.70948  0.006  0.117072  0.0016  3.96207  0.002  0.127335  0.002506  3.979506  0.003  0.041919  0.110644  0.000849  3.950604  0.001
C  C61  1  0.67596564  0.31076489  0.06883809  1  0.145832  0.005684  3.709498  0.006  0.117027  0.0016  3.962085  0.002  0.127288  0.002506  3.97952  0.003  0.041922  0.1106  0.000849  3.950619  0.001
N  N62  1  0.22659593  0.42235083  0.75000026  1  -0.364306  -0.001128  3.181085  -0.001  -0.3219  -0.000794  3.451898  0.0  -0.341811  -0.00089  3.470151  -0.001  -0.324357  -0.309673  -0.000677  3.440619  0.0
N  N63  1  0.77340190  0.57764431  0.25000029  1  -0.364368  0.001174  3.18116  0.001  -0.321952  0.000794  3.452026  0.0  -0.34185  0.000892  3.470273  0.001  -0.324399  -0.309724  0.000677  3.440753  0.0
N  N64  1  0.39063027  0.03597321  0.75000055  1  -0.251283  -0.00093  3.385449  0.0  -0.169513  0.000288  3.614794  0.001  -0.191801  -0.000139  3.635833  0.001  -0.259785  -0.154236  0.000629  3.599768  0.002
N  N65  1  0.60937230  0.96402736  0.24999999  1  -0.251336  0.000935  3.38544  0.0  -0.169531  -0.000289  3.614745  -0.001  -0.191822  0.000141  3.635784  -0.001  -0.259743  -0.154247  -0.000629  3.599721  -0.002
N  N66  1  0.38033827  0.78722971  0.65077874  1  -0.380704  0.072952  3.340362  0.088  -0.328185  0.060462  3.628031  0.077  -0.360838  0.052276  3.649208  0.07  -0.352604  -0.308953  0.064526  3.615734  0.08
N  N67  1  0.38033935  0.78723103  0.84922177  1  -0.380796  0.07292  3.340555  0.088  -0.328267  0.060462  3.62816  0.077  -0.36092  0.052277  3.649332  0.07  -0.352624  -0.309034  0.064526  3.615871  0.08
N  N68  1  0.61966113  0.21276950  0.34922253  1  -0.380752  -0.072962  3.340575  -0.088  -0.328276  -0.060463  3.628252  -0.077  -0.360921  -0.052278  3.649429  -0.07  -0.352621  -0.309043  -0.064528  3.615967  -0.08
N  N69  1  0.61966109  0.21277089  0.15077733  1  -0.380767  -0.072949  3.340609  -0.088  -0.328271  -0.060463  3.628259  -0.077  -0.360915  -0.052279  3.649438  -0.07  -0.352625  -0.309035  -0.064527  3.615974  -0.08
Cl  Cl70  1  0.71039979  0.64848260  0.63245256  1  -0.520077  0.136694  0.864644  0.151  -0.514027  0.084151  1.128171  0.097  -0.545547  0.066661  1.108936  0.08  -0.324109  -0.494588  0.093438  1.141711  0.105
Cl  Cl71  1  0.71040045  0.64848257  0.86754718  1  -0.520089  0.136694  0.864669  0.151  -0.514036  0.08415  1.128195  0.097  -0.545555  0.06666  1.108958  0.08  -0.324111  -0.494598  0.093435  1.141738  0.105
Cl  Cl72  1  0.28960198  0.35151932  0.36754726  1  -0.520093  -0.136693  0.864673  -0.151  -0.514041  -0.08415  1.128177  -0.097  -0.545545  -0.066661  1.108956  -0.08  -0.324113  -0.494601  -0.093436  1.141725  -0.105
Cl  Cl73  1  0.28959947  0.35151799  0.13245336  1  -0.520074  -0.136691  0.864686  -0.151  -0.514027  -0.084149  1.1282  -0.097  -0.545532  -0.06666  1.108983  -0.08  -0.324099  -0.494587  -0.093434  1.141749  -0.105
