# generated using pymatgen
data_CoH11C13(NO3)2
_symmetry_space_group_name_H-M   'P 1'
_cell_length_a   4.96392240
_cell_length_b   10.21463772
_cell_length_c   12.89661633
_cell_angle_alpha   108.23671599
_cell_angle_beta   90.09556747
_cell_angle_gamma   97.66807825
_symmetry_Int_Tables_number   1
_chemical_formula_structural   CoH11C13(NO3)2
_chemical_formula_sum   'Co2 H22 C26 N4 O12'
_cell_volume   614.86423697
_cell_formula_units_Z   2
loop_
 _symmetry_equiv_pos_site_id
 _symmetry_equiv_pos_as_xyz
  1  'x, y, z'
loop_
 _atom_site_type_symbol
 _atom_site_label
 _atom_site_symmetry_multiplicity
 _atom_site_fract_x
 _atom_site_fract_y
 _atom_site_fract_z
 _atom_site_occupancy
 _atom_site_pbe_cm5_charge
 _atom_site_pbe_ddec_charge
 _atom_site_pbe_ddec_spin_density
 _atom_site_pbe_ddec_sum_bond_order
 _atom_site_pbe_magmom
Co  Co0  1  0.63327623  0.85516271  0.72816521  1  0.631207  0.91887  2.790576  2.31487  2.543
Co  Co1  1  0.36675869  0.14484115  0.27183473  1  0.631317  0.918995  2.790561  2.31513  2.543
H  H2  1  0.69473246  0.90122146  0.00828831  1  0.133921  0.129224  0.00031  1.017907  0.0
H  H3  1  0.30536307  0.09879851  0.99169124  1  0.133807  0.129109  0.00031  1.018123  0.0
H  H4  1  0.79435889  0.71376063  0.08289173  1  0.115917  0.129485  5.7e-05  1.012267  0.0
H  H5  1  0.20583589  0.28623226  0.91703565  1  0.115924  0.129518  5.7e-05  1.012087  0.0
H  H6  1  0.10687744  0.44958602  0.87957587  1  0.114045  0.125409  -0.0001  1.012544  0.0
H  H7  1  0.89304909  0.55046167  0.12048097  1  0.114066  0.125394  -0.0001  1.012539  0.0
H  H8  1  0.03345498  0.65002857  0.81810809  1  0.132371  0.140453  3e-06  1.046081  0.0
H  H9  1  0.96640452  0.35003538  0.18197688  1  0.13245  0.140296  3e-06  1.046005  0.0
H  H10  1  0.30293140  0.58637774  0.24496942  1  0.102818  0.109577  0.000317  1.026652  0.0
H  H11  1  0.69711233  0.41359149  0.75500364  1  0.102827  0.109596  0.000317  1.026745  0.0
H  H12  1  0.71759059  0.95979545  0.47665621  1  0.104423  0.111008  3.9e-05  1.030618  0.0
H  H13  1  0.28229262  0.04019703  0.52336212  1  0.1044  0.110912  3.9e-05  1.030508  0.0
H  H14  1  0.84598453  0.55880876  0.49553482  1  0.109599  0.120664  0.000166  1.015257  0.0
H  H15  1  0.15390133  0.44119420  0.50449459  1  0.109602  0.120789  0.000166  1.014945  0.0
H  H16  1  0.06139039  0.76570885  0.61944302  1  0.301878  0.316314  -0.000828  0.971014  0.0
H  H17  1  0.93863288  0.23421879  0.38051907  1  0.30196  0.316192  -0.000828  0.971265  0.0
H  H18  1  0.05037255  0.92440577  0.61262057  1  0.299586  0.296141  -0.000604  0.962177  -0.001
H  H19  1  0.94968467  0.07558951  0.38736510  1  0.29954  0.295987  -0.000604  0.962425  -0.001
H  H20  1  0.08412310  0.95185523  0.84522131  1  0.293351  0.385111  -0.000298  0.95589  0.0
H  H21  1  0.91593111  0.04813991  0.15474568  1  0.293431  0.385257  -0.000298  0.955727  0.0
H  H22  1  0.91315753  0.07263998  0.82300797  1  0.283698  0.373825  0.000321  0.976051  0.001
H  H23  1  0.08682000  0.92735865  0.17694443  1  0.283713  0.373895  0.000322  0.975993  0.001
C  C24  1  0.57523116  0.79855008  0.98519739  1  0.04972  -0.005083  0.008804  3.816775  0.01
C  C25  1  0.42486676  0.20147308  0.01479303  1  0.049666  -0.005118  0.008811  3.817052  0.01
C  C26  1  0.62539122  0.69182314  0.02324817  1  -0.072257  -0.140996  -0.000213  3.937936  -0.001
C  C27  1  0.37474032  0.30817979  0.97671286  1  -0.072029  -0.140713  -0.000217  3.938297  -0.001
C  C28  1  0.46731686  0.55931025  0.98417401  1  0.005713  0.080349  0.009  3.980432  0.01
C  C29  1  0.53275333  0.44069105  0.01579383  1  0.005456  0.079936  0.009008  3.981077  0.01
C  C30  1  0.24430092  0.54689354  0.91240191  1  -0.073047  -0.145491  -0.000651  3.954322  -0.001
C  C31  1  0.75569511  0.45315245  0.08762800  1  -0.072998  -0.145108  -0.000659  3.954207  -0.001
C  C32  1  0.19704362  0.65625367  0.87667649  1  0.039362  -0.040101  0.007747  3.844382  0.009
C  C33  1  0.80291594  0.34379992  0.12336345  1  0.03915  -0.04015  0.007747  3.84491  0.009
C  C34  1  0.50365534  0.40321628  0.32825926  1  0.197831  0.54131  -0.009081  4.21824  -0.007
C  C35  1  0.49628984  0.59675606  0.67176331  1  0.197814  0.54141  -0.00908  4.217222  -0.007
C  C36  1  0.57305120  0.55699356  0.36517644  1  -0.017843  -0.01752  -0.002663  4.01299  -0.002
C  C37  1  0.42685730  0.44298938  0.63484059  1  -0.017814  -0.017592  -0.002662  4.013034  -0.002
C  C38  1  0.44710388  0.63661635  0.31396799  1  -0.085017  -0.123763  0.008534  3.940157  0.01
C  C39  1  0.55287723  0.36335550  0.68602221  1  -0.08509  -0.123884  0.00853  3.940623  0.01
C  C40  1  0.51014198  0.78142457  0.35107347  1  -0.019722  -0.01912  -0.000617  3.996612  0.0
C  C41  1  0.48979898  0.21855812  0.64893836  1  -0.019729  -0.018956  -0.000614  3.99693  0.0
C  C42  1  0.68312682  0.84652973  0.44421692  1  -0.0891  -0.190882  0.006785  3.90645  0.008
C  C43  1  0.31675447  0.15346601  0.55581769  1  -0.08907  -0.190904  0.00678  3.9063  0.008
C  C44  1  0.79845322  0.76732846  0.49880849  1  0.087367  0.278342  -0.003158  4.029691  -0.003
C  C45  1  0.20149821  0.23266143  0.50120053  1  0.087354  0.27837  -0.003154  4.029644  -0.003
C  C46  1  0.75305575  0.62198883  0.45537971  1  -0.079833  -0.166108  0.005296  3.879926  0.007
C  C47  1  0.24682427  0.37800166  0.54464819  1  -0.07969  -0.166044  0.005291  3.879768  0.007
C  C48  1  0.38835321  0.86696421  0.29254170  1  0.209912  0.575843  -0.002965  4.1854  -0.002
C  C49  1  0.61164593  0.13302734  0.70745263  1  0.210029  0.575817  -0.002975  4.185372  -0.002
N  N50  1  0.36970155  0.77821774  0.90950155  1  -0.114492  0.325143  0.002546  3.915172  0.004
N  N51  1  0.63032190  0.22181027  0.09051418  1  -0.114337  0.325219  0.002543  3.915196  0.004
N  N52  1  0.93597061  0.82978181  0.60260844  1  -0.597907  -0.625813  0.028943  3.419315  0.044
N  N53  1  0.06412137  0.17019850  0.39735687  1  -0.598018  -0.625601  0.028935  3.420059  0.044
O  O54  1  0.35523055  0.87517046  0.86164279  1  -0.221382  -0.482943  0.014635  2.132481  0.022
O  O55  1  0.64479006  0.12485333  0.13836415  1  -0.221338  -0.482889  0.014618  2.132305  0.022
O  O56  1  0.29061839  0.34492937  0.26666229  1  -0.309348  -0.55269  0.031254  2.307739  0.052
O  O57  1  0.70938692  0.65504153  0.73335814  1  -0.309239  -0.552683  0.031243  2.306815  0.052
O  O58  1  0.64935839  0.32647227  0.35920283  1  -0.308072  -0.554068  0.034123  2.288206  0.055
O  O59  1  0.35059998  0.67352615  0.64083777  1  -0.308136  -0.554169  0.034109  2.288117  0.055
O  O60  1  0.17836554  0.81420438  0.23004032  1  -0.316763  -0.54953  0.00173  2.163873  0.004
O  O61  1  0.82167305  0.18579406  0.76993586  1  -0.31678  -0.549529  0.001723  2.163755  0.004
O  O62  1  0.51264534  0.99218588  0.31131518  1  -0.327118  -0.573846  0.035553  2.363402  0.056
O  O63  1  0.48736362  0.00779504  0.68866039  1  -0.327145  -0.573811  0.035552  2.36346  0.056
O  O64  1  0.90621452  0.98710805  0.84762254  1  -0.580924  -0.769203  0.034492  2.187431  0.051
O  O65  1  0.09383833  0.01290275  0.15234821  1  -0.580986  -0.769448  0.034473  2.187032  0.051
