# generated using pymatgen
data_TbH16C27N2O7
_symmetry_space_group_name_H-M   'P 1'
_cell_length_a   10.52395071
_cell_length_b   10.72275414
_cell_length_c   11.79070000
_cell_angle_alpha   76.98120502
_cell_angle_beta   83.06768786
_cell_angle_gamma   65.94331276
_symmetry_Int_Tables_number   1
_chemical_formula_structural   TbH16C27N2O7
_chemical_formula_sum   'Tb2 H32 C54 N4 O14'
_cell_volume   1183.11136334
_cell_formula_units_Z   2
loop_
 _symmetry_equiv_pos_site_id
 _symmetry_equiv_pos_as_xyz
  1  'x, y, z'
loop_
 _atom_site_type_symbol
 _atom_site_label
 _atom_site_symmetry_multiplicity
 _atom_site_fract_x
 _atom_site_fract_y
 _atom_site_fract_z
 _atom_site_occupancy
 _atom_site_hle17_bader_spin_density
 _atom_site_hle17_ddec_charge
 _atom_site_hle17_ddec_spin_density
 _atom_site_hle17_ddec_sum_bond_order
 _atom_site_hle17_magmom
 _atom_site_hse06_10hf_bader_spin_density
 _atom_site_hse06_10hf_ddec_charge
 _atom_site_hse06_10hf_ddec_spin_density
 _atom_site_hse06_10hf_ddec_sum_bond_order
 _atom_site_hse06_10hf_magmom
 _atom_site_hse06_bader_spin_density
 _atom_site_hse06_ddec_charge
 _atom_site_hse06_ddec_spin_density
 _atom_site_hse06_ddec_sum_bond_order
 _atom_site_hse06_magmom
 _atom_site_pbe_bader_charge
 _atom_site_pbe_bader_spin_density
 _atom_site_pbe_cm5_charge
 _atom_site_pbe_ddec_charge
 _atom_site_pbe_ddec_spin_density
 _atom_site_pbe_ddec_sum_bond_order
 _atom_site_pbe_magmom
Tb  Tb0  1  0.98961192  0.25098278  0.09910816  1  0  2.145306  0  1.757265  0  0  1.972555  0  2.26493  0  0  2.025749  0  2.21768  0  2.146607  0  1.529315  1.931505  0  2.303405  0
Tb  Tb1  1  0.01038746  0.74901911  0.90089254  1  0  2.145329  0  1.757188  0  0  1.972594  0  2.264831  0  0  2.025778  0  2.217585  0  2.146615  0  1.52935  1.931549  0  2.303295  0
H  H2  1  0.21156975  0.40618030  0.96659192  1  0  0.083824  0  0.969456  0  0  0.088489  0  1.039031  0  0  0.091572  0  1.035575  0  0.144192  0  0.126624  0.086417  0  1.041178  0
H  H3  1  0.78843222  0.59381743  0.03340850  1  0  0.083825  0  0.96942  0  0  0.088484  0  1.038989  0  0  0.091567  0  1.035533  0  0.144168  0  0.126631  0.086413  0  1.041135  0
H  H4  1  0.46011707  0.36172809  0.92828877  1  0  0.10455  0  0.961597  0  0  0.114491  0  1.020068  0  0  0.117751  0  1.018718  0  0.106837  0  0.107816  0.112268  0  1.020979  0
H  H5  1  0.53988354  0.63827069  0.07171074  1  0  0.104606  0  0.961591  0  0  0.114534  0  1.02007  0  0  0.117794  0  1.01872  0  0.10683  0  0.107833  0.112313  0  1.020979  0
H  H6  1  0.64166232  0.14054045  0.03637173  1  0  0.123099  0  0.942574  0  0  0.132084  0  1.002046  0  0  0.135693  0  0.999124  0  0.122552  0  0.11404  0.129401  0  1.004304  0
H  H7  1  0.35833966  0.85945729  0.96362700  1  0  0.123103  0  0.942591  0  0  0.13208  0  1.002067  0  0  0.135688  0  0.999148  0  0.122512  0  0.114057  0.129397  0  1.004326  0
H  H8  1  0.69260890  0.91537966  0.17390946  1  0  0.118417  0  0.945436  0  0  0.127614  0  1.006156  0  0  0.130782  0  1.004642  0  0.106712  0  0.109205  0.12509  0  1.00773  0
H  H9  1  0.30739171  0.08461912  0.82609004  1  0  0.118445  0  0.945439  0  0  0.127606  0  1.006195  0  0  0.130771  0  1.004691  0  0.106726  0  0.1092  0.125081  0  1.007769  0
H  H10  1  0.60842633  0.75018206  0.31140322  1  0  0.093193  0  0.973886  0  0  0.102235  0  1.039523  0  0  0.103913  0  1.041195  0  0.100426  0  0.099004  0.10128  0  1.037929  0
H  H11  1  0.39157428  0.24981671  0.68859798  1  0  0.093225  0  0.973877  0  0  0.102269  0  1.039508  0  0  0.103945  0  1.04118  0  0.100444  0  0.099019  0.101313  0  1.037915  0
H  H12  1  0.40753130  0.69439295  0.41152263  1  0  0.099213  0  0.92632  0  0  0.114131  0  0.977897  0  0  0.116885  0  0.976384  0  0.106088  0  0.111443  0.112064  0  0.979227  0
H  H13  1  0.59246931  0.30560582  0.58847773  1  0  0.099255  0  0.926302  0  0  0.114174  0  0.977877  0  0  0.116926  0  0.976365  0  0.10618  0  0.11146  0.112106  0  0.979207  0
H  H14  1  0.14884149  0.76999690  0.44523363  1  0  0.109274  0  0.947793  0  0  0.121049  0  1.004438  0  0  0.123856  0  1.00443  0  0.100377  0  0.109726  0.119005  0  1.004627  0
H  H15  1  0.85116007  0.23000187  0.55476662  1  0  0.109287  0  0.947787  0  0  0.121077  0  1.004411  0  0  0.123884  0  1.004403  0  0.10039  0  0.109732  0.119034  0  1.0046  0
H  H16  1  0.99120504  0.00009891  0.33099362  1  0  0.084904  0  0.947229  0  0  0.092067  0  1.01321  0  0  0.095139  0  1.00999  0  0.122676  0  0.121851  0.089773  0  1.01567  0
H  H17  1  0.00879598  0.99989883  0.66900690  1  0  0.084888  0  0.947222  0  0  0.092047  0  1.013225  0  0  0.09512  0  1.010002  0  0.122663  0  0.121847  0.089754  0  1.015684  0
H  H18  1  0.69979343  0.13296621  0.40304353  1  0  0.096622  0  0.952554  0  0  0.106132  0  1.01418  0  0  0.109265  0  1.012192  0  0.088877  0  0.102718  0.103847  0  1.015713  0
H  H19  1  0.30020759  0.86703153  0.59695699  1  0  0.096628  0  0.95257  0  0  0.106141  0  1.01419  0  0  0.109273  0  1.012203  0  0.088888  0  0.102727  0.103857  0  1.015722  0
H  H20  1  0.47423288  0.11652984  0.48667137  1  0  0.109461  0  0.954515  0  0  0.120463  0  1.01499  0  0  0.123837  0  1.013742  0  0.06514  0  0.104064  0.118077  0  1.015871  0
H  H21  1  0.52576473  0.88347414  0.51333163  1  0  0.109451  0  0.954486  0  0  0.120447  0  1.014974  0  0  0.123812  0  1.013738  0  0.065124  0  0.104053  0.118062  0  1.015853  0
H  H22  1  0.25093610  0.46575392  0.22330656  1  0  0.126417  0  0.946027  0  0  0.136997  0  1.003552  0  0  0.139886  0  1.002844  0  0.116986  0  0.111775  0.13489  0  1.004307  0
H  H23  1  0.74906233  0.53424797  0.77669339  1  0  0.126423  0  0.946029  0  0  0.137008  0  1.00354  0  0  0.139897  0  1.002834  0  0.117001  0  0.111787  0.134901  0  1.004296  0
H  H24  1  0.47535610  0.47913040  0.13967702  1  0  0.100834  0  0.95182  0  0  0.112466  0  1.009235  0  0  0.11586  0  1.006499  0  0.091835  0  0.10878  0.109917  0  1.011403  0
H  H25  1  0.52464410  0.52086942  0.86032317  1  0  0.100826  0  0.951798  0  0  0.112458  0  1.00922  0  0  0.115851  0  1.006486  0  0.091841  0  0.108775  0.109909  0  1.011387  0
H  H26  1  0.23129753  0.49962510  0.46843097  1  0  0.103996  0  0.961706  0  0  0.115635  0  1.020301  0  0  0.118449  0  1.020442  0  0.064797  0  0.102273  0.113569  0  1.020477  0
H  H27  1  0.76870131  0.50037576  0.53157000  1  0  0.103998  0  0.96172  0  0  0.115654  0  1.020299  0  0  0.118469  0  1.020439  0  0.064719  0  0.102274  0.113587  0  1.020476  0
H  H28  1  0.12812571  0.57566736  0.65645439  1  0  0.109681  0  0.960198  0  0  0.117613  0  1.022577  0  0  0.121311  0  1.019457  0  0.136734  0  0.109495  0.114926  0  1.024796  0
H  H29  1  0.87187463  0.42433453  0.34354790  1  0  0.109704  0  0.960192  0  0  0.117624  0  1.022577  0  0  0.12132  0  1.019461  0  0.13678  0  0.109518  0.114939  0  1.024796  0
H  H30  1  0.01609534  0.22221836  0.75939276  1  0  0.100827  0  0.949741  0  0  0.109544  0  1.011865  0  0  0.112491  0  1.009942  0  0.090265  0  0.107769  0.107238  0  1.013595  0
H  H31  1  0.98390445  0.77778249  0.24060725  1  0  0.100857  0  0.949784  0  0  0.109529  0  1.011945  0  0  0.112476  0  1.010024  0  0.090238  0  0.107762  0.107224  0  1.013676  0
H  H32  1  0.11661374  0.14758267  0.56865219  1  0  0.110167  0  0.944971  0  0  0.122598  0  1.001678  0  0  0.126143  0  0.999865  0  0.076504  0  0.107537  0.120049  0  1.003163  0
H  H33  1  0.88338372  0.85241923  0.43134787  1  0  0.110152  0  0.944982  0  0  0.122585  0  1.001689  0  0  0.126131  0  0.999875  0  0.076489  0  0.107528  0.120036  0  1.003173  0
C  C34  1  0.29002308  0.30953818  0.01029240  1  0  0.166641  0  3.674511  0  0  0.135634  0  3.932795  0  0  0.144124  0  3.948318  0  0.539361  0  0.06874  0.130161  0  3.921746  0
C  C35  1  0.70997793  0.69045955  0.98970642  1  0  0.166658  0  3.67455  0  0  0.135678  0  3.932811  0  0  0.144169  0  3.948333  0  0.539444  0  0.06876  0.130204  0  3.921762  0
C  C36  1  0.43199992  0.28392839  0.98937856  1  0  -0.10487  0  3.720005  0  0  -0.117219  0  3.973516  0  0  -0.124246  0  3.994584  0  -0.09318  0  -0.077569  -0.112389  0  3.958904  0
C  C37  1  0.56799974  0.71607038  0.01062020  1  0  -0.104951  0  3.719925  0  0  -0.117303  0  3.973443  0  0  -0.12433  0  3.994509  0  -0.093143  0  -0.077562  -0.112473  0  3.958831  0
C  C38  1  0.53059337  0.16335792  0.04796937  1  0  -0.033683  0  3.646892  0  0  -0.059453  0  3.89614  0  0  -0.056992  0  3.913596  0  0.006379  0  -0.056063  -0.060905  0  3.884251  0
C  C39  1  0.46940601  0.83664398  0.95202963  1  0  -0.033643  0  3.646822  0  0  -0.05943  0  3.896046  0  0  -0.05697  0  3.9135  0  0.006422  0  -0.056073  -0.060881  0  3.884158  0
C  C40  1  0.48592152  0.06787666  0.12721484  1  0  0.028313  0  3.773433  0  0  0.045637  0  4.004046  0  0  0.042813  0  4.028996  0  -0.012633  0  0.002591  0.047317  0  3.987331  0
C  C41  1  0.51408046  0.93212107  0.87278304  1  0  0.028219  0  3.773463  0  0  0.04563  0  4.003969  0  0  0.042808  0  4.028917  0  -0.01243  0  0.002562  0.047307  0  3.987253  0
C  C42  1  0.58167413  0.93949854  0.19001456  1  0  -0.0827  0  3.717626  0  0  -0.107188  0  3.971824  0  0  -0.109479  0  3.994658  0  0.009745  0  -0.077385  -0.10549  0  3.956656  0
C  C43  1  0.41832689  0.06049919  0.80998427  1  0  -0.082644  0  3.717637  0  0  -0.107134  0  3.971816  0  0  -0.109426  0  3.994645  0  0.009373  0  -0.07735  -0.105434  0  3.956646  0
C  C44  1  0.53497715  0.84888562  0.26512055  1  0  -0.11808  0  3.766431  0  0  -0.139582  0  4.0219  0  0  -0.144368  0  4.047222  0  -0.08775  0  -0.090658  -0.136201  0  4.004187  0
C  C45  1  0.46502400  0.15111419  0.73487953  1  0  -0.118159  0  3.766414  0  0  -0.13967  0  4.021883  0  0  -0.144456  0  4.0472  0  -0.087566  0  -0.09069  -0.136288  0  4.004169  0
C  C46  1  0.38891090  0.88144081  0.28493757  1  0  0.025311  0  3.784944  0  0  0.042942  0  4.011973  0  0  0.040508  0  4.036356  0  -0.032263  0  -0.000461  0.044435  0  3.995436  0
C  C47  1  0.61109012  0.11855693  0.71506296  1  0  0.025345  0  3.784868  0  0  0.042988  0  4.011872  0  0  0.04056  0  4.036244  0  -0.032357  0  -0.000447  0.044481  0  3.995335  0
C  C48  1  0.33538544  0.79310485  0.36414625  1  0  -0.042288  0  3.700877  0  0  -0.064234  0  3.943345  0  0  -0.061591  0  3.961518  0  -0.109291  0  -0.060855  -0.066045  0  3.931266  0
C  C49  1  0.66461613  0.20689393  0.63585400  1  0  -0.042323  0  3.700867  0  0  -0.064272  0  3.943324  0  0  -0.06163  0  3.961495  0  -0.109219  0  -0.060849  -0.066083  0  3.931245  0
C  C50  1  0.19306188  0.83418170  0.38250379  1  0  -0.126448  0  3.744516  0  0  -0.139657  0  3.997632  0  0  -0.147004  0  4.019513  0  0.027311  0  -0.085435  -0.134839  0  3.98312  0
C  C51  1  0.80693914  0.16581603  0.61749674  1  0  -0.126497  0  3.744491  0  0  -0.13971  0  3.997609  0  0  -0.147058  0  4.01949  0  0.026313  0  -0.085478  -0.134893  0  3.983097  0
C  C52  1  0.10425683  0.96239305  0.31927967  1  0  0.146195  0  3.714012  0  0  0.116749  0  3.970842  0  0  0.124252  0  3.987806  0  0.47842  0  0.059705  0.111899  0  3.959142  0
C  C53  1  0.89574419  0.03760468  0.68072086  1  0  0.146262  0  3.714  0  0  0.116795  0  3.970854  0  0  0.124298  0  3.98782  0  0.479424  0  0.059744  0.111945  0  3.959155  0
C  C54  1  0.29099219  0.00867992  0.22441445  1  0  0.155773  0  3.730707  0  0  0.150002  0  3.968656  0  0  0.155286  0  3.988085  0  0.476556  0  0.125657  0.14667  0  3.955116  0
C  C55  1  0.70900979  0.99131781  0.77558597  1  0  0.155652  0  3.730723  0  0  0.149897  0  3.968644  0  0  0.155178  0  3.988075  0  0.476483  0  0.125638  0.146566  0  3.955104  0
C  C56  1  0.34043265  0.10217366  0.14269786  1  0  0.143476  0  3.750223  0  0  0.137572  0  3.989588  0  0  0.141892  0  4.010192  0  0.501918  0  0.12319  0.134656  0  3.975586  0
C  C57  1  0.65956837  0.89782407  0.85730266  1  0  0.14356  0  3.750102  0  0  0.137634  0  3.989427  0  0  0.141952  0  4.010035  0  0.501987  0  0.12322  0.13472  0  3.975423  0
C  C58  1  0.92675300  0.00988139  0.02726081  1  0  0.546238  0  3.962901  0  0  0.506955  0  4.256109  0  0  0.536987  0  4.245861  0  1.568273  0  0.208632  0.486586  0  4.262246  0
C  C59  1  0.07324610  0.99011634  0.97273737  1  0  0.546233  0  3.962992  0  0  0.506932  0  4.256217  0  0  0.536972  0  4.24596  0  1.583727  0  0.208668  0.486563  0  4.262354  0
C  C60  1  0.73591795  0.31351427  0.21682275  1  0  0.64221  0  3.928736  0  0  0.598119  0  4.218183  0  0  0.632895  0  4.209531  0  1.562118  0  0.184454  0.574758  0  4.222931  0
C  C61  1  0.26408266  0.68648451  0.78317591  1  0  0.642237  0  3.928765  0  0  0.59814  0  4.218194  0  0  0.632914  0  4.209545  0  1.562103  0  0.184455  0.574779  0  4.222944  0
C  C62  1  0.60090928  0.30908737  0.26828722  1  0  -0.073289  0  3.760545  0  0  -0.051234  0  3.990704  0  0  -0.06104  0  4.015242  0  0.013438  0  -0.02106  -0.045118  0  3.974341  0
C  C63  1  0.39908996  0.69091245  0.73171307  1  0  -0.073348  0  3.760625  0  0  -0.051242  0  3.990716  0  0  -0.061037  0  4.015237  0  0.013397  0  -0.021047  -0.045127  0  3.974353  0
C  C64  1  0.60079816  0.20583718  0.36536918  1  0  -0.045053  0  3.750986  0  0  -0.067281  0  3.998367  0  0  -0.065627  0  4.019007  0  0.013912  0  -0.082116  -0.068007  0  3.984162  0
C  C65  1  0.39920013  0.79416264  0.63463291  1  0  -0.045001  0  3.751209  0  0  -0.067247  0  3.998566  0  0  -0.065597  0  4.019202  0  0.013872  0  -0.082102  -0.067973  0  3.984361  0
C  C66  1  0.47648444  0.19604949  0.41129151  1  0  -0.189529  0  3.7649  0  0  -0.21325  0  4.022713  0  0  -0.21949  0  4.042885  0  -0.098362  0  -0.102134  -0.209011  0  4.008881  0
C  C67  1  0.52351207  0.80395241  0.58871120  1  0  -0.189521  0  3.764861  0  0  -0.213225  0  4.022673  0  0  -0.21946  0  4.042851  0  -0.098328  0  -0.102118  -0.208987  0  4.008842  0
C  C68  1  0.35166112  0.29050106  0.35965771  1  0  0.273582  0  3.787944  0  0  0.263982  0  4.054719  0  0  0.27452  0  4.070185  0  0.400477  0  0.084081  0.256831  0  4.044207  0
C  C69  1  0.64833867  0.70949979  0.64034400  1  0  0.273511  0  3.787748  0  0  0.263922  0  4.05457  0  0  0.274461  0  4.070034  0  0.400507  0  0.084038  0.256766  0  4.044063  0
C  C70  1  0.34910522  0.39381997  0.26288207  1  0  -0.172725  0  3.727285  0  0  -0.194859  0  3.9816  0  0  -0.200474  0  4.001548  0  0.002506  0  -0.094804  -0.191367  0  3.968775  0
C  C71  1  0.65089457  0.60618089  0.73711879  1  0  -0.172715  0  3.727232  0  0  -0.194838  0  3.981547  0  0  -0.200455  0  4.001493  0  0.002271  0  -0.094823  -0.191349  0  3.968726  0
C  C72  1  0.47463658  0.40184086  0.21725668  1  0  -0.044711  0  3.741728  0  0  -0.067012  0  3.988047  0  0  -0.065425  0  4.008438  0  -0.091975  0  -0.077078  -0.068084  0  3.974721  0
C  C73  1  0.52536416  0.59816000  0.78274323  1  0  -0.044678  0  3.741644  0  0  -0.066999  0  3.987955  0  0  -0.065415  0  4.008343  0  -0.091748  0  -0.077071  -0.06807  0  3.974628  0
C  C74  1  0.17811962  0.31972358  0.50882747  1  0  0.291982  0  3.793413  0  0  0.281743  0  4.056829  0  0  0.294199  0  4.07172  0  0.396151  0  0.092039  0.27335  0  4.046576  0
C  C75  1  0.82187840  0.68027936  0.49117486  1  0  0.292016  0  3.793363  0  0  0.281884  0  4.05669  0  0  0.294337  0  4.07158  0  0.396176  0  0.092079  0.273482  0  4.046441  0
C  C76  1  0.18402398  0.43949343  0.53262534  1  0  -0.206495  0  3.775059  0  0  -0.22559  0  4.028088  0  0  -0.233496  0  4.049231  0  -0.031958  0  -0.105907  -0.220299  0  4.013798  0
C  C77  1  0.81597622  0.56050639  0.46737400  1  0  -0.206558  0  3.774989  0  0  -0.225696  0  4.028003  0  0  -0.233598  0  4.049141  0  -0.031855  0  -0.105934  -0.220401  0  4.013714  0
C  C78  1  0.12660333  0.48147503  0.63708636  1  0  -0.030999  0  3.722011  0  0  -0.053483  0  3.968299  0  0  -0.049363  0  3.985587  0  -0.078992  0  -0.07675  -0.055988  0  3.956497  0
C  C79  1  0.87339660  0.51852791  0.36291321  1  0  -0.030975  0  3.722119  0  0  -0.053433  0  3.968436  0  0  -0.049307  0  3.985719  0  -0.079088  0  -0.076757  -0.05594  0  3.956634  0
C  C80  1  0.06544449  0.40349209  0.71915645  1  0  -0.106238  0  3.751763  0  0  -0.087642  0  3.989355  0  0  -0.098213  0  4.012256  0  0.038475  0  -0.026996  -0.080804  0  3.974136  0
C  C81  1  0.93455475  0.59650772  0.28084468  1  0  -0.106223  0  3.751679  0  0  -0.087678  0  3.989314  0  0  -0.09826  0  4.01222  0  0.038506  0  -0.026993  -0.080845  0  3.974098  0
C  C82  1  0.06155060  0.28318606  0.69427056  1  0  -0.036524  0  3.746901  0  0  -0.059511  0  3.997605  0  0  -0.056039  0  4.016894  0  -0.115049  0  -0.077444  -0.061559  0  3.984682  0
C  C83  1  0.93844973  0.71681583  0.30572834  1  0  -0.036565  0  3.746961  0  0  -0.059493  0  3.997663  0  0  -0.056019  0  4.016957  0  -0.115051  0  -0.077446  -0.061541  0  3.984744  0
C  C84  1  0.11696347  0.24146371  0.58936123  1  0  -0.191738  0  3.754618  0  0  -0.213252  0  4.011447  0  0  -0.220267  0  4.030635  0  0.054972  0  -0.100914  -0.208814  0  3.998573  0
C  C85  1  0.88303536  0.75853715  0.41063805  1  0  -0.191763  0  3.75471  0  0  -0.213303  0  4.011493  0  0  -0.220316  0  4.030682  0  0.054986  0  -0.100939  -0.208862  0  3.998618  0
C  C86  1  0.00892695  0.44659187  0.83275450  1  0  0.728034  0  3.866381  0  0  0.678985  0  4.161266  0  0  0.715576  0  4.148602  0  1.570415  0  0.237307  0.654043  0  4.169218  0
C  C87  1  0.99107353  0.55341211  0.16724311  1  0  0.728114  0  3.865949  0  0  0.67909  0  4.160817  0  0  0.715685  0  4.148151  0  1.570486  0  0.237405  0.654147  0  4.16877  0
N  N88  1  0.24460867  0.22148541  0.08403095  1  0  -0.427042  0  3.240821  0  0  -0.375886  0  3.508683  0  0  -0.391691  0  3.526873  0  -1.236995  0  -0.377145  -0.364634  0  3.49597  0
N  N89  1  0.75539180  0.77851129  0.91597154  1  0  -0.427065  0  3.240852  0  0  -0.375938  0  3.508747  0  0  -0.39174  0  3.526934  0  -1.237108  0  -0.377208  -0.364687  0  3.496034  0
N  N90  1  0.15099762  0.04658341  0.24156739  1  0  -0.429552  0  3.237467  0  0  -0.378129  0  3.503909  0  0  -0.393312  0  3.521626  0  -1.246744  0  -0.377065  -0.367351  0  3.491209  0
N  N91  1  0.84900394  0.95341537  0.75843201  1  0  -0.429508  0  3.237532  0  0  -0.378084  0  3.503972  0  0  -0.393265  0  3.521688  0  -1.246817  0  -0.377067  -0.367307  0  3.491273  0
O  O92  1  0.84789889  0.23796133  0.27319268  1  0  -0.713748  0  1.972325  0  0  -0.667845  0  2.216098  0  0  -0.692872  0  2.205642  0  -1.189268  0  -0.3968  -0.650023  0  2.222464  0
O  O93  1  0.15210117  0.76203640  0.72680710  1  0  -0.713781  0  1.97229  0  0  -0.667882  0  2.216066  0  0  -0.692903  0  2.2056  0  -1.189268  0  -0.396815  -0.650063  0  2.222433  0
O  O94  1  0.73977814  0.38695162  0.11596421  1  0  -0.677743  0  1.94543  0  0  -0.629193  0  2.178903  0  0  -0.653926  0  2.170177  0  -1.170772  0  -0.375192  -0.6115  0  2.184223  0
O  O95  1  0.26022110  0.61304820  0.88403608  1  0  -0.677745  0  1.945422  0  0  -0.629209  0  2.178905  0  0  -0.653943  0  2.17018  0  -1.170756  0  -0.375185  -0.611516  0  2.184224  0
O  O96  1  0.22849179  0.27588668  0.40474425  1  0  -0.301093  0  2.296398  0  0  -0.238393  0  2.522195  0  0  -0.254627  0  2.522567  0  -1.095742  0  -0.158907  -0.226802  0  2.52132  0
O  O97  1  0.77150841  0.72411313  0.59525424  1  0  -0.301038  0  2.296424  0  0  -0.238434  0  2.522262  0  0  -0.254673  0  2.52264  0  -1.095789  0  -0.158874  -0.226834  0  2.521381  0
O  O98  1  0.00895496  0.55986713  0.84843597  1  0  -0.755436  0  2.123799  0  0  -0.704393  0  2.403356  0  0  -0.72952  0  2.389072  0  -1.206347  0  -0.418271  -0.686308  0  2.412497  0
O  O99  1  0.99104374  0.44013164  0.15156205  1  0  -0.755548  0  2.123561  0  0  -0.704507  0  2.40311  0  0  -0.729637  0  2.388825  0  -1.206313  0  -0.418361  -0.686425  0  2.41227  0
O  O100  1  0.96413438  0.36784162  0.90938886  1  0  -0.741872  0  2.021623  0  0  -0.68661  0  2.281938  0  0  -0.711759  0  2.268675  0  -1.202482  0  -0.414084  -0.668514  0  2.290608  0
O  O101  1  0.03586732  0.63215924  0.09061095  1  0  -0.741862  0  2.021627  0  0  -0.686596  0  2.281918  0  0  -0.711733  0  2.268632  0  -1.202555  0  -0.414084  -0.668497  0  2.290587  0
O  O102  1  0.87488534  0.92811480  0.01070112  1  0  -0.65696  0  2.094338  0  0  -0.614905  0  2.344629  0  0  -0.638373  0  2.338287  0  -1.177719  0  -0.365661  -0.598141  0  2.348759  0
O  O103  1  0.12511582  0.07189231  0.98929747  1  0  -0.657019  0  2.094236  0  0  -0.614941  0  2.344492  0  0  -0.638419  0  2.338157  0  -1.177724  0  -0.365726  -0.598173  0  2.34862  0
O  O104  1  0.87050140  0.10699515  0.08427360  1  0  -0.658734  0  2.063979  0  0  -0.608694  0  2.304232  0  0  -0.632452  0  2.296105  0  -1.178258  0  -0.373097  -0.591841  0  2.309529  0
O  O105  1  0.12949375  0.89301508  0.91572330  1  0  -0.65867  0  2.064217  0  0  -0.608626  0  2.30447  0  0  -0.632377  0  2.296337  0  -1.178224  0  -0.373101  -0.591776  0  2.309769  0
