# generated using pymatgen
data_Zn4H14C32O13
_symmetry_space_group_name_H-M   'P 1'
_cell_length_a   16.13024026
_cell_length_b   16.10280757
_cell_length_c   16.10772166
_cell_angle_alpha   83.47922250
_cell_angle_beta   89.85158554
_cell_angle_gamma   84.17489675
_symmetry_Int_Tables_number   1
_chemical_formula_structural   Zn4H14C32O13
_chemical_formula_sum   'Zn4 H14 C32 O13'
_cell_volume   4135.15464798
_cell_formula_units_Z   1
loop_
 _symmetry_equiv_pos_site_id
 _symmetry_equiv_pos_as_xyz
  1  'x, y, z'
loop_
 _atom_site_type_symbol
 _atom_site_label
 _atom_site_symmetry_multiplicity
 _atom_site_fract_x
 _atom_site_fract_y
 _atom_site_fract_z
 _atom_site_occupancy
 _atom_site_pbe_bader_charge
 _atom_site_pbe_bader_spin_density
 _atom_site_pbe_cm5_charge
 _atom_site_pbe_ddec_charge
 _atom_site_pbe_ddec_spin_density
 _atom_site_pbe_ddec_sum_bond_order
 _atom_site_pbe_magmom
Zn  Zn0  1  0.42905066  0.42920816  0.57085690  1  1.317634  0  0.674781  0.96604  0  2.367414  0
Zn  Zn1  1  0.57727676  0.42825657  0.43632127  1  1.307205  0  0.676742  0.970178  0  2.354074  0
Zn  Zn2  1  0.56243414  0.56384226  0.57095745  1  1.316999  0  0.673499  0.964903  0  2.369068  0
Zn  Zn3  1  0.42905783  0.57970278  0.42167892  1  1.321646  0  0.675642  0.968944  0  2.359176  0
H  H4  1  0.99194131  0.57231052  0.42683571  1  0.11924  0  0.123504  0.127885  0  0.95346  0
H  H5  1  0.66706092  0.05996661  0.62024973  1  0.0406  0  0.088233  0.116073  0  0.999937  0
H  H6  1  0.58080449  0.06079340  0.68877962  1  0.040674  0  0.089692  0.117832  0  0.999318  0
H  H7  1  0.66264204  0.97784224  0.70313116  1  0.015736  0  0.090854  0.119008  0  0.996613  0
H  H8  1  0.54110554  0.92642873  0.63713263  1  0.057493  0  0.106393  0.108454  0  0.954858  0
H  H9  1  0.62594015  0.92586649  0.56927898  1  0.070031  0  0.105931  0.107875  0  0.953303  0
H  H10  1  0.00764215  0.42859642  0.57240050  1  0.136411  0  0.129346  0.133713  0  0.945608  0
H  H11  1  0.45459268  0.42638899  0.01281131  1  0.132188  0  0.119841  0.131618  0  0.962664  0
H  H12  1  0.44243230  0.01911498  0.42850800  1  0.115493  0  0.119427  0.131922  0  0.968328  0
H  H13  1  0.51346163  0.69246081  0.04706803  1  0.086893  0  0.104819  0.107064  0  0.994064  0
H  H14  1  0.59143156  0.80510522  0.97556231  1  0.052522  0  0.103878  0.099712  0  0.990893  0
H  H15  1  0.70047549  0.77045336  0.87149071  1  0.083883  0  0.102804  0.094886  0  0.993223  0
H  H16  1  0.73031350  0.62285690  0.83861189  1  0.083142  0  0.106345  0.103593  0  0.983943  0
H  H17  1  0.65016151  0.51121217  0.90770466  1  0.057731  0  0.10566  0.107777  0  0.99613  0
C  C18  1  0.51143606  0.51243866  0.27478827  1  1.662327  0  0.237011  0.679677  0  4.237949  0
C  C19  1  0.48638836  0.48087626  0.81445640  1  0.150052  0  -0.040791  -0.202207  0  3.942455  0
C  C20  1  0.51692879  0.18316977  0.51945723  1  0.018131  0  -0.026496  -0.169298  0  3.907563  0
C  C21  1  0.48917514  0.48669674  0.72510868  1  1.62128  0  0.227936  0.673886  0  4.242885  0
C  C22  1  0.52569174  0.01834455  0.53124977  1  0.004791  0  0.026661  0.155885  0  3.986159  0
C  C23  1  0.48118318  0.98031916  0.47653722  1  0.111309  0  -0.077104  -0.153607  0  4.040183  0
C  C24  1  0.48324564  0.89295624  0.47971022  1  -0.51822  0  -0.020325  0.036358  0  4.166324  0
C  C25  1  0.52040035  0.10670050  0.52415886  1  -0.251483  0  -0.006295  -0.013453  0  4.065884  0
C  C26  1  0.48547546  0.81658594  0.48265328  1  0.228105  0  -0.044559  -0.211257  0  3.949689  0
C  C27  1  0.51183207  0.27353371  0.51299402  1  1.71023  0  0.23327  0.675021  0  4.24404  0
C  C28  1  0.48940842  0.72684967  0.48741551  1  1.662889  0  0.228302  0.676473  0  4.244864  0
C  C29  1  0.11014009  0.52017030  0.47955409  1  -0.26695  0  -0.021101  0.01431  0  4.14751  0
C  C30  1  0.72376829  0.48694591  0.51270275  1  1.72047  0  0.235412  0.676907  0  4.240619  0
C  C31  1  0.27532436  0.51193474  0.48715752  1  1.625557  0  0.231621  0.67798  0  4.238671  0
C  C32  1  0.81344123  0.48197656  0.51790065  1  0.268851  0  -0.026328  -0.174398  0  3.908287  0
C  C33  1  0.97639233  0.47533228  0.52504312  1  0.090608  0  -0.051532  -0.041613  0  4.042071  0
C  C34  1  0.02300926  0.52554541  0.47422708  1  0.098445  0  -0.061547  -0.06086  0  4.060136  0
C  C35  1  0.57581969  0.59484950  0.98088649  1  0.007378  0  -0.004794  0.06509  0  3.989652  0
C  C36  1  0.56080252  0.67759666  0.00106263  1  -0.077086  0  -0.085075  -0.124425  0  3.97083  0
C  C37  1  0.60479399  0.74061798  0.96098815  1  -0.034652  0  -0.0928  -0.08515  0  4.042181  0
C  C38  1  0.66567793  0.72121657  0.90234822  1  -0.040716  0  -0.088754  -0.081881  0  4.023412  0
C  C39  1  0.68225497  0.63856296  0.88358314  1  -0.071332  0  -0.086965  -0.076199  0  4.022838  0
C  C40  1  0.88927714  0.47954136  0.52063973  1  -0.626536  0  -0.012702  0.022682  0  4.117663  0
C  C41  1  0.63724758  0.57568443  0.92218255  1  -0.015469  0  -0.082972  -0.117271  0  3.967155  0
C  C42  1  0.58047958  0.96823594  0.59962365  1  -0.00512  0  -0.146564  -0.140225  0  3.944016  0
C  C43  1  0.62512209  0.01989225  0.65593975  1  -0.057735  0  -0.242246  -0.352743  0  3.981227  0
C  C44  1  0.18601439  0.51695613  0.48247963  1  0.050537  0  -0.038457  -0.190739  0  3.948184  0
C  C45  1  0.51606393  0.51858257  0.18495998  1  0.196043  0  -0.028541  -0.166346  0  3.910153  0
C  C46  1  0.52690893  0.52841627  0.02117676  1  0.097661  0  0.027851  0.109414  0  4.046091  0
C  C47  1  0.48873835  0.47392879  0.97773008  1  0.14121  0  -0.069677  -0.129757  0  4.01747  0
C  C48  1  0.48821996  0.47770341  0.89056583  1  -0.45908  0  -0.020301  0.033679  0  4.164819  0
C  C49  1  0.51965288  0.52291442  0.10894268  1  -0.446806  0  -0.007093  -0.015547  0  4.071925  0
O  O50  1  0.50032318  0.49956701  0.49939752  1  -1.232166  0  -0.569095  -1.037536  0  2.522839  0
O  O51  1  0.69421690  0.44121243  0.46270729  1  -1.142601  0  -0.303922  -0.529864  0  2.269669  0
O  O52  1  0.31060877  0.56352709  0.43587255  1  -1.138116  0  -0.31085  -0.540693  0  2.275542  0
O  O53  1  0.68387119  0.53665816  0.55835425  1  -1.143325  0  -0.30365  -0.530878  0  2.272973  0
O  O54  1  0.31054111  0.45619572  0.54227508  1  -1.14364  0  -0.309832  -0.537497  0  2.277477  0
O  O55  1  0.45708039  0.30909458  0.55804024  1  -1.148477  0  -0.302935  -0.530136  0  2.273825  0
O  O56  1  0.44337640  0.69673741  0.43612452  1  -1.146829  0  -0.311264  -0.539842  0  2.276313  0
O  O57  1  0.56172832  0.45559969  0.31479764  1  -1.144891  0  -0.304471  -0.531966  0  2.26895  0
O  O58  1  0.53811059  0.53741261  0.68961572  1  -1.139807  0  -0.309684  -0.537352  0  2.279416  0
O  O59  1  0.45767647  0.56425228  0.30471961  1  -1.143925  0  -0.30552  -0.533337  0  2.273988  0
O  O60  1  0.44306916  0.44081995  0.68956997  1  -1.138321  0  -0.313675  -0.543309  0  2.281121  0
O  O61  1  0.56272499  0.30825398  0.46277162  1  -1.144474  0  -0.304032  -0.532483  0  2.273457  0
O  O62  1  0.53894601  0.68550111  0.54283066  1  -1.143644  0  -0.313505  -0.542969  0  2.28008  0
