# generated using pymatgen
data_CoH20C25(N3O2)2
_symmetry_space_group_name_H-M   'P 1'
_cell_length_a   11.88329746
_cell_length_b   13.33183969
_cell_length_c   15.58345042
_cell_angle_alpha   92.61105610
_cell_angle_beta   89.99999367
_cell_angle_gamma   90.00010532
_symmetry_Int_Tables_number   1
_chemical_formula_structural   CoH20C25(N3O2)2
_chemical_formula_sum   'Co4 H80 C100 N24 O16'
_cell_volume   2466.26394995
_cell_formula_units_Z   4
loop_
 _symmetry_equiv_pos_site_id
 _symmetry_equiv_pos_as_xyz
  1  'x, y, z'
loop_
 _atom_site_type_symbol
 _atom_site_label
 _atom_site_symmetry_multiplicity
 _atom_site_fract_x
 _atom_site_fract_y
 _atom_site_fract_z
 _atom_site_occupancy
 _atom_site_pbe_bader_charge
 _atom_site_pbe_bader_spin_density
 _atom_site_pbe_cm5_charge
 _atom_site_pbe_ddec_charge
 _atom_site_pbe_ddec_spin_density
 _atom_site_pbe_ddec_sum_bond_order
 _atom_site_pbe_magmom
Co  Co0  1  0.67524194  0.94361374  0.89535645  1  1.171811  -2.548235  0.68526  0.737746  -2.771641  2.601353  -2.489
Co  Co1  1  0.67524324  0.55638716  0.60464359  1  1.171803  -2.548255  0.685201  0.737635  -2.771664  2.601427  -2.489
Co  Co2  1  0.32475755  0.05638719  0.10464316  1  1.1718  -2.548251  0.685219  0.737663  -2.771659  2.601411  -2.489
Co  Co3  1  0.32475877  0.44361301  0.39535791  1  1.171685  -2.548257  0.685219  0.737653  -2.771661  2.601407  -2.489
H  H4  1  0.97940434  0.26299378  0.09750347  1  0.110533  -2.2e-05  0.105687  0.109885  1.6e-05  1.070357  0.0
H  H5  1  0.97940429  0.23700676  0.40249435  1  0.110645  -2.2e-05  0.10568  0.109784  1.6e-05  1.070363  0.0
H  H6  1  0.02059851  0.73700638  0.90249739  1  0.110561  -2.2e-05  0.10568  0.109798  1.6e-05  1.070393  0.0
H  H7  1  0.02059520  0.76299265  0.59750648  1  0.110686  -2.2e-05  0.105688  0.10983  1.6e-05  1.070276  0.0
H  H8  1  0.62285857  0.30502363  0.13172806  1  0.048088  -5.6e-05  0.103577  0.110861  2.2e-05  1.024611  0.0
H  H9  1  0.62285759  0.19497262  0.36826639  1  0.04797  -5.6e-05  0.103589  0.11086  2.2e-05  1.024707  0.0
H  H10  1  0.37714345  0.69496828  0.86827242  1  0.048107  -5.7e-05  0.103609  0.110831  2.2e-05  1.02466  0.0
H  H11  1  0.37714105  0.80502758  0.63173127  1  0.047613  -5.7e-05  0.103605  0.110893  2.2e-05  1.024658  0.0
H  H12  1  0.85721454  0.46090836  0.30286731  1  0.043568  -7.6e-05  0.101929  0.100178  3.6e-05  1.011384  0.0
H  H13  1  0.85721496  0.03909350  0.19712930  1  0.043575  -7.6e-05  0.101912  0.100168  3.6e-05  1.011389  0.0
H  H14  1  0.14278831  0.53909259  0.69713038  1  0.043563  -7.6e-05  0.10192  0.100179  3.6e-05  1.011343  0.0
H  H15  1  0.14278958  0.96090894  0.80286974  1  0.043541  -7.6e-05  0.101953  0.1002  3.6e-05  1.011368  0.0
H  H16  1  0.04560813  0.43308879  0.37181046  1  0.114611  -0.000862  0.120141  0.116311  -0.000254  0.999412  -0.001
H  H17  1  0.04560356  0.06691020  0.12819058  1  0.115106  -0.000862  0.120191  0.116355  -0.000254  0.999463  -0.001
H  H18  1  0.95439388  0.56691439  0.62818926  1  0.11493  -0.000862  0.120168  0.116366  -0.000254  0.999444  -0.001
H  H19  1  0.95439088  0.93308697  0.87180950  1  0.114693  -0.000862  0.120148  0.116318  -0.000254  0.999488  -0.001
H  H20  1  0.31680973  0.35866674  0.20505769  1  0.205886  -0.000601  0.134495  0.100983  -5.9e-05  1.048552  0.0
H  H21  1  0.31681118  0.14133048  0.29493939  1  0.205819  -0.000601  0.134507  0.100999  -5.9e-05  1.04849  0.0
H  H22  1  0.68319060  0.64133045  0.79494046  1  0.205848  -0.000601  0.134507  0.101023  -5.9e-05  1.048524  0.0
H  H23  1  0.68318747  0.85867272  0.70505905  1  0.205798  -0.000601  0.134517  0.101063  -5.9e-05  1.048435  0.0
H  H24  1  0.63105728  0.11101759  0.05755285  1  0.096957  -0.000796  0.112538  0.112409  -0.000151  1.044055  -0.001
H  H25  1  0.63105417  0.38898234  0.44244946  1  0.096949  -0.000795  0.112541  0.112425  -0.000151  1.043998  -0.001
H  H26  1  0.36894558  0.88898035  0.94244534  1  0.096923  -0.000796  0.11252  0.112404  -0.000151  1.044024  -0.001
H  H27  1  0.36894112  0.61101555  0.55755386  1  0.096951  -0.000795  0.112543  0.112418  -0.000151  1.044072  -0.001
H  H28  1  0.86257375  0.10006690  0.85185189  1  0.135893  -0.000582  0.136827  0.097907  -1.5e-05  1.003776  0.0
H  H29  1  0.86257492  0.39993125  0.64814478  1  0.135951  -0.000582  0.136814  0.097885  -1.5e-05  1.003857  0.0
H  H30  1  0.13742995  0.89992953  0.14814687  1  0.135931  -0.000582  0.136824  0.097937  -1.5e-05  1.00383  0.0
H  H31  1  0.13742541  0.60006894  0.35185351  1  0.135925  -0.000582  0.136801  0.097839  -1.5e-05  1.003889  0.0
H  H32  1  0.49032466  0.32974046  0.25839490  1  0.152809  -0.000946  0.126235  0.131203  -0.000201  1.019771  -0.001
H  H33  1  0.49032366  0.17026157  0.24160111  1  0.152477  -0.000946  0.126233  0.131236  -0.000201  1.019728  -0.001
H  H34  1  0.50967567  0.67025746  0.74160522  1  0.152825  -0.000946  0.126252  0.131248  -0.000201  1.019782  -0.001
H  H35  1  0.50967667  0.82973864  0.75839590  1  0.152402  -0.000947  0.126265  0.131263  -0.000201  1.019727  -0.001
H  H36  1  0.52194159  0.60829410  0.39602172  1  0.172334  -0.001085  0.138761  0.108181  -0.000254  1.015191  0.0
H  H37  1  0.52193685  0.89170347  0.10398051  1  0.172311  -0.001085  0.13872  0.108165  -0.000254  1.015228  0.0
H  H38  1  0.47806295  0.39170383  0.60397711  1  0.172239  -0.001085  0.138754  0.108219  -0.000254  1.015199  0.0
H  H39  1  0.47806348  0.10829443  0.89602153  1  0.172385  -0.001085  0.13875  0.108159  -0.000254  1.015254  0.0
H  H40  1  0.48433074  0.57455096  0.90691652  1  0.058129  -5.3e-05  0.093937  0.091211  -1.2e-05  1.040335  0.0
H  H41  1  0.48433365  0.92545562  0.59308509  1  0.058084  -5.3e-05  0.093929  0.091128  -1.2e-05  1.04044  0.0
H  H42  1  0.51566875  0.42545297  0.09308387  1  0.058007  -5.3e-05  0.093954  0.091194  -1.2e-05  1.040373  0.0
H  H43  1  0.51566836  0.07455133  0.40691352  1  0.057916  -5.3e-05  0.09392  0.091128  -1.2e-05  1.040413  0.0
H  H44  1  0.53721153  0.41801276  0.82548212  1  0.04445  -1.8e-05  0.089692  0.086753  6.3e-05  1.017653  0.0
H  H45  1  0.53721119  0.08199160  0.67451745  1  0.044135  -1.8e-05  0.089696  0.086702  6.3e-05  1.017638  0.0
H  H46  1  0.46278796  0.58198588  0.17452060  1  0.044409  -1.8e-05  0.089681  0.086716  6.3e-05  1.017669  0.0
H  H47  1  0.46278577  0.91801389  0.32547789  1  0.044169  -1.8e-05  0.089714  0.086761  6.3e-05  1.017608  0.0
H  H48  1  0.72509280  0.33908019  0.85175679  1  0.048919  -1.2e-05  0.094512  0.09349  2.7e-05  1.005269  0.0
H  H49  1  0.72509515  0.16092523  0.64824280  1  0.048815  -1.1e-05  0.094487  0.093457  2.7e-05  1.005308  0.0
H  H50  1  0.27490922  0.66091996  0.14824599  1  0.048876  -1.2e-05  0.094499  0.093467  2.7e-05  1.005348  0.0
H  H51  1  0.27490097  0.83908324  0.35175460  1  0.048904  -1.2e-05  0.094499  0.093484  2.7e-05  1.005212  0.0
H  H52  1  0.85306661  0.41706225  0.96053202  1  0.090392  -2.7e-05  0.095209  0.103209  -1.1e-05  1.039283  0.0
H  H53  1  0.85307219  0.08293962  0.53946740  1  0.090266  -2.6e-05  0.095193  0.103212  -1.1e-05  1.039284  0.0
H  H54  1  0.14693120  0.58294016  0.03947023  1  0.090352  -2.7e-05  0.095213  0.103254  -1.1e-05  1.039217  0.0
H  H55  1  0.14693151  0.91706509  0.46052983  1  0.090386  -2.7e-05  0.095241  0.103268  -1.1e-05  1.039277  0.0
H  H56  1  0.64987337  0.70393170  0.07978079  1  0.02943  -0.001076  0.095889  0.113193  -0.000397  0.99913  -0.001
H  H57  1  0.64986250  0.79606984  0.42022097  1  0.029603  -0.001076  0.09588  0.113194  -0.000397  0.99908  -0.001
H  H58  1  0.35013033  0.29607000  0.92021694  1  0.029473  -0.001076  0.09586  0.113117  -0.000397  0.999151  -0.001
H  H59  1  0.35012689  0.20393408  0.57978006  1  0.029455  -0.001076  0.09586  0.113152  -0.000397  0.999122  -0.001
H  H60  1  0.51479890  0.68693246  0.03312813  1  0.064922  -0.000261  0.101009  0.119564  -2e-05  0.99824  0.0
H  H61  1  0.51479058  0.81306880  0.46687940  1  0.06479  -0.000261  0.100967  0.119521  -2e-05  0.998264  0.0
H  H62  1  0.48520312  0.31306768  0.96687529  1  0.064878  -0.000261  0.100978  0.119511  -2e-05  0.998265  0.0
H  H63  1  0.48520218  0.18693357  0.53312606  1  0.064902  -0.000261  0.101  0.119565  -2e-05  0.998236  0.0
H  H64  1  0.87923040  0.52067276  0.08337118  1  0.071198  -1.9e-05  0.09743  0.120937  -7e-06  1.004672  0.0
H  H65  1  0.87922832  0.97932319  0.41662644  1  0.071286  -1.9e-05  0.097455  0.120933  -7e-06  1.004681  0.0
H  H66  1  0.12076657  0.47932588  0.91663153  1  0.070879  -1.9e-05  0.097428  0.120913  -7e-06  1.004643  0.0
H  H67  1  0.12076949  0.02067701  0.58337185  1  0.070922  -1.9e-05  0.097468  0.120937  -7e-06  1.00465  0.0
H  H68  1  0.77773761  0.60631053  0.12227668  1  0.042002  -8e-05  0.093922  0.107487  -2.8e-05  0.995968  0.0
H  H69  1  0.77772947  0.89368447  0.37772412  1  0.042389  -8e-05  0.09397  0.107569  -2.8e-05  0.995803  0.0
H  H70  1  0.22226525  0.39368962  0.87772610  1  0.041999  -8e-05  0.09388  0.107407  -2.8e-05  0.995959  0.0
H  H71  1  0.22226329  0.10631346  0.62227471  1  0.042515  -8e-05  0.093922  0.107482  -2.8e-05  0.995946  0.0
H  H72  1  0.92703748  0.24615292  0.94992681  1  0.588453  -0.000233  0.292837  0.281113  -0.000126  1.028212  0.0
H  H73  1  0.92703500  0.25384759  0.55007061  1  0.588471  -0.000233  0.292847  0.281178  -0.000126  1.028144  0.0
H  H74  1  0.07296453  0.75384352  0.05007195  1  0.588404  -0.000233  0.292851  0.281158  -0.000126  1.028156  0.0
H  H75  1  0.07296113  0.74615109  0.44992890  1  0.588513  -0.000233  0.292823  0.281125  -0.000126  1.028208  0.0
H  H76  1  0.14101169  0.32678377  0.11898900  1  0.578808  -0.000324  0.307021  0.289545  -0.00017  1.009557  0.0
H  H77  1  0.14101152  0.17321842  0.38100897  1  0.578818  -0.000324  0.307004  0.289476  -0.00017  1.009667  0.0
H  H78  1  0.85898864  0.67321792  0.88101065  1  0.578783  -0.000324  0.307039  0.289542  -0.00017  1.009518  0.0
H  H79  1  0.85898713  0.82678327  0.61899004  1  0.578823  -0.000324  0.307028  0.289548  -0.00017  1.009541  0.0
H  H80  1  0.70830397  0.57120975  0.32317918  1  0.487486  -0.001026  0.348367  0.305885  -0.00045  0.884911  -0.001
H  H81  1  0.70830014  0.92878664  0.17682106  1  0.487497  -0.001026  0.348329  0.305849  -0.00045  0.884892  -0.001
H  H82  1  0.29170141  0.42878442  0.67682012  1  0.487471  -0.001026  0.348321  0.305861  -0.00045  0.884835  -0.001
H  H83  1  0.29170187  0.07121127  0.82317970  1  0.487537  -0.001026  0.348344  0.305854  -0.00045  0.884944  -0.001
C  C84  1  0.93183010  0.36473513  0.20322352  1  -0.053648  -9e-05  -0.00302  0.071021  0.000307  4.061132  0.0
C  C85  1  0.93183070  0.13525631  0.29677580  1  -0.053552  -9e-05  -0.003009  0.070962  0.000307  4.061216  0.0
C  C86  1  0.06817107  0.63525979  0.79677646  1  -0.053688  -9e-05  -0.002973  0.070998  0.000307  4.061182  0.0
C  C87  1  0.06816795  0.86474386  0.70322442  1  -0.053303  -9e-05  -0.003054  0.070987  0.000307  4.061228  0.0
C  C88  1  0.90973601  0.29974353  0.13188488  1  -0.019917  -0.002671  -0.088579  -0.173764  -0.001411  3.893725  -0.002
C  C89  1  0.90973336  0.20025392  0.36811024  1  -0.01987  -0.002671  -0.088554  -0.173648  -0.001411  3.893818  -0.002
C  C90  1  0.09026685  0.70025441  0.86811332  1  -0.019784  -0.002671  -0.088547  -0.173669  -0.001411  3.893923  -0.002
C  C91  1  0.09026445  0.79974473  0.63189119  1  -0.019946  -0.002671  -0.088463  -0.1736  -0.001411  3.893693  -0.002
C  C92  1  0.79920017  0.27753517  0.10598234  1  -0.02284  -4.1e-05  -0.003837  0.06785  0.000287  4.06537  0.0
C  C93  1  0.79919841  0.22246208  0.39401534  1  -0.022853  -4.1e-05  -0.003835  0.067834  0.000287  4.065336  0.0
C  C94  1  0.20080269  0.72245824  0.89401757  1  -0.022587  -4.1e-05  -0.003765  0.067876  0.000287  4.065373  0.0
C  C95  1  0.20079940  0.77753660  0.60598416  1  -0.022707  -4.1e-05  -0.003882  0.067856  0.000287  4.065344  0.0
C  C96  1  0.70911579  0.32190113  0.15142357  1  0.075216  -0.001892  -0.085413  -0.168429  -0.000927  3.906554  -0.001
C  C97  1  0.70911394  0.17809823  0.34857422  1  0.075098  -0.001892  -0.085429  -0.168384  -0.000927  3.906538  -0.001
C  C98  1  0.29088623  0.67809074  0.84858011  1  0.074537  -0.001892  -0.085566  -0.168448  -0.000927  3.906605  -0.001
C  C99  1  0.29088387  0.82190423  0.65142290  1  0.075356  -0.001892  -0.085514  -0.168527  -0.000927  3.906458  -0.001
C  C100  1  0.72997791  0.38962304  0.22142829  1  -0.047358  7e-05  -0.009254  0.054749  0.000337  4.079468  0.0
C  C101  1  0.72997677  0.11037709  0.27857082  1  -0.047401  7e-05  -0.009236  0.05472  0.000337  4.079519  0.0
C  C102  1  0.27002243  0.61037260  0.77857429  1  -0.046955  7e-05  -0.009179  0.054851  0.000337  4.079592  0.0
C  C103  1  0.27002272  0.88962461  0.72142755  1  -0.047479  6.9e-05  -0.009187  0.054871  0.000337  4.079446  0.0
C  C104  1  0.84089495  0.41071316  0.24694435  1  0.02279  -0.003862  -0.089458  -0.178978  -0.002008  3.943576  -0.002
C  C105  1  0.84089378  0.08928491  0.25305401  1  0.022837  -0.003862  -0.089488  -0.178978  -0.002008  3.943548  -0.002
C  C106  1  0.15910791  0.58928553  0.75305452  1  0.022773  -0.003861  -0.089491  -0.179023  -0.002008  3.943682  -0.002
C  C107  1  0.15910740  0.91071527  0.74694621  1  0.022653  -0.003862  -0.089535  -0.179111  -0.002008  3.943642  -0.002
C  C108  1  0.04689813  0.37908263  0.23380875  1  0.366959  -0.007443  0.085989  0.107056  -0.003915  3.994184  -0.005
C  C109  1  0.04689786  0.12091864  0.26619047  1  0.366775  -0.007443  0.085982  0.107183  -0.003914  3.994136  -0.005
C  C110  1  0.95310388  0.62092130  0.76619100  1  0.367139  -0.007443  0.086007  0.107073  -0.003915  3.993991  -0.005
C  C111  1  0.95310163  0.87908229  0.73380979  1  0.366833  -0.007443  0.085996  0.107126  -0.003914  3.994005  -0.005
C  C112  1  0.09003181  0.41147640  0.31305848  1  0.445338  -0.000594  -0.000143  -0.089121  0.000108  3.956772  -0.001
C  C113  1  0.09002812  0.08852418  0.18694135  1  0.444766  -0.000595  -0.000224  -0.089294  0.000108  3.95692  -0.001
C  C114  1  0.90997189  0.58852529  0.68694117  1  0.444678  -0.000595  -0.000231  -0.089278  0.000107  3.956702  -0.001
C  C115  1  0.90996885  0.91147901  0.81305773  1  0.445318  -0.000595  -0.00015  -0.089117  0.000107  3.956767  -0.001
C  C116  1  0.23310907  0.37219710  0.23052805  1  0.997125  -0.007562  0.15325  0.175314  -0.004584  3.909597  -0.006
C  C117  1  0.23310881  0.12780146  0.26947231  1  0.997462  -0.00756  0.153281  0.175379  -0.004584  3.909493  -0.006
C  C118  1  0.76689295  0.62780231  0.76947342  1  0.997589  -0.007561  0.153225  0.175209  -0.004584  3.909642  -0.006
C  C119  1  0.76688984  0.87219797  0.73052787  1  0.997858  -0.00756  0.153201  0.175201  -0.004584  3.909617  -0.006
C  C120  1  0.78161155  0.20587832  0.03334018  1  0.412996  -0.006537  0.085358  0.109903  -0.003365  4.000054  -0.005
C  C121  1  0.78160992  0.29412039  0.46665886  1  0.413235  -0.006536  0.085353  0.10997  -0.003365  3.999988  -0.005
C  C122  1  0.21839047  0.79411884  0.96666054  1  0.413111  -0.006537  0.085325  0.109964  -0.003365  4.000026  -0.005
C  C123  1  0.21838704  0.70587903  0.53334133  1  0.41301  -0.006537  0.085391  0.109933  -0.003365  3.9999  -0.005
C  C124  1  0.70223620  0.13084931  0.01826653  1  0.332429  -0.001113  -0.010402  -0.093828  -4.6e-05  3.948053  -0.002
C  C125  1  0.70223472  0.36914925  0.48173443  1  0.332451  -0.001113  -0.010426  -0.093887  -4.6e-05  3.94806  -0.002
C  C126  1  0.29776666  0.86914862  0.98173294  1  0.332474  -0.001113  -0.010396  -0.093908  -4.6e-05  3.94805  -0.002
C  C127  1  0.29776308  0.63084865  0.51826761  1  0.332445  -0.001113  -0.010456  -0.093923  -4.7e-05  3.948053  -0.002
C  C128  1  0.82097841  0.12186611  0.91177412  1  0.983111  -0.004752  0.138785  0.145354  -0.002993  3.960149  -0.004
C  C129  1  0.82098038  0.37813349  0.58822263  1  0.983001  -0.004751  0.13876  0.145287  -0.002993  3.960265  -0.004
C  C130  1  0.17902445  0.87813108  0.08822468  1  0.982963  -0.004751  0.138726  0.145185  -0.002993  3.960172  -0.004
C  C131  1  0.17901995  0.62186519  0.41177688  1  0.983  -0.004752  0.138838  0.14541  -0.002993  3.960248  -0.004
C  C132  1  0.63548566  0.43493130  0.26848955  1  0.344217  -0.005066  0.089516  0.111772  -0.002657  4.00172  -0.004
C  C133  1  0.63548612  0.06506641  0.23151010  1  0.344179  -0.005066  0.089548  0.111766  -0.002657  4.001816  -0.004
C  C134  1  0.36451467  0.56506437  0.73150982  1  0.344112  -0.005066  0.08951  0.111716  -0.002657  4.001936  -0.004
C  C135  1  0.36451674  0.93493301  0.76849009  1  0.344287  -0.005067  0.089542  0.11184  -0.002657  4.0018  -0.004
C  C136  1  0.52814000  0.39942830  0.28186686  1  0.39026  -0.000921  0.010795  -0.069731  0.000112  3.92641  -0.001
C  C137  1  0.52813969  0.10057075  0.21813285  1  0.390381  -0.000921  0.010813  -0.069718  0.000112  3.926266  -0.001
C  C138  1  0.47185865  0.60057038  0.71813264  1  0.390399  -0.000921  0.010815  -0.069707  0.000112  3.9264  -0.001
C  C139  1  0.47186232  0.89942718  0.78186726  1  0.3904  -0.000921  0.010775  -0.069828  0.000112  3.926375  -0.001
C  C140  1  0.53930960  0.54346871  0.35384856  1  0.97008  -0.006597  0.146302  0.150225  -0.004351  3.950318  -0.006
C  C141  1  0.53930583  0.95652966  0.14615178  1  0.969851  -0.006597  0.146371  0.150215  -0.004352  3.950197  -0.006
C  C142  1  0.46069663  0.45652695  0.64615209  1  0.969872  -0.006596  0.146294  0.150132  -0.004351  3.950276  -0.006
C  C143  1  0.46069618  0.04346824  0.85385026  1  0.969823  -0.006597  0.146349  0.150234  -0.004352  3.950302  -0.006
C  C144  1  0.56611272  0.54051520  0.91785628  1  -0.023822  -0.000747  -0.096901  -0.135619  -0.000403  4.009546  0.0
C  C145  1  0.56611318  0.95948777  0.58214388  1  -0.023902  -0.000747  -0.09679  -0.135447  -0.000403  4.00954  0.0
C  C146  1  0.43388846  0.45948497  0.08214394  1  -0.023801  -0.000747  -0.096869  -0.135528  -0.000403  4.009506  0.0
C  C147  1  0.43388631  0.04051542  0.41785520  1  -0.023461  -0.000747  -0.096852  -0.135429  -0.000403  4.009508  0.0
C  C148  1  0.59549505  0.45197624  0.87242707  1  -0.148891  -0.000145  -0.105413  -0.099705  1.8e-05  4.068073  0.0
C  C149  1  0.59549885  0.04802744  0.62757438  1  -0.14891  -0.000145  -0.105472  -0.09971  1.8e-05  4.067809  0.0
C  C150  1  0.40450444  0.54802543  0.12757386  1  -0.148895  -0.000145  -0.105435  -0.099748  1.8e-05  4.068015  0.0
C  C151  1  0.40450316  0.95197800  0.37242480  1  -0.148734  -0.000145  -0.105451  -0.099801  1.8e-05  4.068009  0.0
C  C152  1  0.69981790  0.40783466  0.88730500  1  0.009693  -0.00069  -0.104236  -0.09411  -0.000332  4.051146  0.0
C  C153  1  0.69982096  0.09216995  0.61269648  1  0.010004  -0.00069  -0.104203  -0.094037  -0.000332  4.050963  0.0
C  C154  1  0.30018244  0.59216548  0.11269843  1  0.009666  -0.00069  -0.104243  -0.094038  -0.000332  4.05105  0.0
C  C155  1  0.30017854  0.90783775  0.38730280  1  0.009677  -0.00069  -0.104256  -0.094096  -0.000332  4.050971  0.0
C  C156  1  0.77162797  0.45170819  0.94899888  1  -0.07954  -0.000206  -0.100751  -0.139304  -9.7e-05  3.9821  0.0
C  C157  1  0.77163095  0.04829356  0.55099926  1  -0.079392  -0.000206  -0.100759  -0.139369  -9.7e-05  3.982052  0.0
C  C158  1  0.22837068  0.54829348  0.05100205  1  -0.079528  -0.000206  -0.100777  -0.139447  -9.7e-05  3.98204  0.0
C  C159  1  0.22837107  0.95171115  0.44899796  1  -0.079635  -0.000206  -0.100748  -0.139316  -9.7e-05  3.982043  0.0
C  C160  1  0.74241563  0.54022329  0.99598830  1  0.008329  -0.000795  -0.014438  0.081756  -0.000376  3.936301  0.0
C  C161  1  0.74241526  0.95977998  0.50401056  1  0.008432  -0.000795  -0.014409  0.081813  -0.000376  3.936021  0.0
C  C162  1  0.25758470  0.45978064  0.00401209  1  0.008498  -0.000795  -0.014381  0.081814  -0.000376  3.936294  0.0
C  C163  1  0.25758255  0.04022546  0.49598926  1  0.008464  -0.000795  -0.014426  0.081714  -0.000376  3.936235  0.0
C  C164  1  0.63903360  0.58677032  0.97823269  1  -0.036381  -0.001402  -0.012753  0.083463  -0.000691  3.925162  -0.001
C  C165  1  0.63902976  0.91323350  0.52176878  1  -0.036248  -0.001402  -0.012817  0.083446  -0.000691  3.925136  -0.001
C  C166  1  0.36096926  0.41323438  0.02176581  1  -0.0363  -0.001403  -0.012821  0.083405  -0.000691  3.925209  -0.001
C  C167  1  0.36096468  0.08677117  0.47823230  1  -0.03637  -0.001403  -0.012767  0.083441  -0.000691  3.925181  -0.001
C  C168  1  0.60583929  0.68697726  0.01903778  1  -0.036021  -0.0029  -0.16114  -0.335719  -0.001722  3.951967  -0.002
C  C169  1  0.60583097  0.81302722  0.48096412  1  -0.036028  -0.0029  -0.16108  -0.335616  -0.001722  3.951863  -0.002
C  C170  1  0.39416273  0.31302594  0.98096130  1  -0.036029  -0.0029  -0.161035  -0.335506  -0.001722  3.951947  -0.002
C  C171  1  0.39416179  0.18697746  0.51903631  1  -0.036033  -0.0029  -0.1611  -0.335689  -0.001722  3.951978  -0.002
C  C172  1  0.62618803  0.77323809  0.95977472  1  1.535949  -0.003229  0.204061  0.625816  -0.002472  4.128621  -0.001
C  C173  1  0.62618802  0.72676570  0.54022739  1  1.535738  -0.00323  0.203925  0.625456  -0.002472  4.128738  -0.001
C  C174  1  0.37380978  0.22676360  0.04022429  1  1.535955  -0.003228  0.204016  0.625675  -0.002472  4.128713  -0.001
C  C175  1  0.37381063  0.27323746  0.45977425  1  1.535925  -0.003228  0.204021  0.625669  -0.002471  4.128583  -0.001
C  C176  1  0.82301711  0.58067003  0.06354033  1  -0.052668  -0.000127  -0.167217  -0.345416  -6.8e-05  3.96847  0.0
C  C177  1  0.82301406  0.91932430  0.43645915  1  -0.053142  -0.000127  -0.167238  -0.345529  -6.9e-05  3.968305  0.0
C  C178  1  0.17698154  0.41932862  0.93646174  1  -0.052449  -0.000127  -0.167149  -0.345245  -6.9e-05  3.968277  0.0
C  C179  1  0.17698206  0.08067438  0.56353972  1  -0.052942  -0.000127  -0.167209  -0.345329  -6.9e-05  3.968429  0.0
C  C180  1  0.89728278  0.66942926  0.03891549  1  1.592238  -6.2e-05  0.20052  0.62592  -5.4e-05  4.168796  0.0
C  C181  1  0.89728208  0.83056745  0.46108410  1  1.591844  -6.2e-05  0.200472  0.625962  -5.4e-05  4.168902  0.0
C  C182  1  0.10271923  0.33056566  0.96108385  1  1.591943  -6.2e-05  0.200528  0.625951  -5.4e-05  4.168901  0.0
C  C183  1  0.10271489  0.16943349  0.53891551  1  1.591833  -6.2e-05  0.200418  0.625811  -5.4e-05  4.169087  0.0
N  N184  1  0.72856041  0.07775060  0.94257400  1  -1.231802  -0.069788  -0.374365  -0.323346  -0.036448  3.662275  -0.045
N  N185  1  0.72856417  0.42225033  0.55742410  1  -1.231833  -0.069785  -0.374343  -0.323238  -0.036446  3.662347  -0.045
N  N186  1  0.27143992  0.92224960  0.05742429  1  -1.231842  -0.069784  -0.374323  -0.323195  -0.036445  3.66218  -0.045
N  N187  1  0.27143617  0.57774910  0.44257544  1  -1.231783  -0.069783  -0.37434  -0.323228  -0.036445  3.662308  -0.045
N  N188  1  0.85579458  0.19769886  0.96484690  1  -1.296666  -0.003521  -0.359733  -0.239827  -0.001272  3.607413  -0.002
N  N189  1  0.85579388  0.30229928  0.53515042  1  -1.296812  -0.00352  -0.35971  -0.239916  -0.001271  3.607305  -0.002
N  N190  1  0.14420912  0.80229681  0.03515247  1  -1.296682  -0.00352  -0.359674  -0.239809  -0.001271  3.60733  -0.002
N  N191  1  0.14420477  0.69769941  0.46484845  1  -1.296638  -0.00352  -0.359742  -0.239897  -0.001272  3.607348  -0.002
N  N192  1  0.14006080  0.35424707  0.18378486  1  -1.306894  -0.005715  -0.364691  -0.232363  -0.002356  3.609681  -0.003
N  N193  1  0.14005974  0.14575435  0.31621436  1  -1.306945  -0.005715  -0.364692  -0.232355  -0.002356  3.609672  -0.003
N  N194  1  0.85994121  0.64575461  0.81621479  1  -1.306976  -0.005716  -0.364686  -0.232225  -0.002356  3.60953  -0.003
N  N195  1  0.85993891  0.85424735  0.68378401  1  -1.306905  -0.005716  -0.364651  -0.232342  -0.002357  3.60956  -0.003
N  N196  1  0.20626806  0.40717605  0.30995799  1  -1.291723  -0.074755  -0.372038  -0.313173  -0.038608  3.659013  -0.049
N  N197  1  0.20626354  0.09282546  0.19004251  1  -1.291605  -0.074756  -0.372009  -0.313127  -0.038609  3.65905  -0.049
N  N198  1  0.79373564  0.59282561  0.69004294  1  -1.292057  -0.074756  -0.372  -0.3131  -0.038607  3.659023  -0.049
N  N199  1  0.79373259  0.90717547  0.80995710  1  -1.292061  -0.074755  -0.372045  -0.313211  -0.038608  3.65908  -0.049
N  N200  1  0.63981536  0.52642573  0.31490170  1  -1.257726  -0.004526  -0.374108  -0.254411  -0.001785  3.654703  -0.002
N  N201  1  0.63981246  0.97357358  0.18509675  1  -1.257687  -0.004526  -0.374145  -0.254397  -0.001785  3.654525  -0.002
N  N202  1  0.36018918  0.47356995  0.68509767  1  -1.257617  -0.004526  -0.374129  -0.254438  -0.001785  3.654516  -0.002
N  N203  1  0.36018955  0.02642583  0.81490472  1  -1.257683  -0.004527  -0.374137  -0.254453  -0.001785  3.654637  -0.002
N  N204  1  0.46998869  0.46675882  0.33537622  1  -1.229327  -0.068511  -0.36581  -0.309758  -0.035658  3.686506  -0.045
N  N205  1  0.46998489  0.03323936  0.16462474  1  -1.229222  -0.068512  -0.365815  -0.309757  -0.03566  3.686433  -0.045
N  N206  1  0.53001500  0.53323833  0.66462514  1  -1.229195  -0.068511  -0.365778  -0.309709  -0.035659  3.686505  -0.045
N  N207  1  0.53001544  0.96675854  0.83537730  1  -1.229282  -0.068515  -0.365854  -0.309743  -0.03566  3.686404  -0.045
O  O208  1  0.61145390  0.76270539  0.88020365  1  -1.156042  -0.047345  -0.304174  -0.545193  -0.023178  2.195207  -0.04
O  O209  1  0.61145389  0.73729612  0.61979964  1  -1.155956  -0.047343  -0.304069  -0.544923  -0.023177  2.195042  -0.04
O  O210  1  0.38854391  0.23729704  0.11979668  1  -1.156014  -0.047347  -0.304119  -0.545085  -0.023179  2.195152  -0.04
O  O211  1  0.38854307  0.26270480  0.38020125  1  -1.156089  -0.04735  -0.304134  -0.545051  -0.02318  2.195085  -0.04
O  O212  1  0.65470293  0.85966394  0.99538508  1  -1.145739  -0.108717  -0.338515  -0.561572  -0.055274  2.295707  -0.082
O  O213  1  0.65470190  0.64033917  0.50461571  1  -1.145573  -0.108711  -0.338467  -0.561486  -0.055273  2.295702  -0.082
O  O214  1  0.34529488  0.14033775  0.00461392  1  -1.145681  -0.10871  -0.338497  -0.561523  -0.055272  2.295727  -0.082
O  O215  1  0.34529507  0.35966099  0.49538579  1  -1.145543  -0.108702  -0.338504  -0.561541  -0.055272  2.295707  -0.082
O  O216  1  0.86811073  0.72213900  0.97687530  1  -1.202345  -0.000593  -0.335579  -0.573379  -0.000104  2.213074  0.0
O  O217  1  0.86811166  0.77785769  0.52312518  1  -1.202219  -0.000593  -0.335596  -0.573421  -0.000104  2.213061  0.0
O  O218  1  0.13188960  0.27785743  0.02312347  1  -1.202239  -0.000593  -0.335605  -0.573426  -0.000104  2.213155  0.0
O  O219  1  0.13188530  0.22214397  0.47687640  1  -1.202224  -0.000593  -0.335606  -0.573414  -0.000104  2.213169  0.0
O  O220  1  0.98481405  0.68444767  0.08483983  1  -1.203956  -0.00076  -0.34788  -0.571506  -0.000366  2.164162  -0.001
O  O221  1  0.98480827  0.81554697  0.41515580  1  -1.203764  -0.00076  -0.347853  -0.571511  -0.000366  2.164189  -0.001
O  O222  1  0.01518964  0.31554579  0.91515622  1  -1.203775  -0.00076  -0.347887  -0.571533  -0.000366  2.164193  -0.001
O  O223  1  0.01518533  0.18445098  0.58484175  1  -1.203669  -0.00076  -0.347805  -0.571424  -0.000365  2.164226  -0.001
