# generated using pymatgen
data_CuH6C5N2Cl
_symmetry_space_group_name_H-M   'P 1'
_cell_length_a   3.85913682
_cell_length_b   12.24945375
_cell_length_c   12.79368210
_cell_angle_alpha   90.00028715
_cell_angle_beta   89.99918308
_cell_angle_gamma   97.54301112
_symmetry_Int_Tables_number   1
_chemical_formula_structural   CuH6C5N2Cl
_chemical_formula_sum   'Cu4 H24 C20 N8 Cl4'
_cell_volume   599.55354289
_cell_formula_units_Z   4
loop_
 _symmetry_equiv_pos_site_id
 _symmetry_equiv_pos_as_xyz
  1  'x, y, z'
loop_
 _atom_site_type_symbol
 _atom_site_label
 _atom_site_symmetry_multiplicity
 _atom_site_fract_x
 _atom_site_fract_y
 _atom_site_fract_z
 _atom_site_occupancy
 _atom_site_hle17_bader_spin_density
 _atom_site_hle17_ddec_charge
 _atom_site_hle17_ddec_spin_density
 _atom_site_hle17_ddec_sum_bond_order
 _atom_site_hle17_magmom
 _atom_site_hse06_10hf_bader_spin_density
 _atom_site_hse06_10hf_ddec_charge
 _atom_site_hse06_10hf_ddec_spin_density
 _atom_site_hse06_10hf_ddec_sum_bond_order
 _atom_site_hse06_10hf_magmom
 _atom_site_hse06_bader_spin_density
 _atom_site_hse06_ddec_charge
 _atom_site_hse06_ddec_spin_density
 _atom_site_hse06_ddec_sum_bond_order
 _atom_site_hse06_magmom
 _atom_site_pbe_bader_spin_density
 _atom_site_pbe_cm5_charge
 _atom_site_pbe_ddec_charge
 _atom_site_pbe_ddec_spin_density
 _atom_site_pbe_ddec_sum_bond_order
 _atom_site_pbe_magmom
Cu  Cu0  1  0.56175054  0.83303435  0.69769819  1  0  0.466735  0  1.926213  0  0  0.363757  0  2.399058  0  0  0.352604  0  2.36364  0  0  0.473135  0.373999  0  2.420266  0
Cu  Cu1  1  0.56174699  0.33304106  0.80230259  1  0  0.466828  0  1.926021  0  0  0.363823  0  2.398911  0  0  0.352691  0  2.363488  0  0  0.473102  0.374046  0  2.420141  0
Cu  Cu2  1  0.43825176  0.16695531  0.30230412  1  0  0.46672  0  1.926032  0  0  0.363728  0  2.398905  0  0  0.352604  0  2.363488  0  0  0.473086  0.373966  0  2.420117  0
Cu  Cu3  1  0.43826292  0.66695521  0.19769581  1  0  0.466706  0  1.926066  0  0  0.363707  0  2.398942  0  0  0.352627  0  2.363542  0  0  0.473058  0.373956  0  2.420187  0
H  H4  1  0.27224008  0.91837732  0.50559090  1  0  0.095234  0  0.954695  0  0  0.100378  0  1.023623  0  0  0.103674  0  1.021204  0  0  0.110648  0.097929  0  1.025559  0
H  H5  1  0.27224023  0.41837657  0.99441385  1  0  0.095094  0  0.954736  0  0  0.10034  0  1.023557  0  0  0.103635  0  1.021135  0  0  0.110614  0.0979  0  1.025509  0
H  H6  1  0.72775209  0.08162708  0.49441220  1  0  0.09514  0  0.954799  0  0  0.1004  0  1.023575  0  0  0.103696  0  1.021153  0  0  0.11062  0.097951  0  1.02551  0
H  H7  1  0.72776600  0.58162380  0.00558846  1  0  0.095108  0  0.954721  0  0  0.10036  0  1.023513  0  0  0.103657  0  1.021092  0  0  0.110614  0.09792  0  1.025463  0
H  H8  1  0.26392328  0.86914618  0.31701257  1  0  0.092567  0  0.979084  0  0  0.099624  0  1.046073  0  0  0.102673  0  1.044473  0  0  0.105237  0.097233  0  1.047676  0
H  H9  1  0.26393717  0.36914265  0.18298903  1  0  0.092532  0  0.979141  0  0  0.099625  0  1.046081  0  0  0.102669  0  1.044483  0  0  0.105227  0.097237  0  1.047687  0
H  H10  1  0.73608126  0.13085664  0.68298975  1  0  0.092615  0  0.9791  0  0  0.099632  0  1.046118  0  0  0.102675  0  1.044522  0  0  0.105246  0.097239  0  1.047718  0
H  H11  1  0.73608832  0.63085370  0.81700859  1  0  0.092615  0  0.97905  0  0  0.099637  0  1.046068  0  0  0.102682  0  1.044472  0  0  0.105256  0.097249  0  1.047673  0
H  H12  1  0.73820765  0.59104720  0.38585194  1  0  0.091451  0  0.980661  0  0  0.099581  0  1.046254  0  0  0.102911  0  1.044332  0  0  0.104908  0.097098  0  1.047933  0
H  H13  1  0.73819705  0.09104576  0.11414403  1  0  0.091457  0  0.980692  0  0  0.099564  0  1.046295  0  0  0.102893  0  1.044374  0  0  0.104901  0.097079  0  1.04797  0
H  H14  1  0.26179093  0.40896052  0.61414882  1  0  0.091492  0  0.980704  0  0  0.09959  0  1.04632  0  0  0.102921  0  1.044396  0  0  0.104918  0.097107  0  1.048001  0
H  H15  1  0.26179680  0.90895619  0.88585125  1  0  0.091406  0  0.980634  0  0  0.09955  0  1.046226  0  0  0.102881  0  1.044303  0  0  0.104868  0.097064  0  1.0479  0
H  H16  1  0.87408324  0.54873081  0.56518694  1  0  0.11443  0  0.95453  0  0  0.137224  0  1.013127  0  0  0.137847  0  1.014294  0  0  0.089684  0.136745  0  1.012368  0
H  H17  1  0.87409193  0.04873151  0.93480887  1  0  0.114417  0  0.954523  0  0  0.1372  0  1.013131  0  0  0.137825  0  1.014294  0  0  0.089658  0.136696  0  1.012405  0
H  H18  1  0.12591031  0.45127032  0.43481225  1  0  0.114445  0  0.954489  0  0  0.137218  0  1.013108  0  0  0.137841  0  1.014275  0  0  0.089678  0.136713  0  1.012381  0
H  H19  1  0.12589643  0.95126959  0.06518719  1  0  0.114454  0  0.954521  0  0  0.137223  0  1.013143  0  0  0.13785  0  1.014304  0  0  0.089679  0.136717  0  1.01241  0
H  H20  1  0.55513813  0.58518509  0.65434968  1  0  0.127284  0  0.959382  0  0  0.146541  0  1.026002  0  0  0.148631  0  1.025317  0  0  0.092371  0.144905  0  1.026584  0
H  H21  1  0.55514483  0.08518297  0.84564844  1  0  0.1273  0  0.959376  0  0  0.14655  0  1.025995  0  0  0.148641  0  1.02531  0  0  0.092368  0.144915  0  1.026568  0
H  H22  1  0.44485343  0.41481767  0.34565029  1  0  0.127307  0  0.959362  0  0  0.146562  0  1.02599  0  0  0.148653  0  1.025305  0  0  0.092381  0.144925  0  1.026569  0
H  H23  1  0.44484292  0.91481648  0.15435153  1  0  0.127337  0  0.959398  0  0  0.146613  0  1.025986  0  0  0.148705  0  1.025301  0  0  0.092391  0.144977  0  1.026562  0
H  H24  1  0.97043571  0.66620247  0.64754015  1  0  0.118436  0  0.970927  0  0  0.126315  0  1.061427  0  0  0.132032  0  1.054005  0  0  0.089268  0.122227  0  1.066326  0
H  H25  1  0.97044071  0.16620366  0.85245657  1  0  0.118434  0  0.970881  0  0  0.126312  0  1.061363  0  0  0.132015  0  1.053974  0  0  0.089292  0.12223  0  1.066258  0
H  H26  1  0.02956304  0.33379868  0.35246138  1  0  0.118458  0  0.970907  0  0  0.126346  0  1.061402  0  0  0.132061  0  1.053981  0  0  0.089281  0.122259  0  1.066296  0
H  H27  1  0.02954674  0.83379497  0.14754028  1  0  0.118412  0  0.970936  0  0  0.126283  0  1.061428  0  0  0.131978  0  1.05406  0  0  0.089271  0.122203  0  1.066322  0
C  C28  1  0.37739068  0.84493771  0.47871865  1  0  0.088339  0  3.659612  0  0  0.05468  0  3.917009  0  0  0.059948  0  3.927783  0  0  0.040322  0.050863  0  3.910561  0
C  C29  1  0.37739475  0.34493598  0.02128314  1  0  0.088486  0  3.65949  0  0  0.054707  0  3.916906  0  0  0.059976  0  3.927676  0  0  0.040315  0.050854  0  3.910485  0
C  C30  1  0.62260118  0.15506587  0.52128288  1  0  0.088243  0  3.659573  0  0  0.054452  0  3.917042  0  0  0.059719  0  3.927821  0  0  0.04029  0.050636  0  3.910591  0
C  C31  1  0.62260140  0.65506516  0.97871918  1  0  0.088377  0  3.6596  0  0  0.054652  0  3.916967  0  0  0.059918  0  3.927746  0  0  0.04033  0.050836  0  3.910566  0
C  C32  1  0.37297372  0.81684626  0.37370583  1  0  0.070097  0  3.666524  0  0  0.037678  0  3.926307  0  0  0.041185  0  3.938048  0  0  0.034918  0.034962  0  3.919147  0
C  C33  1  0.37298473  0.31684168  0.12629507  1  0  0.070185  0  3.666484  0  0  0.037769  0  3.92627  0  0  0.041283  0  3.938004  0  0  0.035002  0.035047  0  3.919127  0
C  C34  1  0.62703143  0.18315821  0.62629805  1  0  0.070159  0  3.666505  0  0  0.037838  0  3.926243  0  0  0.041347  0  3.937982  0  0  0.035039  0.035126  0  3.919073  0
C  C35  1  0.62703648  0.68315711  0.87370412  1  0  0.070068  0  3.666435  0  0  0.037711  0  3.926207  0  0  0.041218  0  3.937946  0  0  0.034944  0.034992  0  3.919057  0
C  C36  1  0.62983870  0.66339594  0.41410925  1  0  0.002796  0  3.654115  0  0  -0.030132  0  3.90043  0  0  -0.028779  0  3.914754  0  0  0.029688  -0.031507  0  3.89173  0
C  C37  1  0.62983659  0.16339279  0.08588751  1  0  0.002766  0  3.654367  0  0  -0.030129  0  3.90069  0  0  -0.028778  0  3.915015  0  0  0.029666  -0.031496  0  3.891974  0
C  C38  1  0.37016247  0.33661180  0.58589072  1  0  0.002697  0  3.654227  0  0  -0.030167  0  3.900522  0  0  -0.028816  0  3.914846  0  0  0.029681  -0.031545  0  3.891822  0
C  C39  1  0.37016704  0.83660756  0.91410933  1  0  0.002966  0  3.653919  0  0  -0.029967  0  3.900287  0  0  -0.028617  0  3.914608  0  0  0.029799  -0.031331  0  3.891561  0
C  C40  1  0.63155552  0.68976208  0.51978177  1  0  0.251301  0  3.721296  0  0  0.264293  0  3.956925  0  0  0.268055  0  3.977456  0  0  0.109541  0.26143  0  3.943621  0
C  C41  1  0.63155451  0.18975634  0.98021572  1  0  0.251365  0  3.72124  0  0  0.264336  0  3.956842  0  0  0.268098  0  3.97737  0  0  0.109569  0.261458  0  3.943526  0
C  C42  1  0.36844812  0.31023827  0.48021585  1  0  0.251211  0  3.721416  0  0  0.264189  0  3.957068  0  0  0.26795  0  3.977599  0  0  0.109556  0.261327  0  3.943758  0
C  C43  1  0.36844640  0.81023660  0.01978426  1  0  0.251252  0  3.72127  0  0  0.26421  0  3.956998  0  0  0.267975  0  3.977525  0  0  0.109569  0.261364  0  3.943693  0
C  C44  1  0.76542310  0.61836503  0.60042426  1  0  -0.378103  0  3.724507  0  0  -0.463856  0  3.965372  0  0  -0.466962  0  3.971417  0  0  -0.24689  -0.461263  0  3.961432  0
C  C45  1  0.76542991  0.11836313  0.89957234  1  0  -0.378121  0  3.724457  0  0  -0.463845  0  3.965361  0  0  -0.466957  0  3.971402  0  0  -0.246882  -0.461252  0  3.961424  0
C  C46  1  0.23457335  0.38163693  0.39957728  1  0  -0.378179  0  3.724591  0  0  -0.463901  0  3.965429  0  0  -0.467006  0  3.971473  0  0  -0.24694  -0.461288  0  3.961502  0
C  C47  1  0.23456014  0.88163551  0.10042451  1  0  -0.378193  0  3.724586  0  0  -0.463894  0  3.96545  0  0  -0.467005  0  3.971487  0  0  -0.246923  -0.461283  0  3.961512  0
N  N48  1  0.50608091  0.78286263  0.55281575  1  0  -0.308838  0  3.335871  0  0  -0.237529  0  3.616696  0  0  -0.240004  0  3.620536  0  0  -0.358579  -0.236611  0  3.614192  0
N  N49  1  0.50608431  0.28285760  0.94718739  1  0  -0.308972  0  3.335779  0  0  -0.237618  0  3.616606  0  0  -0.240092  0  3.620446  0  0  -0.358572  -0.236638  0  3.614067  0
N  N50  1  0.49392074  0.21713935  0.44718110  1  0  -0.308671  0  3.335766  0  0  -0.23737  0  3.616658  0  0  -0.239846  0  3.620511  0  0  -0.358605  -0.236455  0  3.614154  0
N  N51  1  0.49392010  0.71713782  0.05281883  1  0  -0.308788  0  3.335929  0  0  -0.237508  0  3.616856  0  0  -0.23999  0  3.620721  0  0  -0.358655  -0.236637  0  3.614419  0
N  N52  1  0.49963937  0.72529263  0.33978861  1  0  -0.246727  0  3.389082  0  0  -0.180709  0  3.694128  0  0  -0.179968  0  3.695241  0  0  -0.360293  -0.181732  0  3.693289  0
N  N53  1  0.49964361  0.22528815  0.16021133  1  0  -0.246768  0  3.389225  0  0  -0.18078  0  3.694311  0  0  -0.180032  0  3.695408  0  0  -0.36034  -0.1818  0  3.693455  0
N  N54  1  0.50036120  0.27471345  0.66021371  1  0  -0.246696  0  3.389362  0  0  -0.180732  0  3.694435  0  0  -0.179977  0  3.695524  0  0  -0.360392  -0.181756  0  3.693588  0
N  N55  1  0.50036431  0.77470975  0.83978316  1  0  -0.246787  0  3.389232  0  0  -0.180795  0  3.694329  0  0  -0.180039  0  3.695411  0  0  -0.360386  -0.181814  0  3.693471  0
Cl  Cl56  1  0.07727993  0.95724596  0.70010773  1  0  -0.584984  0  1.127948  0  0  -0.517813  0  1.465045  0  0  -0.533826  0  1.440549  0  0  -0.313913  -0.506251  0  1.481037  0
Cl  Cl57  1  0.07728826  0.45724943  0.79989569  1  0  -0.584991  0  1.12791  0  0  -0.517845  0  1.465093  0  0  -0.53387  0  1.440607  0  0  -0.313885  -0.506267  0  1.481096  0
Cl  Cl58  1  0.92270739  0.04274527  0.29989381  1  0  -0.584957  0  1.127921  0  0  -0.517803  0  1.465074  0  0  -0.533831  0  1.440596  0  0  -0.313882  -0.506234  0  1.481052  0
Cl  Cl59  1  0.92269859  0.54274755  0.20010506  1  0  -0.584948  0  1.127969  0  0  -0.517805  0  1.465132  0  0  -0.533852  0  1.440673  0  0  -0.313853  -0.50622  0  1.481127  0
