# generated using pymatgen
data_ZnH10C12O5
_symmetry_space_group_name_H-M   'P 1'
_cell_length_a   6.41555467
_cell_length_b   7.53140773
_cell_length_c   11.76774203
_cell_angle_alpha   102.81845512
_cell_angle_beta   90.00068902
_cell_angle_gamma   90.00099620
_symmetry_Int_Tables_number   1
_chemical_formula_structural   ZnH10C12O5
_chemical_formula_sum   'Zn2 H20 C24 O10'
_cell_volume   554.42504666
_cell_formula_units_Z   2
loop_
 _symmetry_equiv_pos_site_id
 _symmetry_equiv_pos_as_xyz
  1  'x, y, z'
loop_
 _atom_site_type_symbol
 _atom_site_label
 _atom_site_symmetry_multiplicity
 _atom_site_fract_x
 _atom_site_fract_y
 _atom_site_fract_z
 _atom_site_occupancy
 _atom_site_hle17_bader_spin_density
 _atom_site_hle17_ddec_charge
 _atom_site_hle17_ddec_spin_density
 _atom_site_hle17_ddec_sum_bond_order
 _atom_site_hle17_magmom
 _atom_site_hse06_10hf_bader_spin_density
 _atom_site_hse06_10hf_ddec_charge
 _atom_site_hse06_10hf_ddec_spin_density
 _atom_site_hse06_10hf_ddec_sum_bond_order
 _atom_site_hse06_10hf_magmom
 _atom_site_hse06_bader_spin_density
 _atom_site_hse06_ddec_charge
 _atom_site_hse06_ddec_spin_density
 _atom_site_hse06_ddec_sum_bond_order
 _atom_site_hse06_magmom
 _atom_site_pbe_bader_spin_density
 _atom_site_pbe_cm5_charge
 _atom_site_pbe_ddec_charge
 _atom_site_pbe_ddec_spin_density
 _atom_site_pbe_ddec_sum_bond_order
 _atom_site_pbe_magmom
Zn  Zn0  1  0.15591583  0.28242815  0.46314374  1  0  1.185422  0  1.736112  0  0  1.01627  0  2.216666  0  0  1.065296  0  2.150254  0  0  0.693561  0.98157  0  2.262668  0
Zn  Zn1  1  0.65591736  0.71757535  0.53685228  1  0  1.185404  0  1.735995  0  0  1.016235  0  2.216547  0  0  1.065267  0  2.150133  0  0  0.693607  0.981532  0  2.262543  0
H  H2  1  0.80715953  0.08794450  0.43647228  1  0  0.450559  0  0.842282  0  0  0.416691  0  0.909552  0  0  0.427722  0  0.89344  0  0  0.301389  0.408863  0  0.920983  0
H  H3  1  0.30715570  0.91204791  0.56352650  1  0  0.450548  0  0.842309  0  0  0.416685  0  0.909562  0  0  0.427716  0  0.893448  0  0  0.3014  0.408854  0  0.920996  0
H  H4  1  0.95825279  0.02790565  0.53607557  1  0  0.434352  0  0.867635  0  0  0.399056  0  0.938363  0  0  0.410606  0  0.921612  0  0  0.294542  0.390866  0  0.950235  0
H  H5  1  0.45825299  0.97209202  0.46393000  1  0  0.434366  0  0.867604  0  0  0.399078  0  0.93832  0  0  0.410627  0  0.92157  0  0  0.29455  0.390886  0  0.950197  0
H  H6  1  0.78440042  0.47456826  0.68768475  1  0  0.119412  0  0.964812  0  0  0.128209  0  1.026616  0  0  0.131949  0  1.025459  0  0  0.105212  0.125536  0  1.027658  0
H  H7  1  0.28438639  0.52542339  0.31230265  1  0  0.119475  0  0.964746  0  0  0.128189  0  1.026672  0  0  0.131931  0  1.025513  0  0  0.105205  0.125519  0  1.027712  0
H  H8  1  0.50559510  0.18703819  0.76215084  1  0  0.099459  0  0.933754  0  0  0.110507  0  0.995887  0  0  0.1134  0  0.993426  0  0  0.108526  0.108331  0  0.997829  0
H  H9  1  0.00560314  0.81295600  0.23783864  1  0  0.099458  0  0.933901  0  0  0.110522  0  0.995988  0  0  0.113416  0  0.993524  0  0  0.10854  0.108356  0  0.997917  0
H  H10  1  0.44576062  0.18201647  0.11904003  1  0  0.105873  0  0.979399  0  0  0.117029  0  1.040593  0  0  0.120181  0  1.040247  0  0  0.100929  0.114718  0  1.041143  0
H  H11  1  0.94574498  0.81799027  0.88097483  1  0  0.105832  0  0.979338  0  0  0.116996  0  1.040529  0  0  0.120117  0  1.040219  0  0  0.100859  0.11469  0  1.041072  0
H  H12  1  0.88030579  0.15466437  0.22567487  1  0  0.100864  0  0.940109  0  0  0.112698  0  1.000821  0  0  0.115802  0  0.998046  0  0  0.106886  0.110397  0  1.002949  0
H  H13  1  0.38026803  0.84531971  0.77431731  1  0  0.1009  0  0.94007  0  0  0.112723  0  1.000796  0  0  0.115825  0  0.998024  0  0  0.106905  0.110425  0  1.002925  0
H  H14  1  0.56569509  0.14646808  0.95033710  1  0  0.091585  0  0.968554  0  0  0.102761  0  1.033375  0  0  0.10518  0  1.032757  0  0  0.101453  0.100922  0  1.034108  0
H  H15  1  0.06567982  0.85349823  0.04965525  1  0  0.091377  0  0.968463  0  0  0.102547  0  1.033335  0  0  0.104966  0  1.032714  0  0  0.101344  0.100711  0  1.034057  0
H  H16  1  0.14768167  0.28805109  0.12889138  1  0  0.096241  0  0.983893  0  0  0.104046  0  1.05163  0  0  0.107171  0  1.050097  0  0  0.098822  0.101802  0  1.052782  0
H  H17  1  0.64767438  0.71197117  0.87111519  1  0  0.096265  0  0.983811  0  0  0.103993  0  1.051616  0  0  0.107119  0  1.050081  0  0  0.098777  0.101739  0  1.052803  0
H  H18  1  0.28576107  0.38909014  0.95489629  1  0  0.08715  0  0.970936  0  0  0.097639  0  1.032918  0  0  0.099358  0  1.034289  0  0  0.098069  0.096287  0  1.032278  0
H  H19  1  0.78576441  0.61093965  0.04511096  1  0  0.087177  0  0.970978  0  0  0.097679  0  1.032936  0  0  0.099378  0  1.034354  0  0  0.098116  0.096331  0  1.032287  0
H  H20  1  0.06089433  0.37835022  0.78266381  1  0  0.105292  0  0.942132  0  0  0.116446  0  1.000929  0  0  0.119278  0  1.000027  0  0  0.104867  0.11444  0  1.001552  0
H  H21  1  0.56090697  0.62167038  0.21734406  1  0  0.105251  0  0.942064  0  0  0.116423  0  1.00084  0  0  0.119243  0  0.999952  0  0  0.104826  0.114389  0  1.001496  0
C  C22  1  0.48679853  0.38618436  0.60479114  1  0  0.705142  0  3.881546  0  0  0.659056  0  4.160653  0  0  0.695971  0  4.15294  0  0  0.21212  0.63401  0  4.16508  0
C  C23  1  0.98677636  0.61383067  0.39520083  1  0  0.704777  0  3.882128  0  0  0.658765  0  4.161149  0  0  0.695677  0  4.153444  0  0  0.212087  0.633718  0  4.165571  0
C  C24  1  0.65441257  0.38201929  0.68882057  1  0  -0.249569  0  3.688502  0  0  -0.26145  0  3.942453  0  0  -0.275301  0  3.959432  0  0  -0.102613  -0.252439  0  3.931111  0
C  C25  1  0.15440140  0.61797054  0.31116844  1  0  -0.249516  0  3.68862  0  0  -0.26138  0  3.942547  0  0  -0.275227  0  3.959523  0  0  -0.102622  -0.252382  0  3.931214  0
C  C26  1  0.64422167  0.27242164  0.76503458  1  0  -0.005593  0  3.685737  0  0  -0.034023  0  3.936442  0  0  -0.027327  0  3.952746  0  0  -0.062311  -0.038342  0  3.925475  0
C  C27  1  0.14421215  0.72757055  0.23496525  1  0  -0.005663  0  3.685954  0  0  -0.034042  0  3.936598  0  0  -0.027344  0  3.952896  0  0  -0.062333  -0.038364  0  3.925627  0
C  C28  1  0.46960410  0.13919274  0.29408102  1  0  0.708053  0  3.895316  0  0  0.657148  0  4.186624  0  0  0.693023  0  4.178283  0  0  0.212215  0.632822  0  4.19144  0
C  C29  1  0.96957470  0.86081213  0.70592527  1  0  0.708101  0  3.895316  0  0  0.657071  0  4.18685  0  0  0.692948  0  4.178518  0  0  0.212242  0.632746  0  4.191654  0
C  C30  1  0.56047854  0.15938954  0.18251275  1  0  -0.240415  0  3.698103  0  0  -0.255595  0  3.956242  0  0  -0.268168  0  3.975386  0  0  -0.102996  -0.247305  0  3.943343  0
C  C31  1  0.06045923  0.84061197  0.81749751  1  0  -0.240296  0  3.698035  0  0  -0.255408  0  3.95615  0  0  -0.267956  0  3.975308  0  0  -0.102824  -0.247122  0  3.943242  0
C  C32  1  0.76547865  0.16868814  0.15952597  1  0  -0.032512  0  3.701325  0  0  -0.056458  0  3.94743  0  0  -0.052025  0  3.965002  0  0  -0.069361  -0.05922  0  3.935409  0
C  C33  1  0.26545329  0.83130691  0.84047008  1  0  -0.032671  0  3.701402  0  0  -0.056633  0  3.947565  0  0  -0.052201  0  3.965136  0  0  -0.069452  -0.059389  0  3.935537  0
C  C34  1  0.79388459  0.26673111  0.85719729  1  0  0.073847  0  3.818311  0  0  0.095355  0  4.050898  0  0  0.092876  0  4.075456  0  0  -0.010364  0.096934  0  4.034142  0
C  C35  1  0.29389045  0.73326493  0.14279897  1  0  0.073907  0  3.818407  0  0  0.095329  0  4.051089  0  0  0.092853  0  4.075642  0  0  -0.010316  0.096906  0  4.034328  0
C  C36  1  0.72322286  0.20165047  0.95310030  1  0  -0.137553  0  3.666734  0  0  -0.164148  0  3.907173  0  0  -0.166355  0  3.928568  0  0  -0.077785  -0.162456  0  3.892731  0
C  C37  1  0.22322691  0.79833493  0.04690064  1  0  -0.137373  0  3.666758  0  0  -0.163916  0  3.90722  0  0  -0.166122  0  3.928616  0  0  -0.077749  -0.162228  0  3.892777  0
C  C38  1  0.84695731  0.21242702  0.05288051  1  0  0.070922  0  3.827487  0  0  0.094256  0  4.056981  0  0  0.092316  0  4.081746  0  0  -0.014393  0.095532  0  4.039941  0
C  C39  1  0.34694574  0.78756814  0.94711926  1  0  0.070885  0  3.827433  0  0  0.094162  0  4.057001  0  0  0.092222  0  4.081772  0  0  -0.014393  0.095449  0  4.03995  0
C  C40  1  0.05144784  0.27906841  0.05148441  1  0  -0.105896  0  3.70435  0  0  -0.128784  0  3.952233  0  0  -0.131147  0  3.974084  0  0  -0.084213  -0.126889  0  3.937188  0
C  C41  1  0.55144005  0.72094642  0.94851865  1  0  -0.105958  0  3.704391  0  0  -0.128749  0  3.952283  0  0  -0.131109  0  3.974128  0  0  -0.084272  -0.126873  0  3.937256  0
C  C42  1  0.12704880  0.33717646  0.95435878  1  0  -0.071834  0  3.78684  0  0  -0.083547  0  4.040172  0  0  -0.086661  0  4.063585  0  0  -0.091917  -0.081473  0  4.024428  0
C  C43  1  0.62704816  0.66284236  0.04564532  1  0  -0.071788  0  3.786895  0  0  -0.083517  0  4.040224  0  0  -0.086627  0  4.063619  0  0  -0.091849  -0.08144  0  4.024475  0
C  C44  1  0.99974778  0.33323848  0.85802106  1  0  -0.081892  0  3.659844  0  0  -0.103755  0  3.904442  0  0  -0.104627  0  3.924293  0  0  -0.076879  -0.102907  0  3.890804  0
C  C45  1  0.49975004  0.66677425  0.14198383  1  0  -0.08188  0  3.659753  0  0  -0.103715  0  3.904385  0  0  -0.104581  0  3.924221  0  0  -0.076897  -0.102849  0  3.890758  0
O  O46  1  0.33093894  0.27790558  0.60034809  1  0  -0.647287  0  2.040083  0  0  -0.569831  0  2.301607  0  0  -0.599419  0  2.285844  0  0  -0.315458  -0.549212  0  2.311696  0
O  O47  1  0.83095284  0.72208086  0.39964664  1  0  -0.646994  0  2.041253  0  0  -0.569602  0  2.30279  0  0  -0.599178  0  2.28702  0  0  -0.315364  -0.548995  0  2.312891  0
O  O48  1  0.49371504  0.49565569  0.53531660  1  0  -0.674688  0  2.068938  0  0  -0.599014  0  2.34865  0  0  -0.628358  0  2.32863  0  0  -0.321601  -0.578452  0  2.361616  0
O  O49  1  0.99371835  0.50433096  0.46468387  1  0  -0.674655  0  2.068536  0  0  -0.598982  0  2.348207  0  0  -0.628337  0  2.328193  0  0  -0.321608  -0.57841  0  2.361164  0
O  O50  1  0.57184723  0.07891216  0.36926600  1  0  -0.638524  0  2.027778  0  0  -0.568008  0  2.242874  0  0  -0.594472  0  2.232758  0  0  -0.299381  -0.549635  0  2.249335  0
O  O51  1  0.07181189  0.92106796  0.63074089  1  0  -0.638504  0  2.028022  0  0  -0.567979  0  2.243207  0  0  -0.594414  0  2.233036  0  0  -0.299453  -0.549641  0  2.249738  0
O  O52  1  0.27658616  0.19159925  0.30759000  1  0  -0.687863  0  2.043303  0  0  -0.613345  0  2.325889  0  0  -0.643362  0  2.307809  0  0  -0.329369  -0.592159  0  2.337526  0
O  O53  1  0.77653560  0.80841523  0.69242042  1  0  -0.68784  0  2.042908  0  0  -0.613227  0  2.325453  0  0  -0.643248  0  2.307372  0  0  -0.329333  -0.592032  0  2.337077  0
O  O54  1  0.92553307  0.12281631  0.49121033  1  0  -0.860589  0  1.936542  0  0  -0.789253  0  2.169253  0  0  -0.812956  0  2.130462  0  0  -0.57999  -0.772558  0  2.196319  0
O  O55  1  0.42552240  0.87718430  0.50879232  1  0  -0.860543  0  1.936555  0  0  -0.789208  0  2.16928  0  0  -0.812912  0  2.130491  0  0  -0.579954  -0.772513  0  2.196342  0
