# generated using pymatgen
data_CdH18C21(N3O4)2
_symmetry_space_group_name_H-M   'P 1'
_cell_length_a   10.43812563
_cell_length_b   11.23436846
_cell_length_c   13.61417741
_cell_angle_alpha   108.76717874
_cell_angle_beta   105.93877970
_cell_angle_gamma   100.29416757
_symmetry_Int_Tables_number   1
_chemical_formula_structural   CdH18C21(N3O4)2
_chemical_formula_sum   'Cd2 H36 C42 N12 O16'
_cell_volume   1389.55194188
_cell_formula_units_Z   2
loop_
 _symmetry_equiv_pos_site_id
 _symmetry_equiv_pos_as_xyz
  1  'x, y, z'
loop_
 _atom_site_type_symbol
 _atom_site_label
 _atom_site_symmetry_multiplicity
 _atom_site_fract_x
 _atom_site_fract_y
 _atom_site_fract_z
 _atom_site_occupancy
 _atom_site_pbe_bader_spin_density
 _atom_site_pbe_cm5_charge
 _atom_site_pbe_ddec_charge
 _atom_site_pbe_ddec_spin_density
 _atom_site_pbe_ddec_sum_bond_order
 _atom_site_pbe_magmom
Cd  Cd0  1  0.11358101  0.28530084  0.00325305  1  0  0.767847  0.93527  0  2.090028  0
Cd  Cd1  1  0.88641846  0.71468661  0.99675561  1  0  0.767835  0.935179  0  2.090026  0
H  H2  1  0.52250801  0.62796899  0.70723001  1  0  0.285356  0.288225  0  1.061308  0
H  H3  1  0.47750981  0.37204054  0.29276074  1  0  0.285339  0.288235  0  1.061325  0
H  H4  1  0.25453314  0.22726227  0.18945433  1  0  0.290977  0.382096  0  0.958894  0
H  H5  1  0.74551514  0.77272879  0.81054831  1  0  0.291073  0.382233  0  0.958682  0
H  H6  1  0.10047659  0.14009783  0.15340320  1  0  0.323847  0.414204  0  0.866289  0
H  H7  1  0.89957289  0.85988258  0.84660735  1  0  0.323911  0.414251  0  0.86624  0
H  H8  1  0.23450930  0.37944136  0.89250972  1  0  0.281334  0.377032  0  0.962881  0
H  H9  1  0.76546890  0.62055332  0.10748655  1  0  0.281363  0.377046  0  0.962903  0
H  H10  1  0.15681147  0.49041057  0.91062204  1  0  0.293876  0.394607  0  0.925648  0
H  H11  1  0.84318389  0.50959516  0.08938652  1  0  0.29388  0.394607  0  0.925645  0
H  H12  1  0.17927781  0.94264735  0.23993359  1  0  0.295281  0.279395  0  1.009414  0
H  H13  1  0.82071503  0.05735471  0.76006970  1  0  0.295345  0.279494  0  1.009245  0
H  H14  1  0.17794192  0.95268089  0.36597363  1  0  0.31785  0.287056  0  0.922844  0
H  H15  1  0.82204663  0.04733229  0.63403096  1  0  0.317871  0.287084  0  0.922796  0
H  H16  1  0.68939412  0.32464764  0.50793665  1  0  0.119048  0.133568  0  0.984785  0
H  H17  1  0.31062475  0.67534520  0.49204608  1  0  0.119067  0.133692  0  0.98481  0
H  H18  1  0.70438086  0.54801324  0.63894950  1  0  0.120886  0.096554  0  0.979705  0
H  H19  1  0.29565018  0.45198304  0.36102386  1  0  0.12089  0.096564  0  0.97988  0
H  H20  1  0.29155138  0.42733883  0.60699120  1  0  0.126871  0.103309  0  0.962652  0
H  H21  1  0.70849027  0.57268184  0.39300858  1  0  0.126874  0.103349  0  0.96262  0
H  H22  1  0.25976166  0.19739485  0.47825600  1  0  0.112575  0.122651  0  1.01444  0
H  H23  1  0.74026343  0.80261703  0.52174336  1  0  0.112557  0.122625  0  1.014371  0
H  H24  1  0.15291221  0.74757234  0.28495071  1  0  0.112389  0.113147  0  1.014706  0
H  H25  1  0.84705789  0.25242742  0.71504725  1  0  0.112461  0.113162  0  1.014661  0
H  H26  1  0.05608602  0.51014117  0.17100183  1  0  0.122978  0.106894  0  1.009839  0
H  H27  1  0.94387828  0.48985423  0.82900261  1  0  0.122983  0.106728  0  1.009982  0
H  H28  1  0.41702818  0.48845420  0.10362356  1  0  0.120777  0.104507  0  1.007887  0
H  H29  1  0.58293672  0.51153726  0.89637901  1  0  0.120773  0.104635  0  1.007722  0
H  H30  1  0.53461254  0.72669162  0.22050895  1  0  0.115826  0.128663  0  1.007794  0
H  H31  1  0.46535134  0.27328929  0.77948498  1  0  0.115766  0.128453  0  1.007919  0
H  H32  1  0.60900827  0.30218492  0.00390915  1  0  0.108578  0.111765  0  1.007546  0
H  H33  1  0.39099036  0.69782035  0.99610572  1  0  0.108557  0.111761  0  1.0076  0
H  H34  1  0.28791172  0.93026257  0.82921207  1  0  0.113683  0.122631  0  0.983108  0
H  H35  1  0.71209406  0.06973901  0.17079548  1  0  0.113649  0.122606  0  0.983076  0
H  H36  1  0.71519117  0.94984163  0.86700384  1  0  0.102878  0.089312  0  1.068072  0
H  H37  1  0.28482174  0.05016707  0.13301674  1  0  0.102915  0.089391  0  1.068143  0
C  C38  1  0.59961849  0.34407871  0.52870330  1  0  -0.071797  -0.152156  0  3.927677  0
C  C39  1  0.40040296  0.65592349  0.47127471  1  0  -0.071954  -0.152489  0  3.928079  0
C  C40  1  0.60771011  0.46729618  0.60043683  1  0  0.047509  0.085069  0  3.953546  0
C  C41  1  0.39231817  0.53270593  0.39954084  1  0  0.047663  0.085106  0  3.953992  0
C  C42  1  0.37659287  0.39909710  0.58267092  1  0  0.054042  0.087316  0  3.949436  0
C  C43  1  0.62343917  0.60091732  0.41731863  1  0  0.054005  0.087172  0  3.949066  0
C  C44  1  0.35941711  0.27218428  0.51110797  1  0  -0.075227  -0.156848  0  3.937819  0
C  C45  1  0.64060536  0.72783144  0.48887963  1  0  -0.075197  -0.156863  0  3.937718  0
C  C46  1  0.47397626  0.24235738  0.48445412  1  0  0.01881  0.077233  0  3.99021  0
C  C47  1  0.52604201  0.75765138  0.51553278  1  0  0.018807  0.077389  0  3.990398  0
C  C48  1  0.47624196  0.11065767  0.42244010  1  0  0.222276  0.174542  0  3.987548  0
C  C49  1  0.52376020  0.88934016  0.57754798  1  0  0.222342  0.17466  0  3.98753  0
C  C50  1  0.42467156  0.89871134  0.32695585  1  0  0.218043  0.157246  0  4.018214  0
C  C51  1  0.57531098  0.10127676  0.67304719  1  0  0.217887  0.156808  0  4.018572  0
C  C52  1  0.35384092  0.75944846  0.26187725  1  0  0.01736  0.067104  0  4.013451  0
C  C53  1  0.64613886  0.24054387  0.73812371  1  0  0.017456  0.067187  0  4.013447  0
C  C54  1  0.21730568  0.69637262  0.24765891  1  0  -0.080295  -0.157807  0  3.9474  0
C  C55  1  0.78267061  0.30362665  0.75234511  1  0  -0.080391  -0.157816  0  3.947186  0
C  C56  1  0.16134076  0.56253610  0.18369525  1  0  0.048422  0.094998  0  3.939291  0
C  C57  1  0.83863087  0.43746136  0.81630667  1  0  0.048377  0.095241  0  3.939064  0
C  C58  1  0.36427314  0.54981776  0.14767698  1  0  0.046922  0.089632  0  3.937422  0
C  C59  1  0.63569615  0.45017283  0.85232238  1  0  0.046775  0.089086  0  3.937342  0
C  C60  1  0.42858176  0.68234330  0.21193258  1  0  -0.070403  -0.139841  0  3.921052  0
C  C61  1  0.57138726  0.31764323  0.78806694  1  0  -0.070324  -0.139337  0  3.920958  0
C  C62  1  0.67817249  0.13348957  0.93938355  1  0  -0.022791  -0.047057  0  3.993606  0
C  C63  1  0.32182615  0.86652007  0.06062607  1  0  -0.022766  -0.047096  0  3.993632  0
C  C64  1  0.57851061  0.19609056  0.95925273  1  0  -0.066606  -0.085598  0  3.929728  0
C  C65  1  0.42148447  0.80391550  0.04075074  1  0  -0.066676  -0.085618  0  3.929945  0
C  C66  1  0.43792776  0.12369421  0.91858256  1  0  -0.015437  -0.037433  0  3.963539  0
C  C67  1  0.56206664  0.87630530  0.08141283  1  0  -0.015437  -0.03739  0  3.963484  0
C  C68  1  0.39715936  0.98718628  0.86101532  1  0  -0.058113  -0.067453  0  3.877799  0
C  C69  1  0.60284266  0.01281793  0.13898359  1  0  -0.058041  -0.067449  0  3.877622  0
C  C70  1  0.49699481  0.92330994  0.84207543  1  0  -0.020886  -0.054436  0  3.991408  0
C  C71  1  0.50300844  0.07669396  0.15792801  1  0  -0.020908  -0.054344  0  3.991204  0
C  C72  1  0.63652346  0.99720230  0.88138662  1  0  -0.077041  -0.092602  0  3.94463  0
C  C73  1  0.36348030  0.00280537  0.11862103  1  0  -0.077063  -0.0927  0  3.944761  0
C  C74  1  0.82548513  0.21080401  0.96971484  1  0  0.199103  0.571046  0  4.208946  0
C  C75  1  0.17450656  0.78920748  0.03029933  1  0  0.199013  0.570958  0  4.20887  0
C  C76  1  0.33381089  0.19741857  0.93392806  1  0  0.201212  0.576667  0  4.21596  0
C  C77  1  0.66618516  0.80257689  0.06606708  1  0  0.201236  0.576598  0  4.215838  0
C  C78  1  0.45293445  0.77838534  0.77616044  1  0  0.218687  0.573466  0  4.132818  0
C  C79  1  0.54707647  0.22162483  0.22385364  1  0  0.218796  0.573573  0  4.132122  0
N  N80  1  0.49875125  0.49415067  0.62771302  1  0  -0.310525  -0.219133  0  3.502378  0
N  N81  1  0.50127990  0.50585745  0.37226482  1  0  -0.310536  -0.219006  0  3.502429  0
N  N82  1  0.59532324  0.07930882  0.43007793  1  0  -0.222722  -0.24449  0  3.227537  0
N  N83  1  0.40466944  0.92067224  0.56990621  1  0  -0.222849  -0.244642  0  3.227309  0
N  N84  1  0.56320620  0.94816600  0.36985051  1  0  -0.218995  -0.230093  0  3.236806  0
N  N85  1  0.43677547  0.05181278  0.63014062  1  0  -0.218698  -0.229731  0  3.236394  0
N  N86  1  0.36598020  0.99893166  0.35819404  1  0  -0.136705  0.112432  0  3.710996  0
N  N87  1  0.63401261  0.00106744  0.64180831  1  0  -0.13678  0.112487  0  3.710888  0
N  N88  1  0.22557472  0.99633930  0.32471358  1  0  -0.493051  -0.516643  0  3.125838  0
N  N89  1  0.77442066  0.00366779  0.67528952  1  0  -0.493082  -0.516745  0  3.125646  0
N  N90  1  0.23211358  0.49073428  0.13304078  1  0  -0.339087  -0.253457  0  3.557316  0
N  N91  1  0.76786452  0.50926074  0.86696589  1  0  -0.338972  -0.253362  0  3.557066  0
O  O92  1  0.87297649  0.33057870  0.03376885  1  0  -0.316354  -0.559239  0  2.15915  0
O  O93  1  0.12701920  0.66942962  0.96624647  1  0  -0.316333  -0.559181  0  2.159205  0
O  O94  1  0.89933408  0.14659565  0.92273269  1  0  -0.339746  -0.574581  0  2.252766  0
O  O95  1  0.10066990  0.85342835  0.07728823  1  0  -0.339617  -0.574383  0  2.252516  0
O  O96  1  0.55979466  0.73016078  0.76538869  1  0  -0.337973  -0.513799  0  2.396408  0
O  O97  1  0.44019845  0.26984211  0.23460166  1  0  -0.337943  -0.513796  0  2.396272  0
O  O98  1  0.33102402  0.70927280  0.73388431  1  0  -0.30931  -0.497188  0  2.04316  0
O  O99  1  0.66899335  0.29073079  0.26615163  1  0  -0.309432  -0.497344  0  2.042798  0
O  O100  1  0.21961384  0.13656749  0.93702161  1  0  -0.343166  -0.558868  0  2.19864  0
O  O101  1  0.78038359  0.86343185  0.06297572  1  0  -0.343153  -0.558767  0  2.198502  0
O  O102  1  0.36621293  0.31629003  0.94373388  1  0  -0.323779  -0.570951  0  2.170548  0
O  O103  1  0.63376258  0.68369981  0.05625967  1  0  -0.323759  -0.570937  0  2.170513  0
O  O104  1  0.15578844  0.22748175  0.16750335  1  0  -0.580823  -0.756611  0  1.995841  0
O  O105  1  0.84425247  0.77250130  0.83249995  1  0  -0.580946  -0.756737  0  1.995759  0
O  O106  1  0.14099509  0.39486060  0.87617806  1  0  -0.594487  -0.771473  0  1.985782  0
O  O107  1  0.85898921  0.60514430  0.12383057  1  0  -0.594535  -0.771509  0  1.98594  0
