# generated using pymatgen
data_CoH16C16(NO2)2
_symmetry_space_group_name_H-M   'P 1'
_cell_length_a   8.03241766
_cell_length_b   9.46390643
_cell_length_c   10.45522778
_cell_angle_alpha   110.72816772
_cell_angle_beta   92.30105456
_cell_angle_gamma   102.69507313
_symmetry_Int_Tables_number   1
_chemical_formula_structural   CoH16C16(NO2)2
_chemical_formula_sum   'Co2 H32 C32 N4 O8'
_cell_volume   719.08453127
_cell_formula_units_Z   2
loop_
 _symmetry_equiv_pos_site_id
 _symmetry_equiv_pos_as_xyz
  1  'x, y, z'
loop_
 _atom_site_type_symbol
 _atom_site_label
 _atom_site_symmetry_multiplicity
 _atom_site_fract_x
 _atom_site_fract_y
 _atom_site_fract_z
 _atom_site_occupancy
 _atom_site_pbe_cm5_charge
 _atom_site_pbe_ddec_charge
 _atom_site_pbe_ddec_spin_density
 _atom_site_pbe_ddec_sum_bond_order
 _atom_site_pbe_magmom
Co  Co0  1  0.15659019  0.98354539  0.14106218  1  0.668106  0.854324  2.83717  2.510402  2.581
Co  Co1  1  0.84341346  0.01645232  0.85893740  1  0.668105  0.854352  2.83712  2.510354  2.581
H  H2  1  0.36130253  0.91729636  0.90023688  1  0.119248  0.099383  0.00044  1.024176  0.001
H  H3  1  0.63869578  0.08270018  0.09975836  1  0.119254  0.099419  0.00044  1.024112  0.001
H  H4  1  0.36022658  0.71391679  0.68140345  1  0.107438  0.114637  0.000376  1.030418  0.0
H  H5  1  0.63976649  0.28608793  0.31859045  1  0.107457  0.114664  0.000375  1.030426  0.0
H  H6  1  0.93847945  0.41590712  0.78565486  1  0.109757  0.125177  0.000342  1.038121  0.0
H  H7  1  0.06152107  0.58408826  0.21434486  1  0.109757  0.125173  0.000342  1.038159  0.0
H  H8  1  0.95867112  0.63771790  0.00443761  1  0.115291  0.081455  0.000156  1.020338  0.001
H  H9  1  0.04133844  0.36227864  0.99556367  1  0.115311  0.081459  0.000156  1.020301  0.001
H  H10  1  0.32635589  0.32652964  0.27749397  1  0.118244  0.09534  0.000137  1.02045  0.001
H  H11  1  0.67364278  0.67346807  0.72250549  1  0.118233  0.095295  0.000137  1.020455  0.001
H  H12  1  0.33159615  0.54958226  0.49363468  1  0.104112  0.104961  0.00035  1.038333  0.0
H  H13  1  0.66840283  0.45041662  0.50636420  1  0.104137  0.105007  0.00035  1.038302  0.0
H  H14  1  0.94446260  0.23501118  0.61063596  1  0.109052  0.130482  0.000378  1.045998  0.0
H  H15  1  0.05553295  0.76498887  0.38936129  1  0.109027  0.13049  0.000378  1.045929  0.0
H  H16  1  0.95841841  0.02866215  0.38966547  1  0.117925  0.088727  0.000281  1.026071  0.001
H  H17  1  0.04158092  0.97133790  0.61033667  1  0.117909  0.088691  0.000281  1.026153  0.001
H  H18  1  0.54335138  0.89352896  0.43018605  1  0.099089  0.12  0.000323  0.988145  0.001
H  H19  1  0.45664611  0.10647343  0.56981774  1  0.099067  0.119971  0.000323  0.988155  0.001
H  H20  1  0.66421116  0.00098472  0.34068893  1  0.096278  0.112218  0.000548  1.005371  0.001
H  H21  1  0.33579007  0.99901766  0.65931496  1  0.096282  0.112244  0.000548  1.005345  0.001
H  H22  1  0.73547320  0.75443832  0.28185890  1  0.09042  0.056488  5.6e-05  1.00238  0.0
H  H23  1  0.26452615  0.24556174  0.71814610  1  0.090422  0.056518  5.6e-05  1.002317  0.0
H  H24  1  0.62604241  0.61642302  0.02522530  1  0.102316  0.119787  -0.000134  0.996856  0.0
H  H25  1  0.37395160  0.38357587  0.97477536  1  0.102312  0.119762  -0.000133  0.99691  0.0
H  H26  1  0.50338729  0.75248600  0.04096270  1  0.099159  0.12145  -0.000148  0.99902  0.0
H  H27  1  0.49661203  0.24751405  0.95903847  1  0.099157  0.121458  -0.000148  0.999021  0.0
H  H28  1  0.47302657  0.61458423  0.34878370  1  0.081237  0.108067  0.000132  1.039342  0.0
H  H29  1  0.52697246  0.38541932  0.65121764  1  0.081228  0.108046  0.000132  1.039376  0.0
H  H30  1  0.52561601  0.49805983  0.18859728  1  0.081237  0.108248  -1.8e-05  1.045248  0.0
H  H31  1  0.47438333  0.50194022  0.81140581  1  0.081241  0.10824  -1.8e-05  1.045288  0.0
H  H32  1  0.35187343  0.58858202  0.19336706  1  0.08392  0.119236  6.8e-05  1.027242  0.0
H  H33  1  0.64812717  0.41142270  0.80663373  1  0.083915  0.119218  6.8e-05  1.02727  0.0
C  C34  1  0.26605183  0.80633699  0.87150806  1  0.045034  0.099869  -0.008792  3.936203  -0.005
C  C35  1  0.73394620  0.19366305  0.12848735  1  0.045145  0.09987  -0.008792  3.936079  -0.005
C  C36  1  0.26436415  0.68828618  0.74597666  1  -0.081183  -0.164762  0.000231  3.92401  0.002
C  C37  1  0.73563139  0.31171387  0.25401772  1  -0.081303  -0.16484  0.000232  3.92406  0.002
C  C38  1  0.14496371  0.54284954  0.70800823  1  0.009567  0.099796  -0.013756  3.965787  -0.008
C  C39  1  0.85503460  0.45714700  0.29198797  1  0.009625  0.099892  -0.013753  3.96576  -0.008
C  C40  1  0.03370619  0.52535847  0.80508767  1  -0.083314  -0.177914  0.000673  3.916658  0.002
C  C41  1  0.96629654  0.47464041  0.19491322  1  -0.083296  -0.177951  0.000673  3.916731  0.002
C  C42  1  0.04364117  0.64981115  0.92830141  1  0.042836  0.099953  -0.008345  3.953793  -0.005
C  C43  1  0.95636248  0.35018656  0.07169817  1  0.042806  0.099961  -0.008344  3.953791  -0.005
C  C44  1  0.24535945  0.31242748  0.35545730  1  0.042971  0.089661  -0.00917  3.948824  -0.005
C  C45  1  0.75463862  0.68757258  0.64454384  1  0.043046  0.089803  -0.009169  3.948665  -0.005
C  C46  1  0.24684246  0.43614849  0.47703883  1  -0.08556  -0.177676  0.000428  3.95674  0.002
C  C47  1  0.75315430  0.56384689  0.52295791  1  -0.085619  -0.177807  0.000429  3.956695  0.002
C  C48  1  0.14033928  0.41460201  0.57548447  1  0.009179  0.099846  -0.013794  3.969911  -0.007
C  C49  1  0.85966001  0.58539804  0.42451384  1  0.009181  0.09983  -0.01379  3.969994  -0.007
C  C50  1  0.03292108  0.26396577  0.54191047  1  -0.082981  -0.177339  0.000631  3.909366  0.002
C  C51  1  0.96707325  0.73603428  0.45808962  1  -0.08301  -0.177374  0.000632  3.909465  0.002
C  C52  1  0.03942390  0.14642154  0.41780583  1  0.045085  0.095837  -0.007861  3.935408  -0.004
C  C53  1  0.96057228  0.85357618  0.58219452  1  0.045161  0.095866  -0.007859  3.935588  -0.004
C  C54  1  0.39689377  0.92121749  0.26781219  1  0.193686  0.603025  -0.006143  4.166516  -0.006
C  C55  1  0.60311399  0.07878605  0.73219034  1  0.193803  0.603212  -0.006144  4.166164  -0.006
C  C56  1  0.55933722  0.89870332  0.32790674  1  -0.166139  -0.327525  0.002143  3.869456  0.003
C  C57  1  0.44066368  0.10129789  0.67209677  1  -0.166144  -0.327583  0.002143  3.869226  0.003
C  C58  1  0.60674073  0.74831975  0.23678622  1  -0.089254  0.123667  0.000803  3.84327  0.001
C  C59  1  0.39326049  0.25168263  0.76321671  1  -0.089269  0.123688  0.000803  3.843142  0.001
C  C60  1  0.61917058  0.73596724  0.08764754  1  -0.165269  -0.334641  0.005643  3.867027  0.008
C  C61  1  0.38083063  0.26403515  0.91235444  1  -0.165288  -0.334691  0.005643  3.867089  0.008
C  C62  1  0.77631151  0.84108594  0.06241520  1  0.218932  0.632492  -0.00057  4.139662  0.002
C  C63  1  0.22368749  0.15891295  0.93758559  1  0.218929  0.632539  -0.000563  4.139644  0.002
C  C64  1  0.48191536  0.60356501  0.24136004  1  -0.251518  -0.401014  0.000555  3.928413  0.001
C  C65  1  0.51808427  0.39643621  0.75864056  1  -0.251486  -0.400953  0.000555  3.928408  0.001
N  N66  1  0.15581424  0.79044281  0.96217259  1  -0.328022  -0.264763  0.023617  3.601881  0.042
N  N67  1  0.84418689  0.20955490  0.03782310  1  -0.32809  -0.264798  0.023618  3.601908  0.042
N  N68  1  0.14374139  0.16816200  0.32497089  1  -0.323787  -0.237241  0.025479  3.561424  0.046
N  N69  1  0.85625882  0.83183688  0.67502706  1  -0.323805  -0.237206  0.025481  3.561453  0.046
O  O70  1  0.24739697  0.84010463  0.26654771  1  -0.317007  -0.563112  0.032511  2.158543  0.055
O  O71  1  0.75260923  0.15990241  0.73345111  1  -0.317033  -0.563182  0.032511  2.158546  0.055
O  O72  1  0.41499753  0.02418241  0.21267513  1  -0.314143  -0.550013  0.047797  2.303623  0.081
O  O73  1  0.58501488  0.97581996  0.78732523  1  -0.314179  -0.550084  0.047803  2.303505  0.081
O  O74  1  0.76765657  0.86020895  0.94790422  1  -0.315591  -0.571675  0.042456  2.437851  0.067
O  O75  1  0.23234214  0.13979343  0.05209673  1  -0.315599  -0.571703  0.04245  2.437884  0.067
O  O76  1  0.90868920  0.89425250  0.15211822  1  -0.306375  -0.556463  0.045024  2.449801  0.07
O  O77  1  0.09131603  0.10574637  0.84788369  1  -0.306366  -0.556487  0.045024  2.449785  0.07
