# generated using pymatgen
data_MnH9C7N7O3
_symmetry_space_group_name_H-M   'P 1'
_cell_length_a   7.30326351
_cell_length_b   7.77334364
_cell_length_c   10.19774351
_cell_angle_alpha   79.82715083
_cell_angle_beta   75.70936011
_cell_angle_gamma   74.32576120
_symmetry_Int_Tables_number   1
_chemical_formula_structural   MnH9C7N7O3
_chemical_formula_sum   'Mn2 H18 C14 N14 O6'
_cell_volume   536.39456852
_cell_formula_units_Z   2
loop_
 _symmetry_equiv_pos_site_id
 _symmetry_equiv_pos_as_xyz
  1  'x, y, z'
loop_
 _atom_site_type_symbol
 _atom_site_label
 _atom_site_symmetry_multiplicity
 _atom_site_fract_x
 _atom_site_fract_y
 _atom_site_fract_z
 _atom_site_occupancy
 _atom_site_hle17_ddec_charge
 _atom_site_hle17_ddec_spin_density
 _atom_site_hle17_ddec_sum_bond_order
 _atom_site_hle17_magmom
 _atom_site_hse06_10hf_ddec_charge
 _atom_site_hse06_10hf_ddec_spin_density
 _atom_site_hse06_10hf_ddec_sum_bond_order
 _atom_site_hse06_10hf_magmom
 _atom_site_hse06_ddec_charge
 _atom_site_hse06_ddec_spin_density
 _atom_site_hse06_ddec_sum_bond_order
 _atom_site_hse06_magmom
 _atom_site_pbe_cm5_charge
 _atom_site_pbe_ddec_charge
 _atom_site_pbe_ddec_spin_density
 _atom_site_pbe_ddec_sum_bond_order
 _atom_site_pbe_magmom
Mn  Mn0  1  0.00000712  0.49999506  0.99999817  1  1.202286  -4.810012  1.690704  -4.673  1.059874  -4.734323  2.166726  -4.537  1.113881  -4.779352  2.101691  -4.599  0.600776  1.016541  -4.689804  2.2157  -4.474
Mn  Mn1  1  0.00000097  0.99999929  0.99999984  1  1.091767  -4.72387  2.042303  -4.6  0.952438  -4.620164  2.558975  -4.439  1.003764  -4.693289  2.494677  -4.529  0.631718  0.91189  -4.54326  2.60725  -4.345
H  H2  1  0.46505008  0.00505337  0.25286806  1  0.119445  -0.000319  0.929676  0.0  0.12956  -0.000939  0.99471  0.0  0.132188  -0.000715  0.992471  0.0  0.123124  0.127578  -0.001195  0.996459  0.0
H  H3  1  0.53494910  0.99494311  0.74713292  1  0.119497  -0.000317  0.92958  0.0  0.129582  -0.000939  0.994649  0.0  0.132218  -0.000715  0.9924  0.0  0.123141  0.127603  -0.001195  0.996401  0.0
H  H4  1  0.36111824  0.92458729  0.14370391  1  0.136024  0.000623  0.944537  0.0  0.142855  0.000205  1.013751  -0.001  0.146197  0.000449  1.011494  -0.001  0.127209  0.140272  -9.3e-05  1.015541  -0.001
H  H5  1  0.63888192  0.07541056  0.85629278  1  0.135955  0.000624  0.944603  0.0  0.142864  0.000205  1.013753  -0.001  0.146204  0.000448  1.011493  -0.001  0.127207  0.140282  -9.3e-05  1.015544  -0.001
H  H6  1  0.30315917  0.63012650  0.19912750  1  0.108178  0.00065  0.957785  0.0  0.110769  0.000573  1.029078  0.0  0.113349  0.000683  1.027066  0.0  0.131482  0.108433  0.000439  1.031192  0.0
H  H7  1  0.69683255  0.36987674  0.80087004  1  0.10821  0.000649  0.957831  0.0  0.11076  0.000573  1.029125  0.0  0.113345  0.000682  1.027112  0.0  0.131486  0.108423  0.000439  1.031239  0.0
H  H8  1  0.17194069  0.41564994  0.39003195  1  0.122112  4e-05  0.953873  0.0  0.129068  -0.000126  1.01594  0.0  0.13275  -4.6e-05  1.014408  0.0  0.114391  0.126215  -0.000247  1.017453  0.0
H  H9  1  0.82805388  0.58434790  0.60996873  1  0.12212  4.1e-05  0.953853  0.0  0.129052  -0.000126  1.015958  0.0  0.132731  -4.6e-05  1.014429  0.0  0.114402  0.126203  -0.000247  1.017473  0.0
H  H10  1  0.16932678  0.45280870  0.63083817  1  0.111065  0.000239  0.956635  0.0  0.115903  0.000161  1.024881  0.0  0.119039  0.000218  1.021965  0.0  0.112416  0.113364  7.6e-05  1.027297  0.0
H  H11  1  0.83067700  0.54719181  0.36916042  1  0.111046  0.000241  0.956591  0.0  0.11588  0.000161  1.024858  0.0  0.119014  0.000218  1.021945  0.0  0.112406  0.113329  7.6e-05  1.027287  0.0
H  H12  1  0.30965710  0.69505043  0.67006507  1  0.121634  0.000167  0.951119  0.0  0.127344  0.00011  1.013505  0.0  0.130231  0.000151  1.013703  0.0  0.116518  0.124994  4.2e-05  1.013886  0.0
H  H13  1  0.69034237  0.30495010  0.32993138  1  0.121635  0.000166  0.951115  0.0  0.127369  0.00011  1.013479  0.0  0.130238  0.000151  1.013697  0.0  0.1165  0.125013  4.2e-05  1.013867  0.0
H  H14  1  0.45149640  0.88881182  0.46657140  1  0.099661  -0.000235  0.964946  0.0  0.105242  -0.000516  1.033705  0.0  0.108337  -0.000426  1.029871  0.0  0.126818  0.102789  -0.000621  1.036724  0.0
H  H15  1  0.54850344  0.11118737  0.53342615  1  0.099644  -0.000235  0.964911  0.0  0.105241  -0.000516  1.033657  0.0  0.108336  -0.000426  1.029825  0.0  0.126819  0.102787  -0.000621  1.036676  0.0
H  H16  1  0.08002939  0.21509337  0.19231085  1  0.409513  0.001023  0.897055  -0.001  0.375631  0.000194  0.970117  -0.002  0.385994  0.000565  0.955465  -0.001  0.292154  0.36833  -0.000209  0.980341  -0.002
H  H17  1  0.91997086  0.78490446  0.80768974  1  0.409512  0.001023  0.897086  -0.001  0.375621  0.000194  0.970128  -0.002  0.385984  0.000565  0.955482  -0.001  0.29218  0.368326  -0.000209  0.980342  -0.002
H  H18  1  0.25477919  0.31565465  0.15667060  1  0.411413  -0.000198  0.895014  -0.001  0.378775  -0.001231  0.963747  -0.002  0.38856  -0.000908  0.949524  -0.001  0.295955  0.37176  -0.001545  0.97386  -0.002
H  H19  1  0.74522108  0.68434316  0.84333097  1  0.411403  -0.000198  0.895027  -0.001  0.378805  -0.001231  0.9637  -0.002  0.388592  -0.000908  0.949474  -0.001  0.295967  0.37179  -0.001545  0.973812  -0.002
C  C20  1  0.66403741  0.80376106  0.13384255  1  0.70595  -0.010697  3.844474  -0.011  0.650507  -0.01705  4.155015  -0.015  0.685524  -0.012954  4.148032  -0.012  0.228016  0.626008  -0.021235  4.158404  -0.018
C  C21  1  0.33595976  0.19623809  0.86616236  1  0.706027  -0.010695  3.844336  -0.011  0.650561  -0.017051  4.154906  -0.015  0.685583  -0.012954  4.147924  -0.012  0.22807  0.626053  -0.021236  4.158298  -0.018
C  C22  1  0.46057419  0.88341543  0.21476195  1  -0.190988  -0.002666  3.589106  -0.002  -0.256295  -0.00392  3.847176  -0.003  -0.257264  -0.002813  3.851483  -0.002  -0.056062  -0.255432  -0.005074  3.844689  -0.003
C  C23  1  0.53943303  0.11658240  0.78523341  1  -0.190967  -0.002672  3.588868  -0.002  -0.256293  -0.003919  3.846836  -0.003  -0.25726  -0.002814  3.851125  -0.002  -0.056107  -0.255442  -0.005075  3.844362  -0.003
C  C24  1  0.30391299  0.63511635  0.30486631  1  0.106236  -0.00066  3.570518  -0.001  0.06142  -0.001128  3.825083  -0.001  0.071188  -0.000464  3.839286  0.0  0.068346  0.054216  -0.00245  3.816942  -0.002
C  C25  1  0.69608236  0.36488417  0.69513582  1  0.10612  -0.000655  3.570743  -0.001  0.061453  -0.00113  3.825156  -0.001  0.071205  -0.000462  3.839373  0.0  0.068352  0.054255  -0.00245  3.817017  -0.002
C  C26  1  0.22847068  0.52083119  0.41204247  1  -0.106068  0.000273  3.70587  0.0  -0.119015  -0.000502  3.962503  0.0  -0.128341  -0.000276  3.983343  0.0  -0.069601  -0.113338  -0.000786  3.949621  0.0
C  C27  1  0.77152506  0.47917336  0.58795905  1  -0.10611  0.000267  3.705848  0.0  -0.119111  -0.000501  3.962539  0.0  -0.128429  -0.000278  3.983382  0.0  -0.069662  -0.113428  -0.000787  3.94963  0.0
C  C28  1  0.22734388  0.54187137  0.54533329  1  0.022713  -0.000728  3.669114  -0.001  -0.004518  -0.001276  3.927257  -0.001  0.003447  -0.000646  3.94089  -0.001  -0.050923  -0.010122  -0.002931  3.918983  -0.002
C  C29  1  0.77265186  0.45813318  0.45466823  1  0.022823  -0.000731  3.668953  -0.001  -0.004405  -0.001276  3.927135  -0.001  0.003558  -0.000645  3.940763  -0.001  -0.050887  -0.009995  -0.00293  3.918861  -0.002
C  C30  1  0.30496510  0.67640545  0.56796319  1  -0.095798  0.000512  3.708084  0.0  -0.110452  -0.000236  3.965452  0.0  -0.118443  4.9e-05  3.986039  0.0  -0.072968  -0.105824  -0.000683  3.95296  0.0
C  C31  1  0.69503690  0.32359642  0.43203457  1  -0.09587  0.000516  3.707921  0.0  -0.110554  -0.000237  3.965329  0.0  -0.118526  5e-05  3.98592  0.0  -0.072961  -0.105925  -0.000683  3.952834  0.0
C  C32  1  0.38322566  0.78498442  0.45771909  1  0.096701  -0.001136  3.594214  -0.001  0.054257  -0.001748  3.84328  -0.001  0.062968  -0.001205  3.858193  -0.001  0.065951  0.04825  -0.003245  3.834022  -0.002
C  C33  1  0.61676979  0.21501608  0.54228695  1  0.096802  -0.001137  3.594236  -0.001  0.054343  -0.001748  3.843323  -0.001  0.063052  -0.001206  3.858231  -0.001  0.065961  0.048336  -0.003245  3.834064  -0.002
N  N34  1  0.17481389  0.69913328  0.99784553  1  -0.60194  -0.009665  2.703154  0.012  -0.567486  -0.025431  3.022545  0.006  -0.592704  -0.012831  3.023042  0.014  -0.276374  -0.548061  -0.036014  3.0217  -0.001
N  N35  1  0.82519165  0.30086588  0.00215290  1  -0.602061  -0.009651  2.702845  0.012  -0.567596  -0.02544  3.022189  0.006  -0.592825  -0.012832  3.0227  0.014  -0.276409  -0.548167  -0.036017  3.021348  -0.001
N  N36  1  0.33589669  0.68919362  0.92869393  1  0.42488  -0.001308  4.209297  -0.004  0.448733  -0.015616  4.505782  -0.017  0.466226  -0.009293  4.534505  -0.012  0.097099  0.436645  -0.021173  4.484733  -0.023
N  N37  1  0.66410044  0.31080554  0.07130902  1  0.424842  -0.001309  4.209078  -0.004  0.448717  -0.015619  4.505533  -0.017  0.46621  -0.009294  4.534252  -0.012  0.097028  0.436629  -0.021176  4.484484  -0.023
N  N38  1  0.49066451  0.68430794  0.85966344  1  -0.42499  -0.066729  2.4946  -0.067  -0.415582  -0.06872  2.743925  -0.063  -0.425208  -0.065426  2.751458  -0.061  -0.192634  -0.407999  -0.074129  2.738205  -0.067
N  N39  1  0.50933820  0.31569123  0.14033553  1  -0.424861  -0.066744  2.494733  -0.067  -0.415446  -0.068714  2.744053  -0.063  -0.425056  -0.065426  2.751568  -0.061  -0.192505  -0.407857  -0.074126  2.738328  -0.067
N  N40  1  0.00577764  0.00689671  0.20980707  1  -0.604843  0.000802  2.734387  0.012  -0.576527  -0.008931  3.032522  0.008  -0.601251  -0.000371  3.038833  0.014  -0.291643  -0.558423  -0.01617  3.028087  0.002
N  N41  1  0.99422784  0.99310786  0.79018673  1  -0.604769  0.000791  2.734911  0.012  -0.576424  -0.008915  3.033  0.008  -0.601119  -0.000386  3.039288  0.014  -0.29162  -0.558343  -0.016155  3.028582  0.002
N  N42  1  0.90465288  0.94004136  0.30588350  1  0.403093  -0.001936  4.244009  -0.004  0.439036  -0.010622  4.52585  -0.012  0.454959  -0.006849  4.55819  -0.008  0.081918  0.428154  -0.01391  4.502965  -0.015
N  N43  1  0.09533368  0.05995512  0.69412377  1  0.403319  -0.001932  4.243847  -0.004  0.439257  -0.010614  4.525657  -0.012  0.455186  -0.006846  4.557992  -0.008  0.082088  0.428375  -0.013903  4.502769  -0.015
N  N44  1  0.80689709  0.87343817  0.39916214  1  -0.43755  -0.046951  2.420577  -0.046  -0.432851  -0.045605  2.652793  -0.041  -0.444715  -0.043709  2.665093  -0.04  -0.210406  -0.423384  -0.048525  2.644077  -0.043
N  N45  1  0.19310620  0.12656911  0.60082778  1  -0.437921  -0.046939  2.419881  -0.046  -0.43323  -0.045619  2.652099  -0.041  -0.445129  -0.043702  2.664423  -0.04  -0.210649  -0.423748  -0.048537  2.643378  -0.043
N  N46  1  0.38031573  0.76395525  0.32931438  1  0.025803  -0.000192  3.568701  0.0  0.120114  -0.001172  3.773705  -0.001  0.10711  -0.000619  3.799324  -0.001  -0.206598  0.128166  -0.002174  3.75705  -0.002
N  N47  1  0.61968291  0.23604928  0.67068954  1  0.025803  -0.000191  3.569106  0.0  0.120063  -0.001171  3.774101  -0.001  0.107063  -0.000621  3.799729  -0.001  -0.206606  0.128114  -0.002173  3.757446  -0.002
O  O48  1  0.11144224  0.33576499  0.17320385  1  -0.823697  -0.029412  1.924955  -0.017  -0.76239  -0.03729  2.129583  -0.022  -0.786737  -0.033567  2.097522  -0.019  -0.560686  -0.743418  -0.040651  2.151889  -0.024
O  O49  1  0.88855665  0.66423283  0.82679897  1  -0.823689  -0.029413  1.925044  -0.017  -0.76241  -0.037292  2.129631  -0.022  -0.786761  -0.033567  2.097556  -0.019  -0.560721  -0.743436  -0.040651  2.151942  -0.024
O  O50  1  0.73843825  0.63672917  0.14682951  1  -0.631274  -0.031097  2.005841  -0.022  -0.569109  -0.040636  2.26418  -0.029  -0.598695  -0.035775  2.254493  -0.024  -0.295121  -0.546778  -0.045395  2.269658  -0.033
O  O51  1  0.26156300  0.36327001  0.85316777  1  -0.631253  -0.0311  2.005904  -0.022  -0.569098  -0.04064  2.264273  -0.029  -0.598679  -0.035776  2.254574  -0.024  -0.295099  -0.546771  -0.045399  2.26976  -0.033
O  O52  1  0.73735099  0.92368431  0.05301447  1  -0.654251  -0.033457  2.118138  -0.018  -0.581142  -0.041302  2.389689  -0.023  -0.613524  -0.036892  2.378863  -0.019  -0.314623  -0.556614  -0.045569  2.395997  -0.027
O  O53  1  0.26265428  0.07631079  0.94698946  1  -0.654329  -0.033459  2.118204  -0.018  -0.581163  -0.0413  2.389678  -0.023  -0.613566  -0.036893  2.378866  -0.019  -0.314634  -0.556622  -0.045568  2.395979  -0.027
