# generated using pymatgen
data_CuH11C13N2ClO
_symmetry_space_group_name_H-M   'P 1'
_cell_length_a   6.93544922
_cell_length_b   11.16966596
_cell_length_c   15.03956101
_cell_angle_alpha   89.99992055
_cell_angle_beta   90.00008313
_cell_angle_gamma   95.07614555
_symmetry_Int_Tables_number   1
_chemical_formula_structural   CuH11C13N2ClO
_chemical_formula_sum   'Cu4 H44 C52 N8 Cl4 O4'
_cell_volume   1160.49502943
_cell_formula_units_Z   4
loop_
 _symmetry_equiv_pos_site_id
 _symmetry_equiv_pos_as_xyz
  1  'x, y, z'
loop_
 _atom_site_type_symbol
 _atom_site_label
 _atom_site_symmetry_multiplicity
 _atom_site_fract_x
 _atom_site_fract_y
 _atom_site_fract_z
 _atom_site_occupancy
 _atom_site_pbe_bader_charge
 _atom_site_pbe_bader_spin_density
 _atom_site_pbe_cm5_charge
 _atom_site_pbe_ddec_charge
 _atom_site_pbe_ddec_spin_density
 _atom_site_pbe_ddec_sum_bond_order
 _atom_site_pbe_magmom
Cu  Cu0  1  0.18633064  0.43861997  0.70708763  1  0.988889  -0.543843  0.662125  0.696354  -0.756749  2.378243  -0.542
Cu  Cu1  1  0.31371283  0.56138099  0.20709563  1  0.989098  0.543953  0.662095  0.696404  0.720018  2.377974  0.543
Cu  Cu2  1  0.81370949  0.56139099  0.29291279  1  0.988941  0.544285  0.662044  0.696271  0.720348  2.378176  0.543
Cu  Cu3  1  0.68633685  0.43861561  0.79291677  1  0.988928  0.544238  0.662021  0.69608  0.720068  2.378379  0.543
H  H4  1  0.24742612  0.54285739  0.46352797  1  0.168909  -0.006782  0.108627  0.111282  -0.003822  1.032774  -0.005
H  H5  1  0.25254128  0.45714030  0.96352532  1  0.168939  0.006791  0.108561  0.111179  0.003651  1.032722  0.005
H  H6  1  0.75255333  0.45713190  0.53647778  1  0.168814  0.006942  0.108591  0.111181  0.003682  1.032817  0.005
H  H7  1  0.74743308  0.54286426  0.03647311  1  0.168882  0.006935  0.108562  0.111177  0.00371  1.03281  0.005
H  H8  1  0.37862003  0.35345691  0.39602746  1  0.173834  -0.001237  0.11196  0.139542  -0.000427  1.021238  -0.001
H  H9  1  0.12141934  0.64655179  0.89602653  1  0.174361  0.001224  0.111925  0.139532  0.00039  1.021305  0.001
H  H10  1  0.62139859  0.64655491  0.60397895  1  0.173864  0.001872  0.111902  0.139549  0.001187  1.021166  0.001
H  H11  1  0.87863327  0.35345559  0.10397522  1  0.173795  0.001858  0.111921  0.139485  0.001209  1.021224  0.001
H  H12  1  0.92043514  0.78273673  0.79693674  1  0.072374  -3.4e-05  0.096926  0.112924  -9.9e-05  1.043181  0.0
H  H13  1  0.57955240  0.21726168  0.29694027  1  0.072338  3.3e-05  0.09696  0.113067  3.7e-05  1.042961  0.0
H  H14  1  0.07955384  0.21725887  0.20305970  1  0.072338  6.2e-05  0.096938  0.113018  7e-05  1.04301  0.0
H  H15  1  0.42044334  0.78274112  0.70305750  1  0.07226  5.9e-05  0.096981  0.1131  9.8e-05  1.04307  0.0
H  H16  1  0.17777595  0.73710241  0.48966358  1  0.122495  0.001268  0.093247  0.117222  0.001236  1.034221  0.0
H  H17  1  0.32224708  0.26290071  0.98965985  1  0.122393  -0.001301  0.093231  0.117128  -0.001308  1.034341  0.0
H  H18  1  0.82224019  0.26289143  0.51033951  1  0.122477  0.001498  0.093265  0.117185  0.00133  1.034203  0.0
H  H19  1  0.67777455  0.73711201  0.01033460  1  0.122576  0.00145  0.093304  0.117327  0.001329  1.034099  0.0
H  H20  1  0.31509438  0.17941794  0.69752835  1  0.143694  -0.003166  0.10884  0.083456  -0.001536  1.040512  -0.002
H  H21  1  0.18487616  0.82056674  0.19753201  1  0.143175  0.003171  0.108866  0.08354  0.00147  1.040441  0.002
H  H22  1  0.68486934  0.82057223  0.30247407  1  0.143189  0.003226  0.108852  0.083502  0.00152  1.040503  0.002
H  H23  1  0.81509472  0.17941265  0.80247374  1  0.143595  0.003225  0.108882  0.083538  0.001509  1.040454  0.002
H  H24  1  0.45727797  0.14050251  0.41929357  1  0.077283  8.7e-05  0.10433  0.092019  2.4e-05  1.022603  0.0
H  H25  1  0.04274090  0.85950343  0.91929503  1  0.07766  -2.6e-05  0.104364  0.092084  8e-06  1.022558  0.0
H  H26  1  0.54273608  0.85950751  0.58071018  1  0.077575  -5e-05  0.104381  0.092102  -5.4e-05  1.022478  0.0
H  H27  1  0.95729115  0.14050123  0.08070673  1  0.077856  1.2e-05  0.104371  0.09211  1e-06  1.022512  0.0
H  H28  1  0.82199112  0.97429846  0.75863961  1  0.018979  7.4e-05  0.087558  0.123065  5.7e-05  1.038088  0.0
H  H29  1  0.67801143  0.02569465  0.25863476  1  0.019129  1.5e-05  0.087543  0.123047  -1.2e-05  1.038011  0.0
H  H30  1  0.17800659  0.02568727  0.24135882  1  0.019301  2.4e-05  0.087533  0.123043  -5e-06  1.038133  0.0
H  H31  1  0.32198601  0.97430995  0.74135237  1  0.019144  -6.7e-05  0.087622  0.1231  -5.8e-05  1.038059  0.0
H  H32  1  0.81195150  0.01822607  0.64512614  1  0.027889  -0.000176  0.08945  0.130401  -6.7e-05  0.998643  0.0
H  H33  1  0.68803359  0.98177889  0.14511767  1  0.028015  0.00039  0.089442  0.130387  0.000229  0.998654  0.0
H  H34  1  0.18803290  0.98176772  0.35487495  1  0.028261  0.000375  0.089436  0.130388  0.000221  0.998463  0.0
H  H35  1  0.31194791  0.01823557  0.85486614  1  0.028251  0.000184  0.089446  0.130394  5.7e-05  0.998464  0.0
H  H36  1  0.02345544  0.05652626  0.70696077  1  0.025971  -6.3e-05  0.089282  0.126306  -2.3e-05  1.023315  0.0
H  H37  1  0.47653813  0.94346833  0.20695719  1  0.028776  7.7e-05  0.089283  0.126312  7.1e-05  1.023269  0.0
H  H38  1  0.97653914  0.94345767  0.29303633  1  0.025727  7.5e-05  0.089262  0.126288  6.7e-05  1.023265  0.0
H  H39  1  0.52344489  0.05653625  0.79303194  1  0.025888  6.4e-05  0.089276  0.126279  1.8e-05  1.023313  0.0
H  H40  1  0.06323358  0.93124665  0.53783174  1  0.023332  -0.000676  0.090505  0.095278  -0.000354  1.03953  0.0
H  H41  1  0.43678031  0.06875276  0.03783233  1  0.023683  0.000772  0.090506  0.095298  0.000393  1.039486  0.0
H  H42  1  0.93677390  0.06874718  0.46216603  1  0.02335  0.000747  0.090472  0.095241  0.000344  1.03954  0.0
H  H43  1  0.56324045  0.93125368  0.96216144  1  0.023297  0.000825  0.090459  0.095286  0.000411  1.039494  0.0
H  H44  1  0.41992404  0.04949838  0.57248624  1  0.082134  -0.00116  0.104014  0.104646  -0.000613  1.019132  -0.001
H  H45  1  0.08004462  0.95049640  0.07249501  1  0.082095  0.001227  0.103964  0.104589  0.000631  1.019305  0.001
H  H46  1  0.58004042  0.95049718  0.42751020  1  0.082164  0.001196  0.10397  0.104629  0.000597  1.019219  0.001
H  H47  1  0.91992524  0.04949647  0.92751472  1  0.082095  0.001244  0.103982  0.104603  0.000634  1.019187  0.001
C  C48  1  0.11947456  0.65165938  0.61764606  1  0.380952  -0.002134  0.065459  0.06276  -0.002831  4.045659  -0.001
C  C49  1  0.38052790  0.34833896  0.11764168  1  0.380956  0.002671  0.065455  0.062755  0.002988  4.045589  0.001
C  C50  1  0.88053630  0.34833805  0.38236168  1  0.380887  0.002775  0.065368  0.062622  0.003022  4.045667  0.001
C  C51  1  0.61946941  0.65166473  0.88235409  1  0.380991  0.002196  0.065403  0.062738  0.002538  4.045566  0.001
C  C52  1  0.24211298  0.49520924  0.52736562  1  0.528345  0.007126  0.059816  0.017507  0.003388  3.856156  0.006
C  C53  1  0.25788588  0.50479645  0.02736499  1  0.528389  -0.007515  0.059927  0.017787  -0.004221  3.855932  -0.006
C  C54  1  0.75789442  0.50479447  0.47263946  1  0.528383  -0.007352  0.059813  0.017687  -0.004074  3.855964  -0.006
C  C55  1  0.74210760  0.49521084  0.97263012  1  0.528475  -0.007389  0.059876  0.017622  -0.004152  3.856237  -0.006
C  C56  1  0.36517391  0.31048858  0.46138710  1  -0.038574  -0.000191  -0.070981  -0.138733  -0.000553  3.870946  0.0
C  C57  1  0.13484545  0.68951998  0.96138680  1  -0.039128  0.00014  -0.070933  -0.138678  0.000307  3.870962  0.0
C  C58  1  0.63483832  0.68951874  0.53861731  1  -0.038617  0.001976  -0.071022  -0.138792  0.001608  3.871009  0.001
C  C59  1  0.86517531  0.31048645  0.03861496  1  -0.038535  0.001782  -0.071009  -0.13858  0.001463  3.87108  0.001
C  C60  1  0.98037488  0.77366561  0.73056049  1  0.007205  -0.004259  -0.111393  -0.265034  -0.003734  3.903723  -0.004
C  C61  1  0.51963654  0.22634014  0.23055732  1  0.007033  0.004453  -0.111441  -0.265345  0.003597  3.903782  0.004
C  C62  1  0.01963792  0.22633541  0.26944193  1  0.006827  0.004935  -0.111426  -0.265301  0.00391  3.90375  0.004
C  C63  1  0.48037450  0.77366898  0.76943247  1  0.007226  0.004741  -0.111327  -0.265057  0.003851  3.903284  0.004
C  C64  1  0.12439776  0.74809693  0.55718880  1  -0.137925  -0.003306  -0.09591  -0.134905  -0.002604  4.022242  -0.002
C  C65  1  0.37559116  0.25189881  0.05718784  1  -0.137785  0.003221  -0.09588  -0.134721  0.002314  4.02241  0.002
C  C66  1  0.87558652  0.25189597  0.44281030  1  -0.137802  0.006742  -0.095898  -0.134738  0.004792  4.022262  0.005
C  C67  1  0.62439399  0.74810038  0.94280793  1  -0.137894  0.006546  -0.095997  -0.135046  0.004623  4.022446  0.005
C  C68  1  0.05271776  0.66334466  0.70712138  1  0.640595  -0.003024  0.086111  0.286784  -0.003689  4.109717  -0.001
C  C69  1  0.44731285  0.33665717  0.20711241  1  0.640139  0.002883  0.08602  0.286904  0.003272  4.109357  0.001
C  C70  1  0.94732137  0.33665911  0.29288769  1  0.640496  0.002874  0.086068  0.287008  0.003253  4.109436  0.001
C  C71  1  0.55270823  0.66334117  0.79287937  1  0.640584  0.003229  0.086063  0.286708  0.003569  4.10974  0.001
C  C72  1  0.32665241  0.21157305  0.62915400  1  0.464037  0.00177  0.052223  0.110987  0.000259  3.958582  0.002
C  C73  1  0.17333071  0.78842076  0.12915569  1  0.464061  -0.001947  0.052241  0.110941  -0.000628  3.958529  -0.002
C  C74  1  0.67332961  0.78842434  0.37084842  1  0.464554  -0.001725  0.052223  0.111006  -0.000457  3.958452  -0.002
C  C75  1  0.82664429  0.21156763  0.87084673  1  0.464088  -0.001921  0.052155  0.110838  -0.000621  3.958543  -0.002
C  C76  1  0.29866936  0.37370593  0.53371496  1  0.503299  -0.005473  0.114084  0.199223  -0.004802  4.01182  -0.005
C  C77  1  0.20132589  0.62629435  0.03371749  1  0.503227  0.005628  0.114025  0.199017  0.004584  4.012305  0.005
C  C78  1  0.70132746  0.62629418  0.46628879  1  0.503275  0.00582  0.114189  0.199337  0.004718  4.011914  0.005
C  C79  1  0.79866214  0.37370484  0.96628826  1  0.503375  0.005512  0.114101  0.199084  0.004446  4.011809  0.005
C  C80  1  0.98274139  0.86862274  0.67052279  1  -0.072463  -0.002541  -0.011498  0.187539  -0.001695  4.007303  -0.002
C  C81  1  0.51726165  0.13137591  0.17052437  1  -0.072509  0.002578  -0.011453  0.187681  0.001599  4.007215  0.002
C  C82  1  0.01725731  0.13137017  0.32947232  1  -0.072567  0.002725  -0.011313  0.18779  0.001693  4.007273  0.002
C  C83  1  0.48273736  0.86862959  0.82947008  1  -0.072722  0.002525  -0.011462  0.187509  0.001575  4.00704  0.002
C  C84  1  0.40852183  0.19235236  0.47496869  1  -0.025436  0.002814  -0.065189  -0.020573  0.001874  3.976652  0.002
C  C85  1  0.09149951  0.80765977  0.97496957  1  -0.025481  -0.002419  -0.065191  -0.020504  -0.001733  3.976527  -0.001
C  C86  1  0.59149666  0.80765856  0.52503307  1  -0.025635  -0.002345  -0.065177  -0.020563  -0.001699  3.976584  -0.001
C  C87  1  0.90852344  0.19235206  0.02503352  1  -0.025781  -0.002931  -0.065109  -0.02066  -0.00206  3.976703  -0.002
C  C88  1  0.90568129  0.98496919  0.69689581  1  -0.008588  -0.000454  -0.241012  -0.415218  -0.000294  3.949542  0.0
C  C89  1  0.59430966  0.01502490  0.19689224  1  -0.011599  0.000752  -0.240998  -0.415222  0.000577  3.949418  0.001
C  C90  1  0.09430619  0.01501562  0.30310129  1  -0.009132  0.000785  -0.241031  -0.415248  0.000596  3.949289  0.001
C  C91  1  0.40567611  0.98497878  0.80309622  1  -0.008969  0.000516  -0.241162  -0.415286  0.000306  3.949343  0.0
C  C92  1  0.05960382  0.85595812  0.58412900  1  0.011074  0.000891  -0.120263  -0.198489  0.000511  4.039435  0.0
C  C93  1  0.44038543  0.14403937  0.08413019  1  0.010789  -0.000232  -0.120269  -0.198618  -0.00016  4.039373  0.0
C  C94  1  0.94038478  0.14403478  0.41586677  1  0.011107  0.000185  -0.120325  -0.198655  0.000128  4.03945  0.0
C  C95  1  0.55960260  0.85595982  0.91586625  1  0.011181  -0.000142  -0.120244  -0.19857  -0.0001  4.039494  0.0
C  C96  1  0.38847229  0.14171214  0.55950110  1  -0.050603  -0.004202  -0.085402  -0.131734  -0.003157  3.959041  -0.004
C  C97  1  0.11152773  0.85829080  0.05950267  1  -0.05071  0.004283  -0.085438  -0.13184  0.003014  3.959195  0.004
C  C98  1  0.61153104  0.85829337  0.44050398  1  -0.050873  0.004443  -0.085385  -0.13184  0.003115  3.959015  0.004
C  C99  1  0.88846595  0.14170750  0.94050175  1  -0.050821  0.004359  -0.085406  -0.131684  0.003086  3.958953  0.004
N  N100  1  0.18202447  0.54023349  0.60099406  1  -1.227749  -0.116573  -0.347044  -0.205365  -0.081312  3.751326  -0.099
N  N101  1  0.31800621  0.45977123  0.10098753  1  -1.227509  0.116998  -0.347082  -0.205526  0.077773  3.751177  0.099
N  N102  1  0.81801755  0.45977028  0.39901568  1  -1.227426  0.117098  -0.346974  -0.205423  0.077807  3.750996  0.099
N  N103  1  0.68202270  0.54023163  0.89900891  1  -1.227821  0.116448  -0.347025  -0.205201  0.077228  3.751121  0.099
N  N104  1  0.28071951  0.32359917  0.61630382  1  -1.190323  -0.093251  -0.34105  -0.264444  -0.066563  3.591189  -0.08
N  N105  1  0.21924601  0.67639283  0.11630831  1  -1.190233  0.09371  -0.341073  -0.264467  0.063737  3.591321  0.08
N  N106  1  0.71924759  0.67639460  0.38369793  1  -1.190267  0.093755  -0.341108  -0.264594  0.063742  3.591129  0.08
N  N107  1  0.78070855  0.32359373  0.88369743  1  -1.190212  0.093327  -0.340973  -0.264225  0.063344  3.590979  0.08
Cl  Cl108  1  0.27377289  0.33718768  0.82671953  1  -0.618588  -0.089457  -0.302014  -0.515318  -0.063165  1.311475  -0.067
Cl  Cl109  1  0.22614747  0.66280658  0.32672005  1  -0.61867  0.086288  -0.302016  -0.51537  0.057032  1.311551  0.066
Cl  Cl110  1  0.72612458  0.66277183  0.17327425  1  -0.618629  0.091  -0.301945  -0.51524  0.060377  1.311595  0.07
Cl  Cl111  1  0.77382906  0.33722404  0.67328104  1  -0.618497  0.094298  -0.301947  -0.515216  0.063028  1.311611  0.07
O  O112  1  0.06084302  0.57398430  0.76383319  1  -1.091004  -0.115352  -0.332798  -0.507489  -0.079322  2.346311  -0.102
O  O113  1  0.43921484  0.42602556  0.26382279  1  -1.090675  0.115779  -0.3327  -0.5074  0.075503  2.345852  0.104
O  O114  1  0.93922319  0.42602759  0.23618053  1  -1.090604  0.116447  -0.332721  -0.507508  0.075975  2.346109  0.104
O  O115  1  0.56081865  0.57397910  0.73617099  1  -1.0912  0.116216  -0.332677  -0.50735  0.076005  2.346277  0.103
