# generated using pymatgen
data_CuH9C14N3
_symmetry_space_group_name_H-M   'P 1'
_cell_length_a   4.74936532
_cell_length_b   11.91919682
_cell_length_c   21.12025306
_cell_angle_alpha   85.02476570
_cell_angle_beta   83.57705322
_cell_angle_gamma   78.56209400
_symmetry_Int_Tables_number   1
_chemical_formula_structural   CuH9C14N3
_chemical_formula_sum   'Cu4 H36 C56 N12'
_cell_volume   1161.92931591
_cell_formula_units_Z   4
loop_
 _symmetry_equiv_pos_site_id
 _symmetry_equiv_pos_as_xyz
  1  'x, y, z'
loop_
 _atom_site_type_symbol
 _atom_site_label
 _atom_site_symmetry_multiplicity
 _atom_site_fract_x
 _atom_site_fract_y
 _atom_site_fract_z
 _atom_site_occupancy
 _atom_site_hle17_bader_spin_density
 _atom_site_hle17_ddec_charge
 _atom_site_hle17_ddec_spin_density
 _atom_site_hle17_ddec_sum_bond_order
 _atom_site_hle17_magmom
 _atom_site_hse06_10hf_bader_spin_density
 _atom_site_hse06_10hf_ddec_charge
 _atom_site_hse06_10hf_ddec_spin_density
 _atom_site_hse06_10hf_ddec_sum_bond_order
 _atom_site_hse06_10hf_magmom
 _atom_site_hse06_bader_spin_density
 _atom_site_hse06_ddec_charge
 _atom_site_hse06_ddec_spin_density
 _atom_site_hse06_ddec_sum_bond_order
 _atom_site_hse06_magmom
 _atom_site_pbe_bader_spin_density
 _atom_site_pbe_cm5_charge
 _atom_site_pbe_ddec_charge
 _atom_site_pbe_ddec_spin_density
 _atom_site_pbe_ddec_sum_bond_order
 _atom_site_pbe_magmom
Cu  Cu0  1  0.65803262  0.90374117  0.86732061  1  0  0.362315  0  2.371467  0  0  0.264869  0  2.877478  0  0  0.249937  0  2.844742  0  0  0.511366  0.281192  0  2.894057  0
Cu  Cu1  1  0.42961953  0.59632864  0.63287305  1  0  0.36189  0  2.371626  0  0  0.264716  0  2.877336  0  0  0.249343  0  2.844997  0  0  0.512211  0.2815  0  2.893356  0
Cu  Cu2  1  0.34195385  0.09626243  0.13267942  1  0  0.362293  0  2.371449  0  0  0.264825  0  2.877487  0  0  0.249912  0  2.844711  0  0  0.511309  0.281124  0  2.894061  0
Cu  Cu3  1  0.57039096  0.40366896  0.36712725  1  0  0.361853  0  2.371635  0  0  0.264665  0  2.877343  0  0  0.249285  0  2.845002  0  0  0.512162  0.281461  0  2.893367  0
H  H4  1  0.88606813  0.05162580  0.75612445  1  0  0.070615  0  0.936217  0  0  0.079094  0  1.0014  0  0  0.082525  0  0.997989  0  0  0.109913  0.076676  0  1.003824  0
H  H5  1  0.69274031  0.44806118  0.74387353  1  0  0.069798  0  0.936496  0  0  0.078502  0  1.001435  0  0  0.081904  0  0.998105  0  0  0.109454  0.07612  0  1.003777  0
H  H6  1  0.11394283  0.94837180  0.24387538  1  0  0.07058  0  0.936286  0  0  0.079091  0  1.001434  0  0  0.082523  0  0.998025  0  0  0.109905  0.07667  0  1.00386  0
H  H7  1  0.30726191  0.55194071  0.25612646  1  0  0.069774  0  0.936568  0  0  0.078484  0  1.001484  0  0  0.081884  0  0.998158  0  0  0.109453  0.076105  0  1.003823  0
H  H8  1  0.84564560  0.09096292  0.63947896  1  0  0.096715  0  0.977066  0  0  0.106642  0  1.039074  0  0  0.109368  0  1.038922  0  0  0.100639  0.104744  0  1.039282  0
H  H9  1  0.57553963  0.40886200  0.86052620  1  0  0.095509  0  0.977308  0  0  0.10584  0  1.038955  0  0  0.10856  0  1.03879  0  0  0.100681  0.103967  0  1.039128  0
H  H10  1  0.15436919  0.90903297  0.36052004  1  0  0.09675  0  0.97705  0  0  0.106673  0  1.039032  0  0  0.109398  0  1.038881  0  0  0.100653  0.104777  0  1.039234  0
H  H11  1  0.42446625  0.59113989  0.13947437  1  0  0.095499  0  0.977319  0  0  0.105862  0  1.038936  0  0  0.108578  0  1.038774  0  0  0.100695  0.103993  0  1.039108  0
H  H12  1  0.29325205  0.84039438  0.65379483  1  0  0.107932  0  0.960708  0  0  0.112975  0  1.032258  0  0  0.118272  0  1.02778  0  0  0.10432  0.109092  0  1.035551  0
H  H13  1  0.78904682  0.66003994  0.84626613  1  0  0.108333  0  0.960945  0  0  0.113428  0  1.032377  0  0  0.118647  0  1.027991  0  0  0.104572  0.109599  0  1.035606  0
H  H14  1  0.70675348  0.15960494  0.34620531  1  0  0.107945  0  0.960684  0  0  0.112941  0  1.032324  0  0  0.118241  0  1.027845  0  0  0.104302  0.109055  0  1.035625  0
H  H15  1  0.21095523  0.33996365  0.15373528  1  0  0.108336  0  0.960954  0  0  0.113399  0  1.032412  0  0  0.118646  0  1.027997  0  0  0.104565  0.109576  0  1.035632  0
H  H16  1  0.35528890  0.81276352  0.76956757  1  0  0.082494  0  0.950925  0  0  0.09131  0  1.012974  0  0  0.09311  0  1.012764  0  0  0.11314  0.089839  0  1.013425  0
H  H17  1  0.93802276  0.68723603  0.73044307  1  0  0.082386  0  0.950316  0  0  0.091489  0  1.012158  0  0  0.093227  0  1.011981  0  0  0.113134  0.090013  0  1.012663  0
H  H18  1  0.64471208  0.18723666  0.23043243  1  0  0.082481  0  0.950952  0  0  0.091298  0  1.012996  0  0  0.093097  0  1.01279  0  0  0.113134  0.089825  0  1.013449  0
H  H19  1  0.06197728  0.31276414  0.26955788  1  0  0.082401  0  0.95028  0  0  0.091524  0  1.012111  0  0  0.093245  0  1.011953  0  0  0.113141  0.090046  0  1.012615  0
H  H20  1  0.53145628  0.81126668  0.55950235  1  0  0.096617  0  1.001375  0  0  0.10351  0  1.074708  0  0  0.107303  0  1.071768  0  0  0.097492  0.100599  0  1.076927  0
H  H21  1  0.90483837  0.68893779  0.94062941  1  0  0.095415  0  1.002062  0  0  0.102086  0  1.075725  0  0  0.10588  0  1.072832  0  0  0.097066  0.099185  0  1.077942  0
H  H22  1  0.46853845  0.18873263  0.44049799  1  0  0.096626  0  1.001428  0  0  0.103523  0  1.07475  0  0  0.107316  0  1.071811  0  0  0.097489  0.100612  0  1.076969  0
H  H23  1  0.09516509  0.31106581  0.05937058  1  0  0.09545  0  1.002092  0  0  0.102097  0  1.075772  0  0  0.105879  0  1.072911  0  0  0.097073  0.099196  0  1.077985  0
H  H24  1  0.82954785  0.26103234  0.48956227  1  0  0.118602  0  0.969164  0  0  0.126567  0  1.032336  0  0  0.129603  0  1.031709  0  0  0.105718  0.124354  0  1.032984  0
H  H25  1  0.57799996  0.23897296  0.01060090  1  0  0.118569  0  0.970485  0  0  0.126427  0  1.033932  0  0  0.129491  0  1.03324  0  0  0.105819  0.124176  0  1.034652  0
H  H26  1  0.17046133  0.73896697  0.51043844  1  0  0.118611  0  0.969167  0  0  0.126559  0  1.032343  0  0  0.129596  0  1.031717  0  0  0.10571  0.124346  0  1.032991  0
H  H27  1  0.42198834  0.76102551  0.98939783  1  0  0.118517  0  0.970525  0  0  0.126406  0  1.03395  0  0  0.129471  0  1.033255  0  0  0.105839  0.124162  0  1.034645  0
H  H28  1  0.80173611  0.44824048  0.53513523  1  0  0.082412  0  0.927428  0  0  0.091898  0  0.988534  0  0  0.094308  0  0.986892  0  0  0.115436  0.090041  0  0.989929  0
H  H29  1  0.78376056  0.05205813  0.96478888  1  0  0.081618  0  0.927607  0  0  0.091069  0  0.988605  0  0  0.093538  0  0.986934  0  0  0.115103  0.08917  0  0.99  0
H  H30  1  0.19827160  0.55175796  0.46486742  1  0  0.082436  0  0.927498  0  0  0.091928  0  0.98858  0  0  0.09434  0  0.986936  0  0  0.115441  0.090067  0  0.989977  0
H  H31  1  0.21621234  0.94794033  0.03521042  1  0  0.081565  0  0.927565  0  0  0.091031  0  0.988556  0  0  0.0935  0  0.98688  0  0  0.1151  0.089131  0  0.989955  0
H  H32  1  0.16294405  0.38510622  0.67595202  1  0  0.071242  0  0.938796  0  0  0.079308  0  1.003329  0  0  0.081983  0  1.001212  0  0  0.109903  0.077324  0  1.004976  0
H  H33  1  0.22346022  0.11517984  0.82374324  1  0  0.071461  0  0.938439  0  0  0.079877  0  1.002867  0  0  0.082537  0  1.000731  0  0  0.110092  0.077951  0  1.004473  0
H  H34  1  0.83706171  0.61488965  0.32404966  1  0  0.071299  0  0.938741  0  0  0.079315  0  1.003326  0  0  0.081991  0  1.00121  0  0  0.109906  0.077327  0  1.004977  0
H  H35  1  0.77651617  0.88482721  0.17625450  1  0  0.071428  0  0.938446  0  0  0.079919  0  1.002812  0  0  0.082582  0  1.000669  0  0  0.110129  0.077994  0  1.004415  0
H  H36  1  0.17349389  0.19140471  0.63893305  1  0  0.098023  0  0.963342  0  0  0.110536  0  1.021275  0  0  0.113383  0  1.020738  0  0  0.10161  0.108593  0  1.021698  0
H  H37  1  0.00240136  0.30853690  0.86099881  1  0  0.097836  0  0.963311  0  0  0.110123  0  1.021384  0  0  0.112891  0  1.021  0  0  0.101566  0.108198  0  1.021749  0
H  H38  1  0.82651211  0.80859032  0.36106670  1  0  0.09799  0  0.963449  0  0  0.110505  0  1.021382  0  0  0.113352  0  1.020844  0  0  0.101581  0.108563  0  1.021796  0
H  H39  1  0.99758558  0.69147099  0.13900065  1  0  0.097846  0  0.9633  0  0  0.110175  0  1.02129  0  0  0.112945  0  1.020905  0  0  0.101554  0.108242  0  1.021668  0
C  C40  1  0.75405283  0.00745370  0.73153166  1  0  0.104294  0  3.743798  0  0  0.075849  0  3.999516  0  0  0.080959  0  4.015875  0  0  0.033096  0.071946  0  3.989736  0
C  C41  1  0.49252333  0.49240566  0.76847913  1  0  0.104858  0  3.744772  0  0  0.076205  0  4.000494  0  0  0.081244  0  4.017049  0  0  0.03398  0.072436  0  3.9904  0
C  C42  1  0.24595447  0.99254391  0.26846759  1  0  0.104278  0  3.74407  0  0  0.075812  0  3.999774  0  0  0.080916  0  4.01614  0  0  0.033135  0.071911  0  3.989984  0
C  C43  1  0.50747635  0.50759622  0.23152128  1  0  0.104862  0  3.74486  0  0  0.076198  0  4.000589  0  0  0.08124  0  4.01714  0  0  0.033968  0.072418  0  3.990508  0
C  C44  1  0.72945479  0.02956105  0.66653226  1  0  -0.167938  0  3.750139  0  0  -0.183906  0  3.994473  0  0  -0.191296  0  4.016679  0  0  -0.090135  -0.179058  0  3.979562  0
C  C45  1  0.42535239  0.47039867  0.83349373  1  0  -0.167783  0  3.748155  0  0  -0.183785  0  3.992622  0  0  -0.191243  0  4.015022  0  0  -0.090373  -0.178845  0  3.977442  0
C  C46  1  0.27055753  0.97043570  0.33346665  1  0  -0.167968  0  3.750203  0  0  -0.183923  0  3.994559  0  0  -0.191313  0  4.016767  0  0  -0.09015  -0.179074  0  3.979647  0
C  C47  1  0.57464618  0.52960322  0.16650568  1  0  -0.167719  0  3.748168  0  0  -0.183792  0  3.992626  0  0  -0.191248  0  4.015026  0  0  -0.090354  -0.178852  0  3.977444  0
C  C48  1  0.55799964  0.97159635  0.63597832  1  0  0.097778  0  3.757212  0  0  0.110709  0  3.98395  0  0  0.115432  0  4.006117  0  0  0.007329  0.107611  0  3.969067  0
C  C49  1  0.16620849  0.52859838  0.86405968  1  0  0.10124  0  3.755512  0  0  0.113753  0  3.983081  0  0  0.118421  0  4.005402  0  0  0.008189  0.110747  0  3.967985  0
C  C50  1  0.44200931  0.02840211  0.36402096  1  0  0.097749  0  3.757192  0  0  0.110681  0  3.983911  0  0  0.115406  0  4.006072  0  0  0.00734  0.107585  0  3.969031  0
C  C51  1  0.83379326  0.47140350  0.13594079  1  0  0.10111  0  3.7557  0  0  0.11373  0  3.983137  0  0  0.118397  0  4.005461  0  0  0.008136  0.110725  0  3.968042  0
C  C52  1  0.42631540  0.89011308  0.67410287  1  0  -0.15618  0  3.716271  0  0  -0.172915  0  3.962685  0  0  -0.180364  0  3.982869  0  0  -0.081455  -0.168399  0  3.949664  0
C  C53  1  0.99144066  0.61009035  0.82593583  1  0  -0.158135  0  3.717356  0  0  -0.174395  0  3.963449  0  0  -0.181995  0  3.984038  0  0  -0.081752  -0.169683  0  3.950006  0
C  C54  1  0.57368936  0.10988452  0.32589680  1  0  -0.156137  0  3.716277  0  0  -0.172864  0  3.962689  0  0  -0.180316  0  3.982875  0  0  -0.081446  -0.16835  0  3.949673  0
C  C55  1  0.00856156  0.38991154  0.17406416  1  0  -0.158099  0  3.71732  0  0  -0.174356  0  3.9634  0  0  -0.181981  0  3.983968  0  0  -0.081762  -0.169647  0  3.949954  0
C  C56  1  0.46216854  0.87323579  0.73884435  1  0  0.11957  0  3.695339  0  0  0.094059  0  3.942774  0  0  0.099437  0  3.959249  0  0  0.040527  0.090405  0  3.932424  0
C  C57  1  0.07462415  0.62680081  0.76116925  1  0  0.12001  0  3.694192  0  0  0.094168  0  3.941309  0  0  0.099629  0  3.957933  0  0  0.041173  0.090523  0  3.93073  0
C  C58  1  0.53783705  0.12676439  0.26115528  1  0  0.119526  0  3.69524  0  0  0.094023  0  3.94266  0  0  0.0994  0  3.959139  0  0  0.040552  0.090372  0  3.932312  0
C  C59  1  0.92537134  0.37320021  0.23883156  1  0  0.120019  0  3.694182  0  0  0.094142  0  3.941296  0  0  0.099616  0  3.957931  0  0  0.041187  0.090502  0  3.930712  0
C  C60  1  0.52181394  0.99080027  0.56704696  1  0  0.021615  0  3.725022  0  0  0.030173  0  3.95968  0  0  0.029777  0  3.981041  0  0  -0.003151  0.030174  0  3.945555  0
C  C61  1  0.08016684  0.50931433  0.93298771  1  0  0.019885  0  3.72964  0  0  0.027425  0  3.965174  0  0  0.026971  0  3.986632  0  0  -0.003125  0.027545  0  3.950863  0
C  C62  1  0.47819159  0.00919905  0.43295317  1  0  0.021678  0  3.72503  0  0  0.030239  0  3.959673  0  0  0.029852  0  3.98102  0  0  -0.003138  0.030237  0  3.945545  0
C  C63  1  0.91983403  0.49068841  0.06701320  1  0  0.019877  0  3.729677  0  0  0.027355  0  3.965252  0  0  0.026901  0  3.986708  0  0  -0.003098  0.027474  0  3.950945  0
C  C64  1  0.50933145  0.89548444  0.53367784  1  0  -0.126376  0  3.685404  0  0  -0.151745  0  3.926717  0  0  -0.154434  0  3.946588  0  0  -0.080616  -0.149983  0  3.913803  0
C  C65  1  0.94010350  0.60463288  0.96639001  1  0  -0.123816  0  3.685946  0  0  -0.148348  0  3.926562  0  0  -0.151191  0  3.946501  0  0  -0.079735  -0.146494  0  3.913549  0
C  C66  1  0.49066835  0.10451488  0.46632166  1  0  -0.126489  0  3.685538  0  0  -0.151854  0  3.926862  0  0  -0.154547  0  3.946732  0  0  -0.080656  -0.15009  0  3.913945  0
C  C67  1  0.05989784  0.39536987  0.03361043  1  0  -0.12387  0  3.686089  0  0  -0.148377  0  3.926713  0  0  -0.15122  0  3.946646  0  0  -0.079785  -0.146522  0  3.913694  0
C  C68  1  0.50994656  0.09848398  0.53221713  1  0  0.019242  0  3.726956  0  0  0.02822  0  3.96073  0  0  0.02795  0  3.982239  0  0  -0.001892  0.028246  0  3.946386  0
C  C69  1  0.13967035  0.40150332  0.96774817  1  0  0.017604  0  3.728941  0  0  0.027905  0  3.962034  0  0  0.027644  0  3.98359  0  0  -0.001721  0.02796  0  3.94758  0
C  C70  1  0.49005537  0.90151620  0.46778192  1  0  0.019133  0  3.726887  0  0  0.028138  0  3.96063  0  0  0.027864  0  3.982136  0  0  -0.001918  0.028166  0  3.946287  0
C  C71  1  0.86032934  0.59849857  0.03225224  1  0  0.017636  0  3.728773  0  0  0.027899  0  3.961888  0  0  0.027635  0  3.983451  0  0  -0.001775  0.027953  0  3.947441  0
C  C72  1  0.50469664  0.20823224  0.56072684  1  0  0.094824  0  3.775853  0  0  0.109871  0  4.002546  0  0  0.113992  0  4.024663  0  0  0.00725  0.107258  0  3.987571  0
C  C73  1  0.27223116  0.29176908  0.93926369  1  0  0.097818  0  3.769253  0  0  0.111417  0  3.997489  0  0  0.115552  0  4.019612  0  0  0.008291  0.108743  0  3.982542  0
C  C74  1  0.49531390  0.79176623  0.43927296  1  0  0.094895  0  3.775685  0  0  0.109922  0  4.002351  0  0  0.114046  0  4.024465  0  0  0.007229  0.107307  0  3.987379  0
C  C75  1  0.72776039  0.70823452  0.06073550  1  0  0.097838  0  3.769163  0  0  0.111543  0  3.997261  0  0  0.115683  0  4.019374  0  0  0.008367  0.108868  0  3.982319  0
C  C76  1  0.68075787  0.28339199  0.53166438  1  0  -0.161179  0  3.702  0  0  -0.181497  0  3.951357  0  0  -0.187623  0  3.970378  0  0  -0.083587  -0.177883  0  3.939109  0
C  C77  1  0.49408000  0.21664148  0.96840228  1  0  -0.162225  0  3.699856  0  0  -0.182307  0  3.949499  0  0  -0.188437  0  3.968515  0  0  -0.084687  -0.178667  0  3.937237  0
C  C78  1  0.31924713  0.71660646  0.46833674  1  0  -0.161222  0  3.701979  0  0  -0.181496  0  3.951284  0  0  -0.187624  0  3.970306  0  0  -0.083575  -0.177883  0  3.939037  0
C  C79  1  0.50590493  0.78335869  0.03159681  1  0  -0.16207  0  3.699713  0  0  -0.182232  0  3.949324  0  0  -0.188362  0  3.96834  0  0  -0.084689  -0.178582  0  3.937063  0
C  C80  1  0.66487274  0.38890089  0.55667977  1  0  0.125862  0  3.706656  0  0  0.098376  0  3.961104  0  0  0.104352  0  3.976391  0  0  0.045536  0.094263  0  3.951626  0
C  C81  1  0.60913357  0.11135092  0.94325924  1  0  0.12565  0  3.704381  0  0  0.098154  0  3.958555  0  0  0.104108  0  3.973948  0  0  0.045848  0.094143  0  3.948964  0
C  C82  1  0.33513674  0.61109584  0.44332198  1  0  0.125777  0  3.706734  0  0  0.098311  0  3.961168  0  0  0.104287  0  3.976456  0  0  0.045483  0.094198  0  3.95169  0
C  C83  1  0.39084730  0.88865012  0.05673924  1  0  0.125675  0  3.704242  0  0  0.098154  0  3.958411  0  0  0.104115  0  3.973811  0  0  0.045841  0.094124  0  3.948812  0
C  C84  1  0.31227610  0.35281043  0.63555127  1  0  0.116196  0  3.729541  0  0  0.090272  0  3.98033  0  0  0.095203  0  3.998278  0  0  0.036461  0.087003  0  3.968551  0
C  C85  1  0.29982859  0.14743022  0.86423860  1  0  0.11451  0  3.729687  0  0  0.088088  0  3.980561  0  0  0.093023  0  3.998562  0  0  0.03632  0.084847  0  3.968773  0
C  C86  1  0.68773179  0.64718631  0.36444996  1  0  0.116099  0  3.729625  0  0  0.090248  0  3.980415  0  0  0.095177  0  3.998366  0  0  0.03646  0.086978  0  3.96863  0
C  C87  1  0.70015186  0.85257597  0.13575975  1  0  0.114763  0  3.72959  0  0  0.088265  0  3.980443  0  0  0.093207  0  3.998453  0  0  0.03636  0.085008  0  3.96864  0
C  C88  1  0.31756203  0.24525080  0.61436870  1  0  -0.172873  0  3.755236  0  0  -0.190431  0  4.000249  0  0  -0.198395  0  4.023378  0  0  -0.090274  -0.185199  0  3.984642  0
C  C89  1  0.17584512  0.25479967  0.88554092  1  0  -0.172719  0  3.752512  0  0  -0.189803  0  3.998437  0  0  -0.19762  0  4.021492  0  0  -0.091132  -0.18469  0  3.982925  0
C  C90  1  0.68244515  0.75474508  0.38563156  1  0  -0.172815  0  3.75537  0  0  -0.190382  0  4.000354  0  0  -0.198344  0  4.023483  0  0  -0.090235  -0.185151  0  3.984747  0
C  C91  1  0.82414189  0.74520479  0.11445813  1  0  -0.172883  0  3.752442  0  0  -0.190022  0  3.998357  0  0  -0.197843  0  4.021412  0  0  -0.091153  -0.184908  0  3.982845  0
C  C92  1  0.04095327  0.86300923  0.88472042  1  0  -0.143378  0  3.541599  0  0  -0.152179  0  3.934157  0  0  -0.134638  0  3.92712  0  0  -0.074254  -0.164253  0  3.936905  0
C  C93  1  0.78931315  0.63730795  0.61545899  1  0  -0.145554  0  3.541758  0  0  -0.154802  0  3.934975  0  0  -0.137329  0  3.928112  0  0  -0.07576  -0.166734  0  3.937378  0
C  C94  1  0.95903107  0.13699779  0.11527996  1  0  -0.143356  0  3.54161  0  0  -0.152139  0  3.934137  0  0  -0.134599  0  3.927109  0  0  -0.07421  -0.164207  0  3.936873  0
C  C95  1  0.21070117  0.36268535  0.38454394  1  0  -0.145592  0  3.541783  0  0  -0.154829  0  3.934997  0  0  -0.137352  0  3.92812  0  0  -0.075706  -0.166765  0  3.937406  0
N  N96  1  0.62104440  0.93128931  0.76810882  1  0  -0.275424  0  3.305209  0  0  -0.211599  0  3.590509  0  0  -0.218495  0  3.598229  0  0  -0.344739  -0.208095  0  3.585668  0
N  N97  1  0.32023269  0.56858740  0.73190181  1  0  -0.274552  0  3.306195  0  0  -0.210184  0  3.591393  0  0  -0.217169  0  3.599255  0  0  -0.344857  -0.206585  0  3.586368  0
N  N98  1  0.37895788  0.06870915  0.23189076  1  0  -0.275352  0  3.305194  0  0  -0.211534  0  3.590509  0  0  -0.21843  0  3.598232  0  0  -0.344785  -0.208027  0  3.585664  0
N  N99  1  0.67976169  0.43141363  0.26809800  1  0  -0.274543  0  3.306336  0  0  -0.210136  0  3.59149  0  0  -0.21712  0  3.599337  0  0  -0.344824  -0.206535  0  3.586462  0
N  N100  1  0.48314653  0.42445105  0.60763603  1  0  -0.27592  0  3.309967  0  0  -0.213155  0  3.593515  0  0  -0.221302  0  3.603022  0  0  -0.343319  -0.208777  0  3.587504  0
N  N101  1  0.51463916  0.07597314  0.89209382  1  0  -0.274246  0  3.306924  0  0  -0.211072  0  3.589576  0  0  -0.219379  0  3.599298  0  0  -0.342498  -0.206686  0  3.583533  0
N  N102  1  0.51686337  0.57554482  0.39236575  1  0  -0.275797  0  3.309976  0  0  -0.213115  0  3.593579  0  0  -0.221261  0  3.603085  0  0  -0.343242  -0.208738  0  3.587566  0
N  N103  1  0.48533675  0.92402961  0.10790449  1  0  -0.274505  0  3.306953  0  0  -0.211296  0  3.58959  0  0  -0.21963  0  3.599342  0  0  -0.342625  -0.206858  0  3.583496  0
N  N104  1  0.29123888  0.85418156  0.88815223  1  0  -0.407398  0  3.302397  0  0  -0.347731  0  3.634221  0  0  -0.360568  0  3.638596  0  0  -0.448247  -0.339497  0  3.629865  0
N  N105  1  0.03422635  0.64619699  0.61192881  1  0  -0.404955  0  3.301465  0  0  -0.344975  0  3.632523  0  0  -0.35794  0  3.637367  0  0  -0.445874  -0.336578  0  3.627597  0
N  N106  1  0.70874925  0.14582289  0.11184782  1  0  -0.407365  0  3.302411  0  0  -0.34771  0  3.634261  0  0  -0.360549  0  3.638638  0  0  -0.448236  -0.339474  0  3.629898  0
N  N107  1  0.96578632  0.35379375  0.38807073  1  0  -0.404901  0  3.301492  0  0  -0.344903  0  3.63251  0  0  -0.357867  0  3.637342  0  0  -0.44589  -0.336509  0  3.627586  0
