# generated using pymatgen
data_ZnH5C6(N2O)2
_symmetry_space_group_name_H-M   'P 1'
_cell_length_a   11.86448337
_cell_length_b   11.86445739
_cell_length_c   25.82814394
_cell_angle_alpha   90.00009685
_cell_angle_beta   89.99997880
_cell_angle_gamma   120.00016653
_symmetry_Int_Tables_number   1
_chemical_formula_structural   ZnH5C6(N2O)2
_chemical_formula_sum   'Zn12 H60 C72 N48 O24'
_cell_volume   3148.61684118
_cell_formula_units_Z   12
loop_
 _symmetry_equiv_pos_site_id
 _symmetry_equiv_pos_as_xyz
  1  'x, y, z'
loop_
 _atom_site_type_symbol
 _atom_site_label
 _atom_site_symmetry_multiplicity
 _atom_site_fract_x
 _atom_site_fract_y
 _atom_site_fract_z
 _atom_site_occupancy
 _atom_site_pbe_bader_charge
 _atom_site_pbe_bader_spin_density
 _atom_site_pbe_cm5_charge
 _atom_site_pbe_ddec_charge
 _atom_site_pbe_ddec_spin_density
 _atom_site_pbe_ddec_sum_bond_order
 _atom_site_pbe_magmom
Zn  Zn0  1  0.58325508  0.01133152  0.93842356  1  1.230815  0  0.717634  0.709285  0  2.484105  0
Zn  Zn1  1  0.42807633  0.41674496  0.93842373  1  1.229386  0  0.717604  0.709241  0  2.484032  0
Zn  Zn2  1  0.98866596  0.57192355  0.93842374  1  1.228022  0  0.717646  0.709262  0  2.484133  0
Zn  Zn3  1  0.42807716  0.01133239  0.56157652  1  1.228099  0  0.71767  0.709317  0  2.484061  0
Zn  Zn4  1  0.58325744  0.57192378  0.56157672  1  1.229402  0  0.717628  0.709275  0  2.484038  0
Zn  Zn5  1  0.98866850  0.41674496  0.56157624  1  1.230811  0  0.717648  0.709288  0  2.484106  0
Zn  Zn6  1  0.41674377  0.98866738  0.06157620  1  1.230809  0  0.717649  0.709281  0  2.484111  0
Zn  Zn7  1  0.57192288  0.58325527  0.06157642  1  1.229382  0  0.71762  0.709252  0  2.484131  0
Zn  Zn8  1  0.01133325  0.42807668  0.06157602  1  1.228029  0  0.717666  0.709288  0  2.484087  0
Zn  Zn9  1  0.57192436  0.98866722  0.43842286  1  1.228097  0  0.717646  0.709319  0  2.484017  0
Zn  Zn10  1  0.41674190  0.42807462  0.43842343  1  1.229405  0  0.717667  0.709288  0  2.484099  0
Zn  Zn11  1  0.01133288  0.58325646  0.43842352  1  1.230804  0  0.717636  0.709287  0  2.484068  0
H  H12  1  0.60142282  0.00816259  0.73648299  1  0.092062  0  0.102807  0.105761  0  1.026888  0
H  H13  1  0.40673752  0.39857858  0.73648239  1  0.092543  0  0.102835  0.105793  0  1.026883  0
H  H14  1  0.99183164  0.59325742  0.73648357  1  0.101202  0  0.102815  0.105775  0  1.026846  0
H  H15  1  0.40673691  0.00815799  0.76351631  1  0.10143  0  0.102841  0.105828  0  1.026879  0
H  H16  1  0.60142300  0.59326342  0.76351652  1  0.092352  0  0.102837  0.105828  0  1.026869  0
H  H17  1  0.99183806  0.39857649  0.76351680  1  0.092187  0  0.102828  0.105771  0  1.026882  0
H  H18  1  0.39857555  0.99183679  0.26351561  1  0.092068  0  0.102821  0.105775  0  1.026887  0
H  H19  1  0.59326217  0.60142115  0.26351815  1  0.092534  0  0.102836  0.105796  0  1.026878  0
H  H20  1  0.00816721  0.40674147  0.26351696  1  0.101241  0  0.102806  0.105754  0  1.026877  0
H  H21  1  0.59326278  0.99184175  0.23648306  1  0.101415  0  0.102846  0.10583  0  1.026885  0
H  H22  1  0.39857838  0.40673800  0.23648324  1  0.092366  0  0.102835  0.105814  0  1.026871  0
H  H23  1  0.00816079  0.60142240  0.23648257  1  0.092181  0  0.102827  0.105786  0  1.02688  0
H  H24  1  0.76726620  0.15504153  0.03292106  1  0.153061  0  0.1395  0.107915  0  0.991623  0
H  H25  1  0.38777895  0.23273721  0.03292228  1  0.154447  0  0.139502  0.107908  0  0.991585  0
H  H26  1  0.84495924  0.61222326  0.03292200  1  0.154745  0  0.139506  0.10791  0  0.991528  0
H  H27  1  0.38777727  0.15504225  0.46707811  1  0.154763  0  0.139502  0.107906  0  0.991553  0
H  H28  1  0.76726434  0.61222186  0.46707826  1  0.154464  0  0.139512  0.107922  0  0.991573  0
H  H29  1  0.84495694  0.23273401  0.46707849  1  0.153059  0  0.139481  0.107889  0  0.991569  0
H  H30  1  0.23273350  0.84495821  0.96707870  1  0.153069  0  0.139488  0.107912  0  0.991578  0
H  H31  1  0.61222074  0.76726253  0.96707787  1  0.154457  0  0.139486  0.107876  0  0.991575  0
H  H32  1  0.15504094  0.38777599  0.96707853  1  0.154746  0  0.139506  0.107958  0  0.991554  0
H  H33  1  0.61222291  0.84495700  0.53292204  1  0.154753  0  0.139494  0.107892  0  0.991588  0
H  H34  1  0.23273535  0.38777788  0.53292189  1  0.154467  0  0.139502  0.107901  0  0.991557  0
H  H35  1  0.15504311  0.76726706  0.53292205  1  0.153059  0  0.139499  0.107922  0  0.99157  0
H  H36  1  0.59922930  0.72257530  0.83962502  1  0.067532  0  0.101416  0.106155  0  1.012739  0
H  H37  1  0.12334212  0.40076822  0.83962532  1  0.066528  0  0.101423  0.106147  0  1.012682  0
H  H38  1  0.27742203  0.87665383  0.83962511  1  0.072557  0  0.101416  0.106112  0  1.012736  0
H  H39  1  0.12333867  0.72256706  0.66037447  1  0.072629  0  0.101412  0.106154  0  1.012718  0
H  H40  1  0.59922862  0.87665807  0.66037410  1  0.066517  0  0.10142  0.106154  0  1.012715  0
H  H41  1  0.27742734  0.40077454  0.66037434  1  0.067541  0  0.101416  0.106165  0  1.012699  0
H  H42  1  0.40077111  0.27742710  0.16037435  1  0.06751  0  0.101428  0.106139  0  1.012707  0
H  H43  1  0.87665407  0.59922996  0.16037444  1  0.066532  0  0.101417  0.106136  0  1.012676  0
H  H44  1  0.72257802  0.12334724  0.16037504  1  0.072556  0  0.101406  0.106095  0  1.012745  0
H  H45  1  0.87666031  0.27743002  0.33962606  1  0.072461  0  0.101426  0.106157  0  1.012692  0
H  H46  1  0.40077156  0.12334118  0.33962488  1  0.066547  0  0.101416  0.106113  0  1.012678  0
H  H47  1  0.72257333  0.59922422  0.33962620  1  0.067518  0  0.101392  0.106113  0  1.012747  0
H  H48  1  0.74613287  0.20521204  0.84986287  1  0.518859  0  0.298838  0.324114  0  0.995317  0
H  H49  1  0.45907859  0.25386559  0.84986252  1  0.517138  0  0.29884  0.324117  0  0.995276  0
H  H50  1  0.79478608  0.54092314  0.84986299  1  0.517482  0  0.298877  0.324164  0  0.995243  0
H  H51  1  0.45907812  0.20521243  0.65013735  1  0.517443  0  0.298859  0.324134  0  0.995274  0
H  H52  1  0.74613385  0.54092195  0.65013707  1  0.517178  0  0.298856  0.324147  0  0.995277  0
H  H53  1  0.79478697  0.25386494  0.65013695  1  0.518893  0  0.298853  0.324124  0  0.995305  0
H  H54  1  0.25386634  0.79478818  0.15013728  1  0.518855  0  0.29885  0.324126  0  0.995345  0
H  H55  1  0.54092111  0.74613415  0.15013763  1  0.517133  0  0.298871  0.324199  0  0.995231  0
H  H56  1  0.20521397  0.45907793  0.15013716  1  0.517483  0  0.298865  0.324143  0  0.995245  0
H  H57  1  0.54092158  0.79478730  0.34986280  1  0.517454  0  0.298843  0.324111  0  0.995272  0
H  H58  1  0.25386669  0.45907863  0.34986308  1  0.517176  0  0.29886  0.324152  0  0.995264  0
H  H59  1  0.20521406  0.74613515  0.34986281  1  0.518898  0  0.298854  0.324146  0  0.995298  0
H  H60  1  0.86955416  0.37152722  0.84959770  1  0.504036  0  0.300627  0.324189  0  0.992458  0
H  H61  1  0.50197159  0.13044420  0.84959803  1  0.525813  0  0.300623  0.324182  0  0.992394  0
H  H62  1  0.62847179  0.49802935  0.84959777  1  0.539153  0  0.300608  0.324153  0  0.992473  0
H  H63  1  0.50197118  0.37152630  0.65040262  1  0.53916  0  0.300641  0.324203  0  0.992414  0
H  H64  1  0.86955398  0.49802780  0.65040225  1  0.525812  0  0.300635  0.324203  0  0.992383  0
H  H65  1  0.62847343  0.13044389  0.65040136  1  0.504043  0  0.300625  0.324161  0  0.992482  0
H  H66  1  0.13044505  0.62847300  0.15040244  1  0.50404  0  0.300635  0.324205  0  0.992428  0
H  H67  1  0.49802895  0.86955638  0.15040212  1  0.52581  0  0.300632  0.324198  0  0.992368  0
H  H68  1  0.37152742  0.50197088  0.15040160  1  0.539152  0  0.30062  0.324143  0  0.992469  0
H  H69  1  0.49802985  0.62847379  0.34959791  1  0.539164  0  0.300626  0.324161  0  0.992474  0
H  H70  1  0.13044572  0.50197194  0.34959789  1  0.525811  0  0.300632  0.32419  0  0.992392  0
H  H71  1  0.37152760  0.86955620  0.34959763  1  0.504027  0  0.300633  0.324185  0  0.992443  0
C  C72  1  0.59199242  0.94819635  0.83719327  1  1.528416  0  0.214773  0.579445  0  4.180533  0
C  C73  1  0.35620697  0.40800859  0.83719192  1  1.524664  0  0.214789  0.579484  0  4.18059  0
C  C74  1  0.05180058  0.64379599  0.83719397  1  1.538745  0  0.214749  0.579397  0  4.180528  0
C  C75  1  0.35619869  0.94819136  0.66280561  1  1.53891  0  0.214853  0.579478  0  4.180481  0
C  C76  1  0.59199166  0.64379726  0.66280663  1  1.524499  0  0.214737  0.579366  0  4.180697  0
C  C77  1  0.05180225  0.40800805  0.66280698  1  1.528591  0  0.214737  0.579347  0  4.180624  0
C  C78  1  0.40800715  0.05180521  0.16280533  1  1.528306  0  0.214734  0.579334  0  4.180528  0
C  C79  1  0.64379224  0.59199163  0.16280785  1  1.524664  0  0.214796  0.579533  0  4.180481  0
C  C80  1  0.94819863  0.35620423  0.16280696  1  1.538365  0  0.21474  0.579379  0  4.180521  0
C  C81  1  0.64379884  0.05180718  0.33719338  1  1.538892  0  0.214753  0.579409  0  4.180608  0
C  C82  1  0.40800684  0.35620031  0.33719352  1  1.524478  0  0.214809  0.579435  0  4.180444  0
C  C83  1  0.94819744  0.59199169  0.33719317  1  1.528604  0  0.214722  0.57938  0  4.180578  0
C  C84  1  0.59824923  0.87212556  0.79247070  1  -0.078654  0  -0.014266  -0.030039  0  3.966669  0
C  C85  1  0.27387460  0.40174854  0.79247016  1  -0.074104  0  -0.014241  -0.030135  0  3.966697  0
C  C86  1  0.12787170  0.72612413  0.79247069  1  -0.079743  0  -0.014226  -0.030078  0  3.966704  0
C  C87  1  0.27387158  0.87211923  0.70752889  1  -0.078781  0  -0.014172  -0.030005  0  3.966597  0
C  C88  1  0.59824837  0.72612656  0.70752881  1  -0.074184  0  -0.014167  -0.030005  0  3.966701  0
C  C89  1  0.12787504  0.40175056  0.70752989  1  -0.078707  0  -0.014227  -0.030065  0  3.966678  0
C  C90  1  0.40175215  0.12787586  0.20752867  1  -0.078764  0  -0.014219  -0.030053  0  3.966554  0
C  C91  1  0.72612510  0.59825120  0.20752999  1  -0.074079  0  -0.014218  -0.030108  0  3.966649  0
C  C92  1  0.87212751  0.27387609  0.20752946  1  -0.079709  0  -0.014227  -0.030086  0  3.96675  0
C  C93  1  0.72612811  0.12788051  0.29247087  1  -0.078769  0  -0.014189  -0.030068  0  3.966649  0
C  C94  1  0.40175349  0.27387438  0.29247056  1  -0.073947  0  -0.01423  -0.03008  0  3.966725  0
C  C95  1  0.87212514  0.59824869  0.29247026  1  -0.078854  0  -0.014212  -0.030012  0  3.966602  0
C  C96  1  0.60091829  0.91695638  0.74198161  1  0.039158  0  -0.082155  -0.092234  0  3.971506  0
C  C97  1  0.31603429  0.39907971  0.74198105  1  0.035561  0  -0.082223  -0.092266  0  3.971572  0
C  C98  1  0.08303983  0.68395977  0.74198195  1  -0.010402  0  -0.082172  -0.09223  0  3.971486  0
C  C99  1  0.31603484  0.91695222  0.75801763  1  -0.010611  0  -0.082217  -0.092319  0  3.971617  0
C  C100  1  0.60091550  0.68396331  0.75801829  1  0.035196  0  -0.082214  -0.092321  0  3.971614  0
C  C101  1  0.08304392  0.39908030  0.75801939  1  0.038824  0  -0.082229  -0.092255  0  3.971557  0
C  C102  1  0.39908225  0.08304420  0.25801776  1  0.039151  0  -0.082185  -0.092264  0  3.971558  0
C  C103  1  0.68396504  0.60091869  0.25801910  1  0.035077  0  -0.082217  -0.092271  0  3.971594  0
C  C104  1  0.91695951  0.31603864  0.25801820  1  -0.010391  0  -0.082169  -0.092199  0  3.971492  0
C  C105  1  0.68396437  0.08304800  0.24198136  1  -0.010666  0  -0.082219  -0.092326  0  3.971645  0
C  C106  1  0.39908420  0.31603643  0.24198147  1  0.035151  0  -0.082222  -0.092332  0  3.97167  0
C  C107  1  0.91695493  0.60091859  0.24198076  1  0.038763  0  -0.082235  -0.092316  0  3.971572  0
C  C108  1  0.83339839  0.28008161  0.91919114  1  1.491177  0  0.328755  0.545817  0  4.101852  0
C  C109  1  0.44668498  0.16660346  0.91919112  1  1.481526  0  0.328753  0.545797  0  4.101735  0
C  C110  1  0.71991830  0.55331723  0.91919164  1  1.498045  0  0.328719  0.545662  0  4.102006  0
C  C111  1  0.44668680  0.28008287  0.58080874  1  1.497928  0  0.328737  0.545775  0  4.101914  0
C  C112  1  0.83339718  0.55331571  0.58080920  1  1.481473  0  0.328758  0.545801  0  4.10176  0
C  C113  1  0.71991796  0.16660050  0.58080906  1  1.491172  0  0.328772  0.545776  0  4.101826  0
C  C114  1  0.16660131  0.71991813  0.08080901  1  1.491656  0  0.328705  0.54566  0  4.102001  0
C  C115  1  0.55331604  0.83339663  0.08080825  1  1.481463  0  0.32869  0.545668  0  4.101921  0
C  C116  1  0.28008188  0.44668202  0.08080890  1  1.497697  0  0.328716  0.545748  0  4.101766  0
C  C117  1  0.55331422  0.71991722  0.41919141  1  1.498414  0  0.328742  0.545743  0  4.101769  0
C  C118  1  0.16660203  0.44668451  0.41919172  1  1.481511  0  0.328724  0.545694  0  4.101941  0
C  C119  1  0.28008355  0.83339910  0.41919109  1  1.491771  0  0.328761  0.54578  0  4.101901  0
C  C120  1  0.80443592  0.21473552  0.99838960  1  1.016653  0  0.145654  0.164767  0  4.00396  0
C  C121  1  0.41030049  0.19556446  0.99838963  1  1.003197  0  0.145641  0.164782  0  4.00407  0
C  C122  1  0.78526423  0.58970066  0.99838936  1  0.99994  0  0.145622  0.164719  0  4.004004  0
C  C123  1  0.41030049  0.21473464  0.50161101  1  0.999971  0  0.145626  0.164774  0  4.003951  0
C  C124  1  0.80443595  0.58970073  0.50161034  1  1.003182  0  0.145665  0.164811  0  4.00388  0
C  C125  1  0.78526521  0.19556502  0.50161058  1  1.016639  0  0.145659  0.16481  0  4.003915  0
C  C126  1  0.19556294  0.78526337  0.00161055  1  1.016666  0  0.145625  0.164729  0  4.004061  0
C  C127  1  0.58970054  0.80443563  0.00161052  1  1.003165  0  0.14564  0.164809  0  4.00404  0
C  C128  1  0.21473449  0.41030005  0.00161040  1  0.999889  0  0.14566  0.164757  0  4.003887  0
C  C129  1  0.58969970  0.78526461  0.49838953  1  0.999808  0  0.145693  0.164893  0  4.003873  0
C  C130  1  0.19556326  0.41029950  0.49838942  1  1.003207  0  0.145635  0.164779  0  4.004069  0
C  C131  1  0.21473786  0.80443809  0.49838996  1  1.016477  0  0.14565  0.164751  0  4.00403  0
C  C132  1  0.59965865  0.75579604  0.80027377  1  -0.011953  0  -0.081926  -0.086179  0  3.955626  0
C  C133  1  0.15613508  0.40033565  0.80027367  1  -0.009443  0  -0.081927  -0.086146  0  3.955674  0
C  C134  1  0.24420075  0.84386261  0.80027306  1  0.018703  0  -0.081909  -0.086075  0  3.955664  0
C  C135  1  0.15613098  0.75579062  0.69972613  1  0.018174  0  -0.081998  -0.086251  0  3.955563  0
C  C136  1  0.59965879  0.84386569  0.69972613  1  -0.009961  0  -0.08197  -0.086197  0  3.955627  0
C  C137  1  0.24420206  0.40033975  0.69972637  1  -0.01263  0  -0.08191  -0.086142  0  3.955669  0
C  C138  1  0.40034225  0.24420587  0.19972637  1  -0.011718  0  -0.081923  -0.086093  0  3.955599  0
C  C139  1  0.84386510  0.59966360  0.19972609  1  -0.009448  0  -0.081912  -0.086105  0  3.955624  0
C  C140  1  0.75579979  0.15613797  0.19972670  1  0.018723  0  -0.081907  -0.086046  0  3.955718  0
C  C141  1  0.84386836  0.24420779  0.30027402  1  0.018337  0  -0.081991  -0.086214  0  3.955577  0
C  C142  1  0.40034224  0.15613440  0.30027286  1  -0.010126  0  -0.081928  -0.086084  0  3.955593  0
C  C143  1  0.75579595  0.59965830  0.30027416  1  -0.011976  0  -0.081896  -0.08611  0  3.955652  0
N  N144  1  0.92167316  0.38085590  0.94827185  1  -0.793342  0  -0.292318  -0.352894  0  3.408487  0
N  N145  1  0.45918406  0.07832823  0.94827216  1  -0.790885  0  -0.292297  -0.352788  0  3.408401  0
N  N146  1  0.61914487  0.54081969  0.94827271  1  -0.794412  0  -0.292261  -0.352774  0  3.408556  0
N  N147  1  0.45918281  0.38085485  0.55172849  1  -0.794341  0  -0.292321  -0.352839  0  3.408524  0
N  N148  1  0.92167351  0.54081678  0.55172774  1  -0.790902  0  -0.292291  -0.35278  0  3.408368  0
N  N149  1  0.61914255  0.07832523  0.55172797  1  -0.793343  0  -0.292292  -0.352795  0  3.408384  0
N  N150  1  0.07832605  0.61914433  0.05172830  1  -0.793366  0  -0.292297  -0.35275  0  3.408442  0
N  N151  1  0.54081696  0.92167186  0.05172760  1  -0.79088  0  -0.292293  -0.352739  0  3.40851  0
N  N152  1  0.38085567  0.45918089  0.05172744  1  -0.794094  0  -0.292293  -0.35284  0  3.408483  0
N  N153  1  0.54081688  0.61914488  0.44827205  1  -0.794486  0  -0.292319  -0.352804  0  3.408472  0
N  N154  1  0.07832801  0.45918282  0.44827203  1  -0.790917  0  -0.292301  -0.352774  0  3.408503  0
N  N155  1  0.38085679  0.92167318  0.44827218  1  -0.793364  0  -0.292316  -0.352881  0  3.408538  0
N  N156  1  0.75848313  0.17404103  0.94985223  1  -1.238617  0  -0.372415  -0.429763  0  3.451487  0
N  N157  1  0.41556018  0.24151826  0.94985344  1  -1.228804  0  -0.37239  -0.429722  0  3.451475  0
N  N158  1  0.82595759  0.58444236  0.94985277  1  -1.242008  0  -0.372387  -0.429636  0  3.451557  0
N  N159  1  0.41555996  0.17404159  0.55014758  1  -1.242227  0  -0.372404  -0.429754  0  3.451569  0
N  N160  1  0.75848184  0.58443983  0.55014771  1  -1.228786  0  -0.372421  -0.429769  0  3.451507  0
N  N161  1  0.82595923  0.24151662  0.55014796  1  -1.238625  0  -0.372394  -0.429723  0  3.45148  0
N  N162  1  0.24151488  0.82595702  0.05014792  1  -1.239077  0  -0.372383  -0.429676  0  3.45156  0
N  N163  1  0.58444036  0.75848232  0.05014709  1  -1.228814  0  -0.372373  -0.429675  0  3.45159  0
N  N164  1  0.17404162  0.41555786  0.05014699  1  -1.242116  0  -0.372412  -0.429753  0  3.4515  0
N  N165  1  0.58444106  0.82595850  0.44985257  1  -1.242046  0  -0.372415  -0.429772  0  3.45143  0
N  N166  1  0.24151652  0.41555955  0.44985283  1  -1.228807  0  -0.372397  -0.429674  0  3.451584  0
N  N167  1  0.17404348  0.75848516  0.44985258  1  -1.239157  0  -0.37242  -0.429716  0  3.451437  0
N  N168  1  0.82340911  0.28260813  0.86761562  1  -1.298589  0  -0.582987  -0.658939  0  3.295323  0
N  N169  1  0.45919947  0.17659135  0.86761561  1  -1.317874  0  -0.582986  -0.658929  0  3.295181  0
N  N170  1  0.71739153  0.54080393  0.86761534  1  -1.330936  0  -0.582976  -0.658894  0  3.295266  0
N  N171  1  0.45920012  0.28260790  0.63238465  1  -1.330929  0  -0.582991  -0.658933  0  3.295239  0
N  N172  1  0.82340922  0.54080128  0.63238472  1  -1.317881  0  -0.583014  -0.658984  0  3.295186  0
N  N173  1  0.71739187  0.17658941  0.63238420  1  -1.298612  0  -0.582999  -0.658897  0  3.295349  0
N  N174  1  0.17659095  0.71739294  0.13238453  1  -1.298604  0  -0.582964  -0.658901  0  3.295345  0
N  N175  1  0.54080240  0.82340958  0.13238454  1  -1.317799  0  -0.582985  -0.65898  0  3.295144  0
N  N176  1  0.28260950  0.45919616  0.13238520  1  -1.330965  0  -0.582988  -0.658878  0  3.295229  0
N  N177  1  0.54080006  0.71739135  0.36761588  1  -1.33134  0  -0.582977  -0.658867  0  3.295274  0
N  N178  1  0.17659083  0.45919979  0.36761543  1  -1.317901  0  -0.582999  -0.658944  0  3.295188  0
N  N179  1  0.28260916  0.82341068  0.36761595  1  -1.298596  0  -0.583007  -0.658941  0  3.295331  0
N  N180  1  0.90043542  0.33664775  0.99932157  1  -0.857772  0  -0.278998  -0.215888  0  3.572707  0
N  N181  1  0.43621450  0.09957019  0.99932191  1  -0.845824  0  -0.278987  -0.215968  0  3.572716  0
N  N182  1  0.66335529  0.56378826  0.99932207  1  -0.845496  0  -0.278998  -0.215898  0  3.572794  0
N  N183  1  0.43621250  0.33664439  0.50067835  1  -0.845307  0  -0.278961  -0.215916  0  3.572659  0
N  N184  1  0.90043305  0.56378672  0.50067801  1  -0.845814  0  -0.279011  -0.215987  0  3.572699  0
N  N185  1  0.66335489  0.09956709  0.50067785  1  -0.857754  0  -0.279021  -0.216005  0  3.572695  0
N  N186  1  0.09956428  0.66335199  0.00067896  1  -0.857789  0  -0.278973  -0.215931  0  3.572814  0
N  N187  1  0.56378688  0.90043124  0.00067824  1  -0.845829  0  -0.278976  -0.215978  0  3.572723  0
N  N188  1  0.33664658  0.43621267  0.00067808  1  -0.845283  0  -0.278981  -0.215911  0  3.572709  0
N  N189  1  0.56378768  0.66335486  0.49932142  1  -0.845265  0  -0.278994  -0.216005  0  3.572671  0
N  N190  1  0.09956797  0.43621337  0.49932175  1  -0.845836  0  -0.278982  -0.215967  0  3.572767  0
N  N191  1  0.33664782  0.90043468  0.49932153  1  -0.857649  0  -0.27901  -0.215923  0  3.572773  0
O  O192  1  0.57869398  0.89753227  0.88271491  1  -1.15814  0  -0.329932  -0.530949  0  2.308794  0
O  O193  1  0.31884605  0.42131468  0.88271320  1  -1.156831  0  -0.329887  -0.530893  0  2.308777  0
O  O194  1  0.10246580  0.68116199  0.88271525  1  -1.158632  0  -0.329917  -0.53091  0  2.308831  0
O  O195  1  0.31883483  0.89752899  0.61728393  1  -1.158755  0  -0.330015  -0.530985  0  2.308811  0
O  O196  1  0.57869225  0.68116183  0.61728576  1  -1.156436  0  -0.329921  -0.530897  0  2.308776  0
O  O197  1  0.10246760  0.42130674  0.61728532  1  -1.158115  0  -0.329915  -0.53089  0  2.30882  0
O  O198  1  0.42130523  0.10246795  0.11728447  1  -1.15821  0  -0.329958  -0.530919  0  2.308932  0
O  O199  1  0.68115303  0.57868736  0.11728656  1  -1.156818  0  -0.329902  -0.530965  0  2.308756  0
O  O200  1  0.89753257  0.31883739  0.11728528  1  -1.158608  0  -0.329914  -0.5309  0  2.308741  0
O  O201  1  0.68116305  0.10247087  0.38271467  1  -1.158677  0  -0.329945  -0.530946  0  2.308778  0
O  O202  1  0.42130492  0.31883537  0.38271555  1  -1.156474  0  -0.329963  -0.530914  0  2.308822  0
O  O203  1  0.89753343  0.57869336  0.38271445  1  -1.158128  0  -0.329898  -0.530922  0  2.308809  0
O  O204  1  0.59926568  0.05711541  0.82964418  1  -1.203474  0  -0.315047  -0.570588  0  2.214964  0
O  O205  1  0.45784781  0.40073014  0.82964161  1  -1.205108  0  -0.315088  -0.570635  0  2.215056  0
O  O206  1  0.94288041  0.54214858  0.82964550  1  -1.20947  0  -0.315052  -0.570571  0  2.214916  0
O  O207  1  0.45784436  0.05711061  0.67035516  1  -1.209448  0  -0.315049  -0.570584  0  2.214948  0
O  O208  1  0.59926741  0.54215359  0.67035572  1  -1.205285  0  -0.315038  -0.570569  0  2.215092  0
O  O209  1  0.94288336  0.40073237  0.67035564  1  -1.203522  0  -0.315037  -0.57056  0  2.215004  0
O  O210  1  0.40073353  0.94288482  0.17035481  1  -1.20342  0  -0.315029  -0.570543  0  2.214815  0
O  O211  1  0.54215140  0.59927009  0.17035854  1  -1.20512  0  -0.315085  -0.570635  0  2.215011  0
O  O212  1  0.05711929  0.45785116  0.17035543  1  -1.209106  0  -0.315063  -0.57059  0  2.214912  0
O  O213  1  0.54215498  0.94288780  0.32964499  1  -1.209506  0  -0.315024  -0.570553  0  2.21503  0
O  O214  1  0.40073313  0.45784699  0.32964443  1  -1.205244  0  -0.315056  -0.570604  0  2.214857  0
O  O215  1  0.05711767  0.59926772  0.32964412  1  -1.203534  0  -0.31506  -0.570602  0  2.214993  0
