# generated using pymatgen
data_CuH17C18N2O7
_symmetry_space_group_name_H-M   'P 1'
_cell_length_a   7.49711715
_cell_length_b   9.67750028
_cell_length_c   13.28163602
_cell_angle_alpha   69.13667929
_cell_angle_beta   89.46759219
_cell_angle_gamma   73.64865414
_symmetry_Int_Tables_number   1
_chemical_formula_structural   CuH17C18N2O7
_chemical_formula_sum   'Cu2 H34 C36 N4 O14'
_cell_volume   859.56632483
_cell_formula_units_Z   2
loop_
 _symmetry_equiv_pos_site_id
 _symmetry_equiv_pos_as_xyz
  1  'x, y, z'
loop_
 _atom_site_type_symbol
 _atom_site_label
 _atom_site_symmetry_multiplicity
 _atom_site_fract_x
 _atom_site_fract_y
 _atom_site_fract_z
 _atom_site_occupancy
 _atom_site_hle17_ddec_charge
 _atom_site_hle17_ddec_spin_density
 _atom_site_hle17_ddec_sum_bond_order
 _atom_site_hle17_magmom
 _atom_site_hse06_10hf_ddec_charge
 _atom_site_hse06_10hf_ddec_spin_density
 _atom_site_hse06_10hf_ddec_sum_bond_order
 _atom_site_hse06_10hf_magmom
 _atom_site_hse06_ddec_charge
 _atom_site_hse06_ddec_spin_density
 _atom_site_hse06_ddec_sum_bond_order
 _atom_site_hse06_magmom
 _atom_site_pbe_cm5_charge
 _atom_site_pbe_ddec_charge
 _atom_site_pbe_ddec_spin_density
 _atom_site_pbe_ddec_sum_bond_order
 _atom_site_pbe_magmom
Cu  Cu0  1  0.73732793  0.83921161  0.81774782  1  0.850892  0.740365  1.833491  0.519  0.82108  0.818964  2.233741  0.632  0.909782  0.891352  2.165445  0.715  0.731313  0.767276  0.766614  2.280887  0.579
Cu  Cu1  1  0.26266874  0.16079075  0.18225175  1  0.850811  -0.740364  1.833589  -0.519  0.820979  -0.81896  2.233893  -0.632  0.909691  -0.891348  2.165539  -0.715  0.731309  0.767276  -0.766614  2.280846  -0.579
H  H2  1  0.53448728  0.83407687  0.02836936  1  0.100094  0.000764  0.936686  0.002  0.110607  0.000462  0.994034  0.002  0.113328  0.00033  0.990916  0.001  0.122028  0.108281  0.000565  0.996858  0.002
H  H3  1  0.46550893  0.16592317  0.97163458  1  0.100093  -0.000762  0.936685  -0.002  0.110603  -0.000462  0.99402  -0.002  0.113326  -0.00033  0.990905  -0.001  0.122035  0.108283  -0.000565  0.996836  -0.002
H  H4  1  0.50475295  0.61818519  0.19531015  1  0.12037  0.000392  0.931696  0.001  0.133754  0.00028  0.982905  0.001  0.136819  0.000208  0.982719  0.0  0.116311  0.131475  0.000329  0.983217  0.001
H  H5  1  0.49525078  0.38181254  0.80469583  1  0.120504  -0.000395  0.931604  -0.001  0.133797  -0.000279  0.982925  -0.001  0.136861  -0.000208  0.982743  0.0  0.116319  0.131517  -0.000329  0.983232  -0.001
H  H6  1  0.64275365  0.34452658  0.21084277  1  0.12075  0.000289  0.9437  0.0  0.127971  3.5e-05  1.006765  0.0  0.131153  7e-06  1.004138  0.0  0.11334  0.12546  7e-05  1.008926  0.0
H  H7  1  0.35724971  0.65547580  0.78915975  1  0.120785  -0.000287  0.943608  0.0  0.127969  -3.6e-05  1.006724  0.0  0.131166  -7e-06  1.004078  0.0  0.113327  0.125461  -7e-05  1.008886  0.0
H  H8  1  0.82313122  0.15644330  0.12053826  1  0.115345  0.000394  0.958375  0.0  0.123503  0.00026  1.021582  0.0  0.126413  0.000175  1.021087  0.0  0.107625  0.12122  0.000328  1.022386  0.0
H  H9  1  0.17686363  0.84355674  0.87946267  1  0.115374  -0.000391  0.958359  0.0  0.123512  -0.00026  1.021569  0.0  0.126436  -0.000175  1.021059  0.0  0.107618  0.121227  -0.000328  1.022372  0.0
H  H10  1  0.98302828  0.12094991  0.96329947  1  0.105084  0.000418  0.941123  0.001  0.12162  0.000297  0.990195  0.0  0.123924  0.000189  0.990107  0.0  0.111412  0.119718  0.000368  0.990742  0.0
H  H11  1  0.01697017  0.87905130  0.03670264  1  0.105112  -0.000421  0.941084  -0.001  0.121675  -0.000297  0.990127  0.0  0.123978  -0.000189  0.990039  0.0  0.111411  0.119776  -0.000368  0.990677  0.0
H  H12  1  0.08897561  0.24061067  0.77599955  1  0.119236  0.000343  0.981568  0.001  0.126087  6.7e-05  1.045144  0.0  0.129819  2.4e-05  1.041564  0.0  0.111004  0.123339  0.000128  1.047606  0.0
H  H13  1  0.91102236  0.75938821  0.22400468  1  0.119379  -0.000346  0.981505  -0.001  0.126183  -6.8e-05  1.045114  0.0  0.129926  -2.3e-05  1.041518  0.0  0.111032  0.123439  -0.000128  1.047576  0.0
H  H14  1  0.10262620  0.48349330  0.62649816  1  0.108876  0.000571  0.949714  0.001  0.119249  0.000486  1.009602  0.001  0.122225  0.000352  1.008879  0.0  0.112314  0.116877  0.000642  1.010508  0.001
H  H15  1  0.89737610  0.51650096  0.37350647  1  0.108939  -0.00057  0.949764  -0.001  0.119309  -0.000487  1.009648  -0.001  0.12229  -0.000352  1.008928  0.0  0.112309  0.116936  -0.000642  1.010551  -0.001
H  H16  1  0.95756828  0.73999771  0.64337884  1  0.094374  0.001667  0.937373  0.003  0.102844  0.001285  1.000353  0.002  0.10484  0.000894  0.99728  0.002  0.126989  0.101168  0.001622  1.002693  0.003
H  H17  1  0.04243448  0.25999887  0.35662142  1  0.094337  -0.001668  0.937413  -0.003  0.1028  -0.001286  1.0004  -0.002  0.104795  -0.000893  0.997326  -0.002  0.126958  0.10112  -0.001622  1.002742  -0.003
H  H18  1  0.15735379  0.91524280  0.60418541  1  0.10943  0.00019  0.953309  0.0  0.12116  0.00012  1.020707  0.0  0.12445  6.9e-05  1.018267  0.0  0.100445  0.118863  0.000168  1.022378  0.0
H  H19  1  0.84264604  0.08476189  0.39581277  1  0.109445  -0.00019  0.953287  0.0  0.121173  -0.00012  1.020707  0.0  0.124465  -6.9e-05  1.018266  0.0  0.100443  0.118876  -0.000168  1.022373  0.0
H  H20  1  0.24631440  0.06236848  0.52114167  1  0.116922  -7e-06  0.930489  0.0  0.131697  -3e-05  0.988403  0.0  0.134357  -2.4e-05  0.986905  0.0  0.103752  0.129743  -3e-05  0.989617  0.0
H  H21  1  0.75368635  0.93763737  0.47885771  1  0.116855  9e-06  0.930609  0.0  0.131698  3e-05  0.988447  0.0  0.134361  2.4e-05  0.986944  0.0  0.103774  0.129735  3e-05  0.989671  0.0
H  H22  1  0.02459406  0.25083058  0.59796600  1  0.098331  0.000864  0.936877  0.001  0.112121  0.000647  0.999906  0.001  0.112967  0.000394  1.000463  0.0  0.099435  0.111518  0.000977  0.999513  0.001
H  H23  1  0.97540662  0.74917179  0.40203504  1  0.098299  -0.000865  0.936908  -0.001  0.112135  -0.000647  0.999916  -0.001  0.11298  -0.000394  1.000471  0.0  0.099435  0.111527  -0.000976  0.999528  -0.001
H  H24  1  0.91423363  0.18525622  0.51557865  1  0.107212  -0.000173  0.955649  0.0  0.12173  -1e-06  1.017919  0.0  0.123296  -2.9e-05  1.017984  0.0  0.102379  0.120595  3.9e-05  1.017979  0.0
H  H25  1  0.08577152  0.81474848  0.48441948  1  0.107177  0.000172  0.955658  0.0  0.121702  1e-06  1.017958  0.0  0.123267  2.9e-05  1.018019  0.0  0.102376  0.120567  -3.9e-05  1.018023  0.0
H  H26  1  0.47254915  0.03973786  0.82072432  1  0.404248  -0.000373  0.910166  -0.002  0.371263  0.000315  0.979448  0.0  0.384048  8.7e-05  0.961609  -0.001  0.279629  0.362253  0.000509  0.992005  0.0
H  H27  1  0.52745102  0.96026219  0.17927431  1  0.404253  0.000373  0.910128  0.002  0.371276  -0.000315  0.97943  0.001  0.384058  -8.8e-05  0.961593  0.001  0.279638  0.362261  -0.000509  0.991995  0.0
H  H28  1  0.65647252  0.10293512  0.79930484  1  0.401264  -0.000322  0.917697  -0.002  0.370014  0.000381  0.983473  -0.001  0.383499  0.000131  0.964805  -0.001  0.277736  0.360575  0.000612  0.996498  0.0
H  H29  1  0.34352413  0.89706725  0.20069322  1  0.401233  0.000322  0.917771  0.002  0.369952  -0.00038  0.983548  0.001  0.383439  -0.000131  0.964879  0.001  0.277719  0.360513  -0.000611  0.996575  0.0
H  H30  1  0.70111947  0.48105176  0.53962906  1  0.108145  1e-06  0.929559  0.0  0.121154  -7e-06  0.994742  0.0  0.123541  -1e-06  0.993953  0.0  0.103524  0.119407  -1.5e-05  0.995459  0.0
H  H31  1  0.29888675  0.51894252  0.46036650  1  0.108104  -2e-06  0.929548  0.0  0.121097  7e-06  0.994793  0.0  0.123491  0.0  0.993998  0.0  0.103493  0.119324  1.5e-05  0.995538  0.0
H  H32  1  0.57390429  0.62609877  0.41914137  1  0.113661  -7e-06  0.918682  0.0  0.128246  -1.2e-05  0.976548  0.0  0.131005  -8e-06  0.975098  0.0  0.10575  0.126252  -2.5e-05  0.977673  0.0
H  H33  1  0.42610152  0.37389666  0.58085540  1  0.113589  7e-06  0.918828  0.0  0.128257  1.1e-05  0.97664  0.0  0.131019  8e-06  0.975189  0.0  0.105751  0.126259  2.5e-05  0.977754  0.0
H  H34  1  0.52670244  0.81092265  0.61264232  1  0.400169  3.6e-05  0.89419  0.0  0.36973  2.4e-05  0.972142  0.0  0.382915  2.4e-05  0.958342  0.0  0.295449  0.360573  2.7e-05  0.981551  0.0
H  H35  1  0.47330197  0.18906930  0.38735613  1  0.400131  -3.6e-05  0.894266  0.0  0.369703  -2.4e-05  0.972206  0.0  0.382913  -2.4e-05  0.958354  0.0  0.295413  0.360513  -2.7e-05  0.981682  0.0
C  C36  1  0.59342043  0.71336337  0.03678399  1  0.152499  -0.006872  3.658831  -0.008  0.125277  -0.001643  3.91434  -0.003  0.137195  -0.002408  3.93008  -0.004  0.060702  0.117491  -0.001068  3.904265  -0.002
C  C37  1  0.40657669  0.28663783  0.96321888  1  0.152519  0.006839  3.658956  0.008  0.125319  0.001644  3.914427  0.003  0.137231  0.002408  3.930171  0.004  0.060683  0.117526  0.001068  3.904358  0.002
C  C38  1  0.57721798  0.59142441  0.13001796  1  -0.110909  0.008491  3.702281  0.009  -0.12617  0.004013  3.956948  0.005  -0.133909  0.003552  3.976854  0.004  -0.077672  -0.121124  0.004377  3.943723  0.005
C  C39  1  0.42278273  0.40857796  0.86998609  1  -0.110988  -0.008449  3.702394  -0.009  -0.126187  -0.004014  3.95705  -0.005  -0.133926  -0.003552  3.976961  -0.004  -0.077654  -0.121138  -0.004378  3.943826  -0.005
C  C40  1  0.65363812  0.43932451  0.13826652  1  -0.02325  -0.007566  3.62065  -0.007  -0.050052  -0.002898  3.873127  -0.003  -0.044929  -0.003006  3.888054  -0.003  -0.05723  -0.053647  -0.002826  3.863373  -0.003
C  C41  1  0.34636299  0.56067670  0.86173556  1  -0.023346  0.007528  3.62067  0.007  -0.050093  0.002898  3.873162  0.003  -0.04498  0.003007  3.888083  0.003  -0.057216  -0.053694  0.002826  3.863421  0.003
C  C42  1  0.74798860  0.40847923  0.05246925  1  0.028475  0.004408  3.78174  0.005  0.044742  0.002248  4.013589  0.003  0.041628  0.001907  4.037729  0.002  -0.00082  0.046847  0.002543  3.997254  0.003
C  C43  1  0.25200675  0.59152314  0.94753183  1  0.028635  -0.004375  3.781688  -0.005  0.044781  -0.002246  4.013619  -0.003  0.041666  -0.001907  4.037767  -0.002  -0.000798  0.046889  -0.002543  3.99728  -0.003
C  C44  1  0.83217083  0.25637653  0.05119051  1  -0.106401  0.001198  3.7259  0.001  -0.135768  0.000958  3.998627  0.001  -0.139254  0.000835  4.019976  0.0  -0.082151  -0.133934  0.001064  3.985313  0.001
C  C45  1  0.16782187  0.74362583  0.94881135  1  -0.106451  -0.001255  3.725988  -0.001  -0.135775  -0.000959  3.998755  -0.001  -0.139273  -0.000838  4.0201  0.0  -0.082164  -0.133928  -0.001064  3.985423  -0.001
C  C46  1  0.91981749  0.23662780  0.96413446  1  -0.089153  0.001618  3.714901  0.001  -0.115017  0.001263  3.97578  0.001  -0.117687  0.001104  3.997531  0.001  -0.076381  -0.11308  0.001407  3.961723  0.001
C  C47  1  0.08017562  0.76337340  0.03586770  1  -0.089185  -0.00156  3.715047  -0.001  -0.115089  -0.001263  3.97592  -0.001  -0.11776  -0.001102  3.99768  -0.001  -0.076363  -0.113148  -0.001407  3.961869  -0.001
C  C48  1  0.93265219  0.36604216  0.87190472  1  0.036706  0.004997  3.779897  0.005  0.054059  0.002523  4.008946  0.003  0.051077  0.002054  4.032731  0.002  0.001912  0.055603  0.002893  3.992695  0.003
C  C49  1  0.06734318  0.63396019  0.12809786  1  0.036664  -0.005038  3.780006  -0.006  0.05405  -0.002523  4.008976  -0.003  0.05107  -0.002054  4.032757  -0.002  0.001908  0.055567  -0.002893  3.992772  -0.003
C  C50  1  0.02259016  0.35415461  0.78000438  1  -0.032502  -0.008283  3.647281  -0.008  -0.060479  -0.003068  3.897628  -0.003  -0.054998  -0.003228  3.911686  -0.003  -0.05633  -0.063906  -0.002969  3.887594  -0.003
C  C51  1  0.97740647  0.64584427  0.21999985  1  -0.032594  0.00834  3.647305  0.008  -0.060525  0.003068  3.897628  0.003  -0.055049  0.003229  3.911678  0.003  -0.056322  -0.063951  0.002969  3.887612  0.003
C  C52  1  0.02963257  0.48774453  0.69699731  1  -0.106397  0.01007  3.698635  0.011  -0.121694  0.004896  3.95554  0.006  -0.130165  0.004159  3.974697  0.005  -0.075262  -0.115965  0.005413  3.94254  0.006
C  C53  1  0.97037289  0.51225205  0.30300669  1  -0.106488  -0.010124  3.698798  -0.011  -0.121807  -0.004894  3.955688  -0.006  -0.130288  -0.004161  3.974853  -0.005  -0.075304  -0.116076  -0.005413  3.942682  -0.006
C  C54  1  0.94954731  0.63274256  0.70518321  1  0.181886  -0.006765  3.635662  -0.008  0.149146  -0.000803  3.895927  -0.002  0.163342  -0.002031  3.909227  -0.003  0.071776  0.140099  5.6e-05  3.886879  -0.001
C  C55  1  0.05045639  0.36725518  0.29481900  1  0.181883  0.006809  3.635734  0.008  0.149161  0.000803  3.895998  0.002  0.163358  0.002033  3.909298  0.003  0.071793  0.140122  -5.5e-05  3.886952  0.001
C  C56  1  0.85311829  0.51644898  0.87259438  1  0.12165  -0.000877  3.779839  -0.001  0.116162  0.001037  4.017164  0.0  0.12132  6.5e-05  4.040858  -0.001  0.111677  0.113004  0.001738  4.001426  0.001
C  C57  1  0.14687573  0.48355337  0.12740671  1  0.121755  0.000913  3.779984  0.002  0.116252  -0.001036  4.017227  0.0  0.121408  -6.6e-05  4.040925  0.001  0.111733  0.113106  -0.001739  4.001499  -0.001
C  C58  1  0.75883710  0.53812684  0.96215186  1  0.11587  -0.000932  3.794686  -0.001  0.110654  0.000767  4.037215  0.0  0.115991  -3.6e-05  4.060696  -0.001  0.109237  0.107398  0.001336  4.02138  0.001
C  C59  1  0.24115958  0.46187552  0.03784921  1  0.115622  0.0009  3.794867  0.001  0.110535  -0.000769  4.037272  0.0  0.115869  3.6e-05  4.060757  0.001  0.109179  0.107276  -0.001336  4.021445  -0.001
C  C60  1  0.32641023  0.98861374  0.68874610  1  0.712676  -7.9e-05  3.802829  0.0  0.666378  -0.000101  4.104929  0.0  0.700228  -8.5e-05  4.096769  0.0  0.21566  0.643531  -8.4e-05  4.109409  0.0
C  C61  1  0.67359084  0.01138748  0.31125222  1  0.712673  8.1e-05  3.802798  0.0  0.666392  0.000102  4.104888  0.0  0.700242  8.9e-05  4.096729  0.0  0.215648  0.643549  8.4e-05  4.109367  0.0
C  C62  1  0.18129696  0.02526993  0.59673447  1  -0.259039  -0.00022  3.691198  -0.001  -0.298464  0.000174  3.943361  0.0  -0.302964  7.2e-05  3.949288  0.0  -0.172667  -0.295241  0.000282  3.938968  0.0
C  C63  1  0.81870287  0.97473477  0.40326446  1  -0.259042  0.000217  3.691209  0.001  -0.298526  -0.000173  3.943423  0.0  -0.303032  -7.8e-05  3.94935  0.0  -0.172675  -0.295288  -0.000282  3.939002  0.0
C  C64  1  0.99908295  0.14703871  0.59323139  1  -0.237412  0.011266  3.686683  0.012  -0.281295  0.005869  3.941852  0.006  -0.28699  0.003838  3.951181  0.004  -0.167133  -0.277225  0.007384  3.935165  0.008
C  C65  1  0.00091772  0.85296366  0.40676814  1  -0.237315  -0.011265  3.686569  -0.012  -0.281277  -0.005868  3.941884  -0.006  -0.286963  -0.003837  3.951203  -0.004  -0.16714  -0.277198  -0.007383  3.935193  -0.008
C  C66  1  0.87331499  0.09375758  0.67986645  1  0.699415  -0.002755  3.799092  -0.006  0.660459  0.000727  4.102608  -0.001  0.696672  0.000155  4.09738  -0.001  0.21521  0.635895  0.001235  4.105532  -0.001
C  C67  1  0.12668217  0.90624711  0.32013175  1  0.699489  0.002757  3.799016  0.006  0.660473  -0.000727  4.10265  0.001  0.696682  -0.000154  4.097423  0.001  0.215164  0.635912  -0.001234  4.105575  0.001
C  C68  1  0.47971829  0.65405394  0.56403931  1  0.707137  4e-06  3.753919  0.0  0.663751  -3e-06  4.052741  0.0  0.696182  -5e-06  4.044224  0.0  0.231675  0.641746  -1.2e-05  4.057875  0.0
C  C69  1  0.52029716  0.34593689  0.43595481  1  0.706981  -4e-06  3.754104  0.0  0.663546  3e-06  4.053087  0.0  0.695965  4e-06  4.044589  0.0  0.231522  0.641548  1.2e-05  4.058186  0.0
C  C70  1  0.55902735  0.55157555  0.50142480  1  -0.246661  -3e-06  3.712092  0.0  -0.291655  -1.5e-05  3.970891  0.0  -0.296355  -3e-06  3.977856  0.0  -0.163874  -0.288453  -3.7e-05  3.966149  0.0
C  C71  1  0.44097796  0.44841757  0.49857183  1  -0.246374  3e-06  3.711922  0.0  -0.291526  1.4e-05  3.970852  0.0  -0.296228  7e-06  3.977818  0.0  -0.163793  -0.288289  3.7e-05  3.966097  0.0
N  N72  1  0.68265155  0.68691227  0.95512306  1  -0.340512  0.073493  3.337882  0.09  -0.302941  0.052458  3.644113  0.069  -0.333576  0.043949  3.665009  0.061  -0.345333  -0.284562  0.057194  3.631943  0.072
N  N73  1  0.31734514  0.31309009  0.04487877  1  -0.340453  -0.073474  3.338019  -0.09  -0.302902  -0.052461  3.644201  -0.069  -0.333537  -0.04395  3.665086  -0.061  -0.345327  -0.28454  -0.057196  3.63202  -0.072
N  N74  1  0.86371331  0.64602937  0.79078335  1  -0.325468  0.084588  3.331658  0.103  -0.282211  0.059823  3.626032  0.078  -0.313661  0.049952  3.646644  0.068  -0.346113  -0.26363  0.065086  3.613778  0.082
N  N75  1  0.13628510  0.35397185  0.20921575  1  -0.325404  -0.084628  3.331735  -0.103  -0.282174  -0.059829  3.626133  -0.078  -0.313625  -0.049956  3.646733  -0.068  -0.346097  -0.263613  -0.065088  3.613865  -0.082
O  O76  1  0.48582518  0.89084260  0.69318767  1  -0.671525  -0.000618  2.056824  0.001  -0.626066  -0.000235  2.314189  0.001  -0.656005  -0.00061  2.301064  0.0  -0.330396  -0.60535  0.00026  2.322783  0.001
O  O77  1  0.51417407  0.10915630  0.30681127  1  -0.671486  0.000618  2.056892  -0.001  -0.626028  0.000236  2.314248  -0.001  -0.655982  0.000608  2.3011  0.0  -0.330396  -0.605315  -0.00026  2.322851  -0.001
O  O78  1  0.28700735  0.05285379  0.75775220  1  -0.627941  -0.000568  1.959759  -0.001  -0.561296  -0.000349  2.167376  0.0  -0.585938  -0.000324  2.156838  0.0  -0.314764  -0.543978  -0.00032  2.174104  0.0
O  O79  1  0.71299646  0.94715092  0.24224444  1  -0.627959  0.000567  1.959721  0.001  -0.561325  0.000348  2.167347  0.0  -0.585968  0.000325  2.156807  0.0  -0.314758  -0.544007  0.00032  2.174074  0.0
O  O80  1  0.88466202  0.94873244  0.71231160  1  -0.605986  0.098644  2.059881  0.129  -0.584374  0.056069  2.352452  0.081  -0.629521  0.041544  2.34562  0.063  -0.332043  -0.554016  0.065825  2.356579  0.091
O  O81  1  0.11533557  0.05127109  0.28768766  1  -0.606006  -0.098637  2.059976  -0.129  -0.584347  -0.056066  2.352586  -0.081  -0.629497  -0.041542  2.345751  -0.063  -0.332013  -0.554008  -0.065821  2.356686  -0.091
O  O82  1  0.76370488  0.19175849  0.71187764  1  -0.613335  -0.000464  1.940338  0.0  -0.562856  -0.000486  2.152758  0.0  -0.589577  -0.00089  2.144693  -0.001  -0.318604  -0.544559  -5.7e-05  2.157667  0.0
O  O83  1  0.23629093  0.80824620  0.28811832  1  -0.613371  0.000463  1.94025  0.0  -0.562851  0.000486  2.15269  0.0  -0.589574  0.000889  2.144631  0.001  -0.318563  -0.544558  5.7e-05  2.157601  0.0
O  O84  1  0.60349321  0.02231401  0.85433930  1  -0.792716  0.085359  1.933618  0.107  -0.760352  0.058018  2.149258  0.079  -0.797454  0.04514  2.114086  0.065  -0.583625  -0.735457  0.066411  2.174023  0.086
O  O85  1  0.39650828  0.97768605  0.14565857  1  -0.792689  -0.085359  1.933635  -0.107  -0.76031  -0.058018  2.149338  -0.079  -0.797408  -0.045139  2.114153  -0.065  -0.583634  -0.735431  -0.066411  2.174086  -0.086
O  O86  1  0.33902211  0.64878809  0.61274877  1  -0.591358  -6.3e-05  1.948305  0.0  -0.544428  -5.4e-05  2.170376  0.0  -0.566107  -4e-05  2.163919  0.0  -0.296989  -0.529257  -8.8e-05  2.174385  0.0
O  O87  1  0.66097464  0.35119922  0.38725019  1  -0.591278  6.3e-05  1.948738  0.0  -0.544308  5.5e-05  2.170828  0.0  -0.565984  3.7e-05  2.164383  0.0  -0.296912  -0.529145  8.8e-05  2.174831  0.0
O  O88  1  0.57784842  0.74987490  0.56229365  1  -0.570195  -5.6e-05  2.070499  0.0  -0.519333  -3.4e-05  2.287228  0.0  -0.542922  -4.1e-05  2.274139  0.0  -0.340915  -0.502832  -1.6e-05  2.295548  0.0
O  O89  1  0.42215644  0.25011589  0.43770810  1  -0.570168  5.8e-05  2.070392  0.0  -0.519282  3.3e-05  2.287103  0.0  -0.542882  4.3e-05  2.273987  0.0  -0.340845  -0.502768  1.6e-05  2.295469  0.0
