# generated using pymatgen
data_CdH3C2N9O
_symmetry_space_group_name_H-M   'P 1'
_cell_length_a   6.60495377
_cell_length_b   9.87813466
_cell_length_c   10.63963319
_cell_angle_alpha   89.99999586
_cell_angle_beta   97.10014233
_cell_angle_gamma   90.00000945
_symmetry_Int_Tables_number   1
_chemical_formula_structural   CdH3C2N9O
_chemical_formula_sum   'Cd4 H12 C8 N36 O4'
_cell_volume   688.85563370
_cell_formula_units_Z   4
loop_
 _symmetry_equiv_pos_site_id
 _symmetry_equiv_pos_as_xyz
  1  'x, y, z'
loop_
 _atom_site_type_symbol
 _atom_site_label
 _atom_site_symmetry_multiplicity
 _atom_site_fract_x
 _atom_site_fract_y
 _atom_site_fract_z
 _atom_site_occupancy
 _atom_site_hle17_bader_spin_density
 _atom_site_hle17_ddec_charge
 _atom_site_hle17_ddec_spin_density
 _atom_site_hle17_ddec_sum_bond_order
 _atom_site_hle17_magmom
 _atom_site_hse06_10hf_bader_spin_density
 _atom_site_hse06_10hf_ddec_charge
 _atom_site_hse06_10hf_ddec_spin_density
 _atom_site_hse06_10hf_ddec_sum_bond_order
 _atom_site_hse06_10hf_magmom
 _atom_site_hse06_bader_spin_density
 _atom_site_hse06_ddec_charge
 _atom_site_hse06_ddec_spin_density
 _atom_site_hse06_ddec_sum_bond_order
 _atom_site_hse06_magmom
 _atom_site_pbe_bader_spin_density
 _atom_site_pbe_cm5_charge
 _atom_site_pbe_ddec_charge
 _atom_site_pbe_ddec_spin_density
 _atom_site_pbe_ddec_sum_bond_order
 _atom_site_pbe_magmom
Cd  Cd0  1  0.53449253  0.16356529  0.87337514  1  0  1.012162  0  1.791399  0  0  0.796949  0  2.254917  0  0  0.847127  0  2.210543  0  0  0.809703  0.760276  0  2.285629  0
Cd  Cd1  1  0.96550879  0.66356559  0.62662479  1  0  1.012157  0  1.79141  0  0  0.796957  0  2.254906  0  0  0.847137  0  2.210528  0  0  0.809709  0.760288  0  2.285616  0
Cd  Cd2  1  0.46550790  0.83643425  0.12662477  1  0  1.01219  0  1.791381  0  0  0.796979  0  2.254897  0  0  0.847156  0  2.210522  0  0  0.809719  0.760308  0  2.28561  0
Cd  Cd3  1  0.03449316  0.33643496  0.37337522  1  0  1.012163  0  1.791413  0  0  0.796956  0  2.254922  0  0  0.847132  0  2.210551  0  0  0.809699  0.760283  0  2.285635  0
H  H4  1  0.24204194  0.48094810  0.13104179  1  0  0.297759  0  0.942706  0  0  0.260333  0  1.039996  0  0  0.269093  0  1.032715  0  0  0.308773  0.25399  0  1.045405  0
H  H5  1  0.25795914  0.98094836  0.36895819  1  0  0.297746  0  0.942715  0  0  0.26032  0  1.040002  0  0  0.26908  0  1.03272  0  0  0.308766  0.253976  0  1.045412  0
H  H6  1  0.75795848  0.51905145  0.86895812  1  0  0.297739  0  0.942712  0  0  0.260316  0  1.040001  0  0  0.269078  0  1.03272  0  0  0.30877  0.253974  0  1.04541  0
H  H7  1  0.74204280  0.01905118  0.63104182  1  0  0.29774  0  0.942711  0  0  0.260312  0  1.040001  0  0  0.269073  0  1.032721  0  0  0.308757  0.253969  0  1.04541  0
H  H8  1  0.83919809  0.27844634  0.04242213  1  0  0.378719  0  0.944266  0  0  0.337949  0  1.026839  0  0  0.348967  0  1.011176  0  0  0.273279  0.330129  0  1.037958  0
H  H9  1  0.66080273  0.77844658  0.45757800  1  0  0.378725  0  0.944253  0  0  0.337958  0  1.026826  0  0  0.348975  0  1.011161  0  0  0.273283  0.330136  0  1.037946  0
H  H10  1  0.16080233  0.72155422  0.95757778  1  0  0.378721  0  0.944264  0  0  0.337951  0  1.026837  0  0  0.348969  0  1.011173  0  0  0.273282  0.330131  0  1.037956  0
H  H11  1  0.33919769  0.22155397  0.54242190  1  0  0.378723  0  0.94426  0  0  0.337957  0  1.026828  0  0  0.348973  0  1.011166  0  0  0.273281  0.330136  0  1.037947  0
H  H12  1  0.83495952  0.12732975  0.08993806  1  0  0.382023  0  0.930344  0  0  0.340163  0  1.017065  0  0  0.350565  0  1.002283  0  0  0.279069  0.332791  0  1.027491  0
H  H13  1  0.66504125  0.62732899  0.41006115  1  0  0.382041  0  0.930299  0  0  0.340181  0  1.017037  0  0  0.350583  0  1.002255  0  0  0.27908  0.332809  0  1.027463  0
H  H14  1  0.16503937  0.87267081  0.91006174  1  0  0.382039  0  0.93031  0  0  0.340181  0  1.017041  0  0  0.350583  0  1.002259  0  0  0.279078  0.332809  0  1.027467  0
H  H15  1  0.33495916  0.37267056  0.58993782  1  0  0.382051  0  0.930296  0  0  0.340192  0  1.017026  0  0  0.350594  0  1.002244  0  0  0.279083  0.33282  0  1.027451  0
C  C16  1  0.29460782  0.27673951  0.11419126  1  0  0.518196  0  3.798983  0  0  0.466693  0  4.081588  0  0  0.488462  0  4.092228  0  0  0.338151  0.45207  0  4.074284  0
C  C17  1  0.20539170  0.77673976  0.38580863  1  0  0.51817  0  3.799045  0  0  0.466675  0  4.081634  0  0  0.488433  0  4.092292  0  0  0.338148  0.452053  0  4.074333  0
C  C18  1  0.70539259  0.72326004  0.88580771  1  0  0.518276  0  3.798956  0  0  0.466727  0  4.081615  0  0  0.488503  0  4.092243  0  0  0.338123  0.452105  0  4.074314  0
C  C19  1  0.79460721  0.22325877  0.61419211  1  0  0.518284  0  3.798958  0  0  0.46674  0  4.08161  0  0  0.488518  0  4.092239  0  0  0.338154  0.452117  0  4.074307  0
C  C20  1  0.27693946  0.44244080  0.94460589  1  0  0.502168  0  3.81519  0  0  0.451206  0  4.103257  0  0  0.471231  0  4.114464  0  0  0.327259  0.437808  0  4.095473  0
C  C21  1  0.22306062  0.94244007  0.55539377  1  0  0.502162  0  3.81516  0  0  0.451211  0  4.103209  0  0  0.471236  0  4.114417  0  0  0.32726  0.437813  0  4.095426  0
C  C22  1  0.72306097  0.55755976  0.05539401  1  0  0.502158  0  3.815189  0  0  0.451233  0  4.103212  0  0  0.471258  0  4.114416  0  0  0.327275  0.437834  0  4.095429  0
C  C23  1  0.77693982  0.05755948  0.44460707  1  0  0.502202  0  3.815071  0  0  0.451254  0  4.103128  0  0  0.471281  0  4.114336  0  0  0.327284  0.437855  0  4.09534  0
N  N24  1  0.36890451  0.16878492  0.05749042  1  0  -0.369814  0  3.065767  0  0  -0.313395  0  3.349505  0  0  -0.331727  0  3.361957  0  0  -0.242617  -0.300747  0  3.340529  0
N  N25  1  0.13109651  0.66878516  0.44250957  1  0  -0.369806  0  3.06578  0  0  -0.31339  0  3.34951  0  0  -0.33172  0  3.361966  0  0  -0.242601  -0.300739  0  3.340522  0
N  N26  1  0.63109439  0.83121564  0.94250937  1  0  -0.369871  0  3.065726  0  0  -0.313423  0  3.349461  0  0  -0.331758  0  3.361909  0  0  -0.242572  -0.300772  0  3.340477  0
N  N27  1  0.86890544  0.33121539  0.55749044  1  0  -0.369854  0  3.065733  0  0  -0.313414  0  3.349475  0  0  -0.331752  0  3.361926  0  0  -0.242614  -0.300767  0  3.3405  0
N  N28  1  0.31659982  0.44551730  0.74746615  1  0  -0.062389  0  3.062228  0  0  -0.046861  0  3.349095  0  0  -0.045274  0  3.361585  0  0  -0.084533  -0.047797  0  3.340523  0
N  N29  1  0.18340025  0.94551756  0.75253352  1  0  -0.062428  0  3.062193  0  0  -0.046901  0  3.349059  0  0  -0.045314  0  3.361549  0  0  -0.084538  -0.047838  0  3.340488  0
N  N30  1  0.68339908  0.55448326  0.25253365  1  0  -0.062432  0  3.062178  0  0  -0.0469  0  3.349044  0  0  -0.045316  0  3.361533  0  0  -0.084529  -0.047836  0  3.340473  0
N  N31  1  0.81660017  0.05448299  0.24746639  1  0  -0.062387  0  3.06217  0  0  -0.046858  0  3.349027  0  0  -0.045271  0  3.361516  0  0  -0.084529  -0.047795  0  3.340454  0
N  N32  1  0.23861745  0.24111638  0.22739752  1  0  -0.364163  0  3.038211  0  0  -0.305132  0  3.328906  0  0  -0.324751  0  3.339788  0  0  -0.238912  -0.29198  0  3.321563  0
N  N33  1  0.26138358  0.74111665  0.27260248  1  0  -0.364169  0  3.038206  0  0  -0.30513  0  3.328889  0  0  -0.324746  0  3.339774  0  0  -0.238919  -0.291979  0  3.321547  0
N  N34  1  0.76138297  0.75888418  0.77260239  1  0  -0.36416  0  3.038287  0  0  -0.305102  0  3.328977  0  0  -0.324723  0  3.339854  0  0  -0.238888  -0.291952  0  3.321634  0
N  N35  1  0.73861684  0.25888391  0.72739743  1  0  -0.364186  0  3.038271  0  0  -0.305124  0  3.328962  0  0  -0.324746  0  3.339842  0  0  -0.238894  -0.291972  0  3.321619  0
N  N36  1  0.35774300  0.06601045  0.13984059  1  0  -0.089033  0  3.178612  0  0  -0.045009  0  3.471168  0  0  -0.051315  0  3.486268  0  0  -0.107413  -0.040024  0  3.460157  0
N  N37  1  0.14225801  0.56600969  0.36016035  1  0  -0.089032  0  3.178608  0  0  -0.045006  0  3.471165  0  0  -0.051314  0  3.486267  0  0  -0.107414  -0.040019  0  3.460155  0
N  N38  1  0.64225590  0.93399010  0.86015921  1  0  -0.088994  0  3.178619  0  0  -0.04497  0  3.471164  0  0  -0.051276  0  3.486267  0  0  -0.107423  -0.039983  0  3.460153  0
N  N39  1  0.85774394  0.43398985  0.63983966  1  0  -0.089027  0  3.178705  0  0  -0.045005  0  3.471256  0  0  -0.051311  0  3.486359  0  0  -0.107413  -0.04002  0  3.460246  0
N  N40  1  0.28292547  0.10844862  0.24053776  1  0  -0.050705  0  3.037554  0  0  -0.038415  0  3.320968  0  0  -0.035404  0  3.333473  0  0  -0.081674  -0.04029  0  3.312509  0
N  N41  1  0.21707553  0.60844889  0.25946224  1  0  -0.050689  0  3.037541  0  0  -0.038403  0  3.320951  0  0  -0.035391  0  3.333455  0  0  -0.08167  -0.040278  0  3.312494  0
N  N42  1  0.71707495  0.89155093  0.75946215  1  0  -0.050723  0  3.037555  0  0  -0.038437  0  3.32096  0  0  -0.03543  0  3.333466  0  0  -0.081675  -0.040313  0  3.312503  0
N  N43  1  0.78292642  0.39155167  0.74053777  1  0  -0.050686  0  3.037583  0  0  -0.038401  0  3.320987  0  0  -0.035393  0  3.333495  0  0  -0.081667  -0.040277  0  3.312531  0
N  N44  1  0.22913141  0.55884638  0.77493360  1  0  -0.116387  0  3.169351  0  0  -0.081209  0  3.475457  0  0  -0.087087  0  3.488768  0  0  -0.11574  -0.076607  0  3.466371  0
N  N45  1  0.27086857  0.05884612  0.72506609  1  0  -0.11632  0  3.16936  0  0  -0.081136  0  3.475456  0  0  -0.087015  0  3.488769  0  0  -0.115721  -0.076535  0  3.466369  0
N  N46  1  0.77086902  0.44115417  0.22506631  1  0  -0.11634  0  3.16927  0  0  -0.081158  0  3.475372  0  0  -0.087037  0  3.488685  0  0  -0.115726  -0.076556  0  3.466285  0
N  N47  1  0.72913337  0.94115343  0.27493392  1  0  -0.116325  0  3.169306  0  0  -0.081141  0  3.475408  0  0  -0.08702  0  3.488719  0  0  -0.115716  -0.07654  0  3.466322  0
N  N48  1  0.35147713  0.36965581  0.85335447  1  0  -0.386328  0  3.089566  0  0  -0.331912  0  3.388747  0  0  -0.351147  0  3.401334  0  0  -0.246209  -0.318181  0  3.379819  0
N  N49  1  0.14852445  0.86965507  0.64664531  1  0  -0.38632  0  3.089549  0  0  -0.331908  0  3.388735  0  0  -0.351144  0  3.401324  0  0  -0.246219  -0.318177  0  3.379808  0
N  N50  1  0.64852327  0.63034475  0.14664450  1  0  -0.386314  0  3.089533  0  0  -0.33192  0  3.388728  0  0  -0.351151  0  3.40131  0  0  -0.246246  -0.318191  0  3.3798  0
N  N51  1  0.85147750  0.13034549  0.35335471  1  0  -0.386358  0  3.08946  0  0  -0.331944  0  3.388644  0  0  -0.351182  0  3.401232  0  0  -0.24623  -0.318211  0  3.379714  0
N  N52  1  0.20065652  0.56102189  0.89838361  1  0  -0.363184  0  2.993784  0  0  -0.323013  0  3.268555  0  0  -0.336883  0  3.280615  0  0  -0.227175  -0.31379  0  3.260747  0
N  N53  1  0.29934348  0.06102164  0.60161702  1  0  -0.363229  0  2.993823  0  0  -0.323067  0  3.268601  0  0  -0.33694  0  3.280664  0  0  -0.227189  -0.313844  0  3.260792  0
N  N54  1  0.79934390  0.43897867  0.10161630  1  0  -0.363206  0  2.993751  0  0  -0.323051  0  3.268523  0  0  -0.33692  0  3.280581  0  0  -0.227183  -0.313828  0  3.260713  0
N  N55  1  0.70065694  0.93897791  0.39838289  1  0  -0.36327  0  2.993803  0  0  -0.323109  0  3.268583  0  0  -0.336981  0  3.280641  0  0  -0.227208  -0.313886  0  3.260774  0
N  N56  1  0.27636258  0.40582258  0.06858685  1  0  -0.486951  0  3.367532  0  0  -0.42851  0  3.621923  0  0  -0.449911  0  3.626945  0  0  -0.391753  -0.41393  0  3.618578  0
N  N57  1  0.22363848  0.90582182  0.43141219  1  0  -0.486916  0  3.36755  0  0  -0.428496  0  3.62197  0  0  -0.449894  0  3.626998  0  0  -0.391755  -0.413915  0  3.618623  0
N  N58  1  0.72363783  0.59417797  0.93141211  1  0  -0.486955  0  3.367513  0  0  -0.428537  0  3.621952  0  0  -0.449944  0  3.626976  0  0  -0.391759  -0.413956  0  3.618606  0
N  N59  1  0.77636345  0.09417873  0.56858688  1  0  -0.486961  0  3.367552  0  0  -0.428541  0  3.622021  0  0  -0.449934  0  3.62701  0  0  -0.391766  -0.413959  0  3.618673  0
O  O60  1  0.83806015  0.18247579  0.01180221  1  0  -0.802083  0  1.94381  0  0  -0.739848  0  2.156786  0  0  -0.761954  0  2.125879  0  0  -0.600213  -0.723729  0  2.17783  0
O  O61  1  0.66194065  0.68247502  0.48819793  1  0  -0.802098  0  1.943776  0  0  -0.739867  0  2.15674  0  0  -0.761973  0  2.125827  0  0  -0.600229  -0.72375  0  2.177789  0
O  O62  1  0.16194027  0.81752477  0.98819770  1  0  -0.802106  0  1.943808  0  0  -0.73987  0  2.156763  0  0  -0.761976  0  2.125855  0  0  -0.600224  -0.723752  0  2.177809  0
O  O63  1  0.33805977  0.31752452  0.51180197  1  0  -0.802115  0  1.943796  0  0  -0.739879  0  2.156744  0  0  -0.761986  0  2.125838  0  0  -0.600229  -0.723762  0  2.177794  0
