# generated using pymatgen
data_SmH12C11O9
_symmetry_space_group_name_H-M   'P 1'
_cell_length_a   8.81294037
_cell_length_b   8.81294460
_cell_length_c   19.64216942
_cell_angle_alpha   83.00578654
_cell_angle_beta   83.00568762
_cell_angle_gamma   61.90274043
_symmetry_Int_Tables_number   1
_chemical_formula_structural   SmH12C11O9
_chemical_formula_sum   'Sm4 H48 C44 O36'
_cell_volume   1332.14310493
_cell_formula_units_Z   4
loop_
 _symmetry_equiv_pos_site_id
 _symmetry_equiv_pos_as_xyz
  1  'x, y, z'
loop_
 _atom_site_type_symbol
 _atom_site_label
 _atom_site_symmetry_multiplicity
 _atom_site_fract_x
 _atom_site_fract_y
 _atom_site_fract_z
 _atom_site_occupancy
 _atom_site_hle17_bader_spin_density
 _atom_site_hle17_ddec_charge
 _atom_site_hle17_ddec_spin_density
 _atom_site_hle17_ddec_sum_bond_order
 _atom_site_hle17_magmom
 _atom_site_hse06_10hf_bader_charge
 _atom_site_hse06_10hf_bader_spin_density
 _atom_site_hse06_10hf_ddec_charge
 _atom_site_hse06_10hf_ddec_spin_density
 _atom_site_hse06_10hf_ddec_sum_bond_order
 _atom_site_hse06_10hf_magmom
 _atom_site_hse06_bader_spin_density
 _atom_site_hse06_ddec_charge
 _atom_site_hse06_ddec_spin_density
 _atom_site_hse06_ddec_sum_bond_order
 _atom_site_hse06_magmom
 _atom_site_pbe_bader_spin_density
 _atom_site_pbe_cm5_charge
 _atom_site_pbe_ddec_charge
 _atom_site_pbe_ddec_spin_density
 _atom_site_pbe_ddec_sum_bond_order
 _atom_site_pbe_magmom
Sm  Sm0  1  0.62032939  0.26518925  0.45944752  1  0  2.316787  0  1.568161  0  2.268444  0  2.223085  0  1.908383  0  0  2.265983  0  1.867487  0  0  1.492233  2.125754  0  2.060309  0
Sm  Sm1  1  0.73481161  0.37967064  0.04055246  1  0  2.316785  0  1.568195  0  2.268442  0  2.22308  0  1.908419  0  0  2.265979  0  1.867524  0  0  1.492224  2.12573  0  2.060378  0
Sm  Sm2  1  0.37966945  0.73481173  0.54055235  1  0  2.316776  0  1.568174  0  2.268444  0  2.223082  0  1.908401  0  0  2.26598  0  1.867505  0  0  1.492221  2.125718  0  2.060383  0
Sm  Sm3  1  0.26518723  0.62033035  0.95944742  1  0  2.316775  0  1.568185  0  2.268425  0  2.223072  0  1.908408  0  0  2.26597  0  1.867512  0  0  1.492222  2.125698  0  2.060407  0
H  H4  1  0.89174482  0.26105570  0.22717974  1  0  0.397498  0  0.869131  0  0.651786  0  0.371231  0  0.939942  0  0  0.381445  0  0.928996  0  0  0.31325  0.363829  0  0.947993  0
H  H5  1  0.73894043  0.10825948  0.27282118  1  0  0.397451  0  0.86918  0  0.651765  0  0.371178  0  0.94  0  0  0.381395  0  0.929052  0  0  0.313217  0.363775  0  0.948052  0
H  H6  1  0.10825751  0.73894273  0.77282008  1  0  0.3975  0  0.869119  0  0.651783  0  0.371231  0  0.939932  0  0  0.381447  0  0.928983  0  0  0.313262  0.363829  0  0.947984  0
H  H7  1  0.26105614  0.89174148  0.72717933  1  0  0.397485  0  0.869125  0  0.651769  0  0.371217  0  0.939936  0  0  0.38143  0  0.928991  0  0  0.313236  0.363814  0  0.947988  0
H  H8  1  0.92786158  0.13714273  0.35565564  1  0  0.436214  0  0.857207  0  0.674819  0  0.405669  0  0.920337  0  0  0.415829  0  0.905214  0  0  0.305076  0.398365  0  0.930999  0
H  H9  1  0.86285535  0.07214051  0.14434473  1  0  0.436195  0  0.857228  0  0.674823  0  0.405642  0  0.920373  0  0  0.415803  0  0.90525  0  0  0.305052  0.398338  0  0.931035  0
H  H10  1  0.07213901  0.86285698  0.64434523  1  0  0.436197  0  0.857226  0  0.674808  0  0.405645  0  0.920369  0  0  0.415807  0  0.905243  0  0  0.305054  0.39834  0  0.931032  0
H  H11  1  0.13714410  0.92785919  0.85565569  1  0  0.436189  0  0.857233  0  0.674837  0  0.40563  0  0.92039  0  0  0.415791  0  0.905267  0  0  0.305051  0.398325  0  0.931055  0
H  H12  1  0.00922875  0.99380230  0.41806773  1  0  0.452832  0  0.83976  0  0.674419  0  0.424698  0  0.896684  0  0  0.435713  0  0.88072  0  0  0.3023  0.416399  0  0.908621  0
H  H13  1  0.00619664  0.99077063  0.08193289  1  0  0.452823  0  0.839779  0  0.674414  0  0.424706  0  0.896672  0  0  0.43572  0  0.880709  0  0  0.302311  0.416412  0  0.908603  0
H  H14  1  0.99076956  0.00619739  0.58193275  1  0  0.452806  0  0.839799  0  0.674406  0  0.424685  0  0.896701  0  0  0.435699  0  0.880737  0  0  0.302309  0.41639  0  0.908632  0
H  H15  1  0.99380167  0.00922905  0.91806811  1  0  0.452836  0  0.839751  0  0.674416  0  0.424703  0  0.896674  0  0  0.435717  0  0.88071  0  0  0.302306  0.416404  0  0.908611  0
H  H16  1  0.16739644  0.19290909  0.35595113  1  0  0.129532  0  0.930636  0  0.121259  0  0.141043  0  0.987197  0  0  0.145574  0  0.983323  0  0  0.118215  0.137554  0  0.990579  0
H  H17  1  0.80708682  0.83260763  0.14404904  1  0  0.129549  0  0.930609  0  0.120965  0  0.141058  0  0.987169  0  0  0.145588  0  0.983299  0  0  0.118227  0.13757  0  0.990553  0
H  H18  1  0.83260415  0.80709062  0.64404872  1  0  0.129514  0  0.930665  0  0.12126  0  0.141025  0  0.98723  0  0  0.145556  0  0.983357  0  0  0.118201  0.137536  0  0.990614  0
H  H19  1  0.19291499  0.16738950  0.85595140  1  0  0.129539  0  0.930648  0  0.120949  0  0.14105  0  0.987212  0  0  0.145581  0  0.983338  0  0  0.118225  0.137562  0  0.990594  0
H  H20  1  0.53013259  0.28055830  0.20962235  1  0  0.115472  0  0.970594  0  0.146548  0  0.117689  0  1.04591  0  0  0.122599  0  1.041237  0  0  0.1129  0.114207  0  1.049224  0
H  H21  1  0.71944213  0.46986868  0.29037712  1  0  0.115485  0  0.970611  0  0.146574  0  0.117696  0  1.04594  0  0  0.122604  0  1.041273  0  0  0.112903  0.114214  0  1.049252  0
H  H22  1  0.46986791  0.71944401  0.79037685  1  0  0.115479  0  0.970597  0  0.146571  0  0.117695  0  1.045918  0  0  0.122605  0  1.041247  0  0  0.112896  0.114214  0  1.04923  0
H  H23  1  0.28055907  0.53012974  0.70962328  1  0  0.115483  0  0.970622  0  0.146572  0  0.117709  0  1.045931  0  0  0.122618  0  1.041262  0  0  0.112914  0.114227  0  1.049244  0
H  H24  1  0.68484390  0.91312707  0.53593517  1  0  0.448742  0  0.835508  0  0.64344  0  0.424111  0  0.888141  0  0  0.434559  0  0.872589  0  0  0.312819  0.41644  0  0.899353  0
H  H25  1  0.08687670  0.31515335  0.96406494  1  0  0.448742  0  0.835501  0  0.643433  0  0.424111  0  0.888135  0  0  0.434559  0  0.872581  0  0  0.312815  0.41644  0  0.899346  0
H  H26  1  0.31515319  0.08687519  0.46406524  1  0  0.44873  0  0.835524  0  0.643419  0  0.4241  0  0.888156  0  0  0.434548  0  0.872601  0  0  0.312817  0.41643  0  0.899366  0
H  H27  1  0.91312214  0.68484764  0.03593494  1  0  0.448761  0  0.835497  0  0.643407  0  0.424133  0  0.888123  0  0  0.434581  0  0.872569  0  0  0.312844  0.416463  0  0.899334  0
H  H28  1  0.65734534  0.89225186  0.46351235  1  0  0.432995  0  0.866192  0  0.649213  0  0.404447  0  0.92731  0  0  0.414687  0  0.912189  0  0  0.302066  0.396977  0  0.938075  0
H  H29  1  0.10774811  0.34265621  0.03648781  1  0  0.433044  0  0.866131  0  0.649215  0  0.404492  0  0.92725  0  0  0.414733  0  0.912128  0  0  0.302095  0.397023  0  0.938015  0
H  H30  1  0.34265638  0.10774787  0.53648743  1  0  0.43305  0  0.866128  0  0.649219  0  0.404501  0  0.927242  0  0  0.414741  0  0.912122  0  0  0.302094  0.397031  0  0.938007  0
H  H31  1  0.89225064  0.65734737  0.96351192  1  0  0.433063  0  0.866104  0  0.649431  0  0.404513  0  0.927224  0  0  0.414752  0  0.912105  0  0  0.302102  0.397043  0  0.93799  0
H  H32  1  0.09610568  0.26118280  0.13951449  1  0  0.117085  0  0.968972  0  0.090235  0  0.125805  0  1.035579  0  0  0.129596  0  1.03243  0  0  0.115883  0.123201  0  1.037604  0
H  H33  1  0.73881570  0.90389654  0.36048569  1  0  0.117065  0  0.968977  0  0.090222  0  0.125791  0  1.035571  0  0  0.129582  0  1.032424  0  0  0.115875  0.123187  0  1.037596  0
H  H34  1  0.90389779  0.73881565  0.86048527  1  0  0.117088  0  0.968941  0  0.090173  0  0.125809  0  1.035553  0  0  0.129599  0  1.032407  0  0  0.115883  0.123206  0  1.03758  0
H  H35  1  0.26118139  0.09610572  0.63951370  1  0  0.117111  0  0.968914  0  0.090204  0  0.125827  0  1.035532  0  0  0.129618  0  1.032383  0  0  0.115896  0.123224  0  1.037558  0
H  H36  1  0.76757112  0.45486004  0.66188442  1  0  0.105435  0  0.947975  0  0.033696  0  0.120297  0  1.005102  0  0  0.121602  0  1.00587  0  0  0.101381  0.119297  0  1.004914  0
H  H37  1  0.54514257  0.23242529  0.83811611  1  0  0.105399  0  0.948044  0  0.033752  0  0.120306  0  1.005122  0  0  0.121614  0  1.00589  0  0  0.101384  0.119305  0  1.004934  0
H  H38  1  0.23243060  0.54513969  0.33811587  1  0  0.105401  0  0.948031  0  0.033637  0  0.120297  0  1.005111  0  0  0.121606  0  1.00588  0  0  0.10137  0.119296  0  1.004923  0
H  H39  1  0.45486212  0.76757058  0.16188322  1  0  0.10542  0  0.94797  0  0.0337  0  0.120259  0  1.005132  0  0  0.121566  0  1.005901  0  0  0.101372  0.119257  0  1.004944  0
H  H40  1  0.94189298  0.24543190  0.65256349  1  0  0.105052  0  0.947459  0  0.038282  0  0.120257  0  1.005611  0  0  0.121933  0  1.005611  0  0  0.101084  0.118899  0  1.00615  0
H  H41  1  0.75457227  0.05810436  0.84743625  1  0  0.105036  0  0.94748  0  0.038248  0  0.12023  0  1.005656  0  0  0.121909  0  1.00566  0  0  0.101082  0.118871  0  1.006194  0
H  H42  1  0.05810760  0.75456781  0.34743585  1  0  0.105072  0  0.947436  0  0.038299  0  0.120267  0  1.005592  0  0  0.121947  0  1.005597  0  0  0.101091  0.118908  0  1.006132  0
H  H43  1  0.24543347  0.94189411  0.15256389  1  0  0.10504  0  0.947472  0  0.03828  0  0.120256  0  1.005619  0  0  0.121935  0  1.005623  0  0  0.10108  0.118899  0  1.006158  0
H  H44  1  0.57934301  0.30722454  0.71072672  1  0  0.060836  0  0.966349  0  0.069742  0  0.080817  0  1.02656  0  0  0.080734  0  1.028667  0  0  0.088415  0.080757  0  1.025294  0
H  H45  1  0.69277279  0.42065858  0.78927332  1  0  0.060822  0  0.966352  0  0.069734  0  0.080795  0  1.026569  0  0  0.080711  0  1.028676  0  0  0.088405  0.080735  0  1.025302  0
H  H46  1  0.42066046  0.69277391  0.28927355  1  0  0.060821  0  0.966337  0  0.069714  0  0.080792  0  1.026557  0  0  0.08071  0  1.028663  0  0  0.088402  0.080732  0  1.02529  0
H  H47  1  0.30722780  0.57934112  0.21072602  1  0  0.060816  0  0.966349  0  0.069731  0  0.080792  0  1.026564  0  0  0.080711  0  1.028666  0  0  0.08841  0.080732  0  1.025298  0
H  H48  1  0.76943385  0.10892733  0.71075615  1  0  0.064765  0  0.960167  0  0.069957  0  0.081974  0  1.023556  0  0  0.082569  0  1.024803  0  0  0.087411  0.081423  0  1.022916  0
H  H49  1  0.89107227  0.23056770  0.78924363  1  0  0.064766  0  0.960213  0  0.069944  0  0.081968  0  1.023602  0  0  0.082563  0  1.024849  0  0  0.08742  0.081415  0  1.022965  0
H  H50  1  0.23056962  0.89107112  0.28924412  1  0  0.064753  0  0.960194  0  0.069943  0  0.08196  0  1.023579  0  0  0.082554  0  1.024827  0  0  0.087413  0.081407  0  1.022942  0
H  H51  1  0.10892997  0.76943333  0.21075606  1  0  0.064763  0  0.960156  0  0.069982  0  0.081976  0  1.023541  0  0  0.082557  0  1.024803  0  0  0.087419  0.081422  0  1.022905  0
C  C52  1  0.45972909  0.22772099  0.34582883  1  0  0.636925  0  3.935132  0  1.546825  0  0.586388  0  4.237789  0  0  0.619871  0  4.22977  0  0  0.200514  0.564855  0  4.235354  0
C  C53  1  0.77228003  0.54027145  0.15417218  1  0  0.636898  0  3.935138  0  1.5468  0  0.586356  0  4.237795  0  0  0.61984  0  4.229773  0  0  0.200479  0.564825  0  4.235362  0
C  C54  1  0.54026854  0.77228258  0.65417199  1  0  0.636991  0  3.934961  0  1.546796  0  0.586445  0  4.237619  0  0  0.619931  0  4.229598  0  0  0.200514  0.564911  0  4.235182  0
C  C55  1  0.22771767  0.45972952  0.84582776  1  0  0.636944  0  3.935093  0  1.546828  0  0.586388  0  4.237763  0  0  0.619874  0  4.229743  0  0  0.200463  0.564857  0  4.235328  0
C  C56  1  0.38051934  0.31711686  0.09610449  1  0  0.726439  0  3.834516  0  1.638741  0  0.681331  0  4.122867  0  0  0.716427  0  4.110958  0  0  0.239326  0.657098  0  4.126489  0
C  C57  1  0.68288346  0.61948201  0.40389556  1  0  0.726498  0  3.834391  0  1.638746  0  0.681307  0  4.122859  0  0  0.716398  0  4.110958  0  0  0.2393  0.657072  0  4.12648  0
C  C58  1  0.61948064  0.68288414  0.90389532  1  0  0.726527  0  3.834436  0  1.638974  0  0.681353  0  4.1229  0  0  0.716453  0  4.110986  0  0  0.239356  0.65712  0  4.126522  0
C  C59  1  0.31711652  0.38051899  0.59610426  1  0  0.726425  0  3.834539  0  1.638743  0  0.681341  0  4.122898  0  0  0.716431  0  4.110998  0  0  0.239324  0.657115  0  4.126512  0
C  C60  1  0.21250601  0.21206041  0.30302723  1  0  -0.16264  0  3.654888  0  -0.053646  0  -0.197935  0  3.905039  0  0  -0.198657  0  3.921093  0  0  -0.085142  -0.197328  0  3.894939  0
C  C61  1  0.78793555  0.78749574  0.19697357  1  0  -0.162667  0  3.654985  0  -0.053331  0  -0.197964  0  3.905142  0  0  -0.198687  0  3.921195  0  0  -0.085156  -0.197357  0  3.895044  0
C  C62  1  0.78749633  0.78793802  0.69697260  1  0  -0.162665  0  3.654887  0  -0.053627  0  -0.197948  0  3.905054  0  0  -0.19867  0  3.921108  0  0  -0.08514  -0.197342  0  3.894954  0
C  C63  1  0.21206512  0.21250138  0.80302693  1  0  -0.162626  0  3.655065  0  -0.053344  0  -0.197905  0  3.905235  0  0  -0.198626  0  3.921289  0  0  -0.085124  -0.197298  0  3.895136  0
C  C64  1  0.41645201  0.26142786  0.22090397  1  0  -0.090222  0  3.718897  0  0.004074  0  -0.132729  0  3.974327  0  0  -0.130964  0  3.992131  0  0  -0.083584  -0.133927  0  3.963416  0
C  C65  1  0.73857260  0.58354917  0.27909655  1  0  -0.090287  0  3.718733  0  0.004118  0  -0.132802  0  3.97416  0  0  -0.131038  0  3.991962  0  0  -0.083601  -0.133998  0  3.96325  0
C  C66  1  0.58354971  0.73857186  0.77909582  1  0  -0.090285  0  3.718798  0  0.004107  0  -0.132786  0  3.974238  0  0  -0.131022  0  3.992041  0  0  -0.083589  -0.133981  0  3.963327  0
C  C67  1  0.26142685  0.41645053  0.72090438  1  0  -0.09023  0  3.718779  0  0.004129  0  -0.132731  0  3.97424  0  0  -0.130967  0  3.992045  0  0  -0.083601  -0.133927  0  3.963329  0
C  C68  1  0.32083668  0.27352744  0.16701564  1  0  -0.039428  0  3.756291  0  -0.033505  0  -0.013149  0  3.987822  0  0  -0.020113  0  4.009429  0  0  -0.012335  -0.009319  0  3.974939  0
C  C69  1  0.72647252  0.67916704  0.33298430  1  0  -0.039353  0  3.756277  0  -0.033675  0  -0.013025  0  3.987777  0  0  -0.019988  0  4.009387  0  0  -0.012306  -0.009196  0  3.974893  0
C  C70  1  0.67916732  0.72647231  0.83298402  1  0  -0.03931  0  3.756149  0  -0.033635  0  -0.013026  0  3.987712  0  0  -0.019991  0  4.009317  0  0  -0.012282  -0.0092  0  3.974833  0
C  C71  1  0.27352745  0.32083396  0.66701551  1  0  -0.039356  0  3.756169  0  -0.033642  0  -0.013157  0  3.987811  0  0  -0.02012  0  4.009419  0  0  -0.012303  -0.009331  0  3.974928  0
C  C72  1  0.17097223  0.25494849  0.18089515  1  0  -0.187919  0  3.695815  0  -0.000118  0  -0.222845  0  3.946429  0  0  -0.224568  0  3.964581  0  0  -0.090584  -0.221612  0  3.934933  0
C  C73  1  0.74505102  0.82902752  0.31910508  1  0  -0.187966  0  3.695837  0  3e-06  0  -0.222895  0  3.946433  0  0  -0.224618  0  3.964585  0  0  -0.090608  -0.22166  0  3.934935  0
C  C74  1  0.82903010  0.74504995  0.81910467  1  0  -0.188048  0  3.695724  0  5.4e-05  0  -0.222959  0  3.946366  0  0  -0.224681  0  3.964516  0  0  -0.090648  -0.221728  0  3.934872  0
C  C75  1  0.25494903  0.17097089  0.68089436  1  0  -0.18795  0  3.695658  0  1e-05  0  -0.22283  0  3.946324  0  0  -0.224552  0  3.964474  0  0  -0.090594  -0.221599  0  3.934828  0
C  C76  1  0.11749068  0.22373114  0.24893905  1  0  0.323958  0  3.835119  0  0.467057  0  0.316145  0  4.103405  0  0  0.324505  0  4.120842  0  0  0.083311  0.310073  0  4.091771  0
C  C77  1  0.77626592  0.88251344  0.25106109  1  0  0.323972  0  3.835176  0  0.467042  0  0.316158  0  4.103452  0  0  0.324525  0  4.12089  0  0  0.083294  0.310088  0  4.091819  0
C  C78  1  0.88251278  0.77626730  0.75106020  1  0  0.323998  0  3.835156  0  0.466993  0  0.316138  0  4.103498  0  0  0.324502  0  4.120935  0  0  0.08328  0.310068  0  4.091864  0
C  C79  1  0.22373353  0.11748626  0.74893933  1  0  0.323921  0  3.83524  0  0.46705  0  0.316033  0  4.103628  0  0  0.324394  0  4.121065  0  0  0.08321  0.309963  0  4.091995  0
C  C80  1  0.36227088  0.23100962  0.28867000  1  0  -0.056647  0  3.808786  0  -0.041553  0  -0.031785  0  4.048449  0  0  -0.039864  0  4.072019  0  0  -0.02069  -0.027181  0  4.03353  0
C  C81  1  0.76899327  0.63773022  0.21132887  1  0  -0.056658  0  3.808746  0  -0.041569  0  -0.031791  0  4.048406  0  0  -0.039868  0  4.071971  0  0  -0.020684  -0.027189  0  4.03349  0
C  C82  1  0.63772918  0.76898878  0.71132893  1  0  -0.056644  0  3.80876  0  -0.04155  0  -0.031768  0  4.048413  0  0  -0.039847  0  4.071981  0  0  -0.020677  -0.027166  0  4.033495  0
C  C83  1  0.23100679  0.36226819  0.78867108  1  0  -0.05678  0  3.808955  0  -0.041586  0  -0.031891  0  4.048603  0  0  -0.039971  0  4.072173  0  0  -0.02071  -0.027287  0  4.033685  0
C  C84  1  0.73911564  0.31464469  0.58724641  1  0  0.76474  0  3.768701  0  1.582702  0  0.722609  0  4.065123  0  0  0.757176  0  4.053654  0  0  0.23385  0.699237  0  4.065566  0
C  C85  1  0.68535441  0.26088393  0.91275409  1  0  0.764777  0  3.768713  0  1.582706  0  0.722663  0  4.065108  0  0  0.757239  0  4.053632  0  0  0.233871  0.699291  0  4.06555  0
C  C86  1  0.26088442  0.68535371  0.41275354  1  0  0.764747  0  3.768687  0  1.582697  0  0.722624  0  4.06508  0  0  0.757202  0  4.053604  0  0  0.233864  0.699253  0  4.06552  0
C  C87  1  0.31464731  0.73911579  0.08724621  1  0  0.764751  0  3.768759  0  1.582701  0  0.72265  0  4.065144  0  0  0.757225  0  4.053669  0  0  0.23388  0.69928  0  4.065585  0
C  C88  1  0.80082317  0.32111478  0.65461672  1  0  -0.263003  0  3.624604  0  0.015038  0  -0.29563  0  3.863374  0  0  -0.301523  0  3.871245  0  0  -0.158776  -0.292258  0  3.859543  0
C  C89  1  0.67888732  0.19917498  0.84538368  1  0  -0.262919  0  3.624705  0  0.015069  0  -0.295585  0  3.863464  0  0  -0.301494  0  3.871355  0  0  -0.158761  -0.292212  0  3.859633  0
C  C90  1  0.19917855  0.67888495  0.34538307  1  0  -0.262984  0  3.624702  0  0.015087  0  -0.295605  0  3.863415  0  0  -0.301522  0  3.871315  0  0  -0.158771  -0.292234  0  3.859585  0
C  C91  1  0.32111554  0.80082476  0.15461604  1  0  -0.262919  0  3.624602  0  0.015039  0  -0.295546  0  3.863356  0  0  -0.301453  0  3.871242  0  0  -0.158747  -0.292175  0  3.859527  0
C  C92  1  0.71924796  0.24780481  0.71495463  1  0  -0.070349  0  3.634319  0  -0.095079  0  -0.110143  0  3.89205  0  0  -0.110493  0  3.905814  0  0  -0.16052  -0.109821  0  3.883017  0
C  C93  1  0.75219557  0.28075188  0.78504577  1  0  -0.070262  0  3.634342  0  -0.069348  0  -0.110037  0  3.89206  0  0  -0.110382  0  3.905828  0  0  -0.16045  -0.109715  0  3.883026  0
C  C94  1  0.28075315  0.75219621  0.28504563  1  0  -0.070267  0  3.634258  0  -0.06928  0  -0.110061  0  3.891994  0  0  -0.110405  0  3.90576  0  0  -0.160465  -0.109739  0  3.88296  0
C  C95  1  0.24780615  0.71924784  0.21495401  1  0  -0.070311  0  3.634205  0  -0.095111  0  -0.110105  0  3.891954  0  0  -0.110442  0  3.905722  0  0  -0.160497  -0.109783  0  3.882921  0
O  O96  1  0.59825113  0.24457766  0.33271003  1  0  -0.700142  0  1.994121  0  -1.220139  0  -0.650328  0  2.236461  0  0  -0.673802  0  2.22548  0  0  -0.361078  -0.627261  0  2.242486  0
O  O97  1  0.75542303  0.40175084  0.16728934  1  0  -0.700152  0  1.994189  0  -1.22009  0  -0.650311  0  2.236486  0  0  -0.673793  0  2.225525  0  0  -0.361074  -0.627246  0  2.242514  0
O  O98  1  0.40174710  0.75542461  0.66728981  1  0  -0.700172  0  1.99407  0  -1.220125  0  -0.650359  0  2.236431  0  0  -0.673821  0  2.225423  0  0  -0.361097  -0.627289  0  2.242454  0
O  O99  1  0.24457362  0.59824752  0.83271131  1  0  -0.700103  0  1.994217  0  -1.220108  0  -0.650283  0  2.236575  0  0  -0.673749  0  2.225577  0  0  -0.361053  -0.627215  0  2.242604  0
O  O100  1  0.61367023  0.44684384  0.56048739  1  0  -0.822636  0  2.133774  0  -1.250359  0  -0.781909  0  2.394269  0  0  -0.807119  0  2.383186  0  0  -0.413518  -0.749322  0  2.401917  0
O  O101  1  0.55315590  0.38632826  0.93951375  1  0  -0.822635  0  2.133787  0  -1.250378  0  -0.78191  0  2.394267  0  0  -0.80712  0  2.383178  0  0  -0.413522  -0.749322  0  2.401917  0
O  O102  1  0.38632975  0.55315716  0.43951345  1  0  -0.822624  0  2.133783  0  -1.250359  0  -0.781907  0  2.394281  0  0  -0.807117  0  2.383192  0  0  -0.413526  -0.749323  0  2.401929  0
O  O103  1  0.44684294  0.61367272  0.06048613  1  0  -0.822629  0  2.133835  0  -1.250334  0  -0.781914  0  2.394314  0  0  -0.807121  0  2.383223  0  0  -0.41352  -0.749326  0  2.401962  0
O  O104  1  0.54053787  0.26945426  0.08481203  1  0  -0.722583  0  2.041759  0  -1.221526  0  -0.68146  0  2.288973  0  0  -0.705398  0  2.276793  0  0  -0.393953  -0.655225  0  2.29816  0
O  O105  1  0.73054714  0.45946281  0.41518740  1  0  -0.722581  0  2.041705  0  -1.221504  0  -0.681439  0  2.288975  0  0  -0.705373  0  2.276795  0  0  -0.393939  -0.655205  0  2.298158  0
O  O106  1  0.45946097  0.73054672  0.91518632  1  0  -0.722615  0  2.041705  0  -1.221526  0  -0.681478  0  2.288975  0  0  -0.705415  0  2.276789  0  0  -0.393995  -0.655239  0  2.298163  0
O  O107  1  0.26945344  0.54053690  0.58481245  1  0  -0.722549  0  2.04175  0  -1.221515  0  -0.68143  0  2.28897  0  0  -0.705365  0  2.276792  0  0  -0.393942  -0.655194  0  2.298153  0
O  O108  1  0.80732134  0.17326537  0.55741685  1  0  -0.702827  0  1.95363  0  -1.226049  0  -0.647405  0  2.174122  0  0  -0.67296  0  2.162764  0  0  -0.356931  -0.622623  0  2.18279  0
O  O109  1  0.82673459  0.19267714  0.94258410  1  0  -0.702878  0  1.953605  0  -1.226058  0  -0.64746  0  2.174104  0  0  -0.673017  0  2.162741  0  0  -0.35694  -0.622675  0  2.182774  0
O  O110  1  0.19267750  0.82673562  0.44258354  1  0  -0.702836  0  1.953546  0  -1.226047  0  -0.647428  0  2.174059  0  0  -0.672984  0  2.162695  0  0  -0.35693  -0.62264  0  2.182728  0
O  O111  1  0.17326486  0.80732255  0.05741683  1  0  -0.702886  0  1.953597  0  -1.226034  0  -0.647475  0  2.174083  0  0  -0.673032  0  2.162722  0  0  -0.356962  -0.622689  0  2.182755  0
O  O112  1  0.26630804  0.40574913  0.05299866  1  0  -0.741623  0  2.027762  0  -1.232045  0  -0.690956  0  2.264915  0  0  -0.715914  0  2.252619  0  0  -0.372049  -0.665369  0  2.274864  0
O  O113  1  0.59425096  0.73369259  0.44700152  1  0  -0.741659  0  2.027709  0  -1.232048  0  -0.690966  0  2.264906  0  0  -0.715926  0  2.252622  0  0  -0.372024  -0.66538  0  2.274853  0
O  O114  1  0.73369019  0.59425314  0.94700118  1  0  -0.741661  0  2.027749  0  -1.232244  0  -0.690964  0  2.264935  0  0  -0.71593  0  2.252651  0  0  -0.372032  -0.665381  0  2.274883  0
O  O115  1  0.40574849  0.26630710  0.55299891  1  0  -0.741649  0  2.027791  0  -1.232046  0  -0.690971  0  2.26492  0  0  -0.715928  0  2.252631  0  0  -0.372053  -0.665392  0  2.274865  0
O  O116  1  0.97372551  0.20179650  0.26438172  1  0  -0.544532  0  2.185431  0  -1.200849  0  -0.482739  0  2.398689  0  0  -0.502663  0  2.390278  0  0  -0.345805  -0.468945  0  2.405139  0
O  O117  1  0.79820155  0.02627603  0.23561818  1  0  -0.544469  0  2.185536  0  -1.200373  0  -0.48268  0  2.398823  0  0  -0.502599  0  2.390379  0  0  -0.34575  -0.468887  0  2.405272  0
O  O118  1  0.02627568  0.79820192  0.73561766  1  0  -0.544481  0  2.185621  0  -1.20036  0  -0.482668  0  2.398904  0  0  -0.502595  0  2.390483  0  0  -0.34575  -0.468876  0  2.405354  0
O  O119  1  0.20179502  0.97372493  0.76438132  1  0  -0.544506  0  2.18565  0  -1.200864  0  -0.482661  0  2.3989  0  0  -0.502598  0  2.390515  0  0  -0.345731  -0.468869  0  2.405351  0
O  O120  1  0.90124221  0.09374557  0.40165997  1  0  -0.929247  0  1.847176  0  -1.336232  0  -0.89192  0  2.044288  0  0  -0.909379  0  2.010063  0  0  -0.654983  -0.870795  0  2.072925  0
O  O121  1  0.90625296  0.09875774  0.09834049  1  0  -0.929204  0  1.847228  0  -1.336236  0  -0.891887  0  2.044339  0  0  -0.909346  0  2.010114  0  0  -0.654956  -0.870755  0  2.07295  0
O  O122  1  0.09875724  0.90625413  0.59834046  1  0  -0.9292  0  1.847213  0  -1.336197  0  -0.891881  0  2.044329  0  0  -0.90934  0  2.010102  0  0  -0.654963  -0.870752  0  2.072953  0
O  O123  1  0.09374535  0.90124195  0.90166051  1  0  -0.929215  0  1.84717  0  -1.336235  0  -0.891882  0  2.044287  0  0  -0.909342  0  2.010063  0  0  -0.65496  -0.870743  0  2.07291  0
O  O124  1  0.40479107  0.21220886  0.40804930  1  0  -0.699246  0  2.040703  0  -1.208081  0  -0.650035  0  2.277291  0  0  -0.674129  0  2.266791  0  0  -0.360771  -0.626919  0  2.283991  0
O  O125  1  0.78779329  0.59521011  0.09195010  1  0  -0.699268  0  2.040637  0  -1.208087  0  -0.650056  0  2.277216  0  0  -0.674151  0  2.266718  0  0  -0.360781  -0.626938  0  2.283919  0
O  O126  1  0.59520350  0.78780115  0.59194981  1  0  -0.699288  0  2.040544  0  -1.208095  0  -0.650082  0  2.27716  0  0  -0.674176  0  2.266657  0  0  -0.360756  -0.62696  0  2.28386  0
O  O127  1  0.21220389  0.40478956  0.90804994  1  0  -0.699279  0  2.040566  0  -1.208084  0  -0.650062  0  2.277161  0  0  -0.674158  0  2.266659  0  0  -0.360776  -0.62694  0  2.283862  0
O  O128  1  0.69888850  0.95609370  0.48804957  1  0  -0.90229  0  1.826297  0  -1.280215  0  -0.866659  0  2.001316  0  0  -0.88329  0  1.968692  0  0  -0.639354  -0.846481  0  2.028854  0
O  O129  1  0.04390669  0.30111110  0.01195017  1  0  -0.902332  0  1.826223  0  -1.280211  0  -0.866699  0  2.001263  0  0  -0.883329  0  1.968634  0  0  -0.639371  -0.846521  0  2.028803  0
O  O130  1  0.30111033  0.04390729  0.51194979  1  0  -0.902326  0  1.826248  0  -1.280213  0  -0.866695  0  2.001291  0  0  -0.883329  0  1.968675  0  0  -0.639371  -0.846513  0  2.028832  0
O  O131  1  0.95609215  0.69888989  0.98805072  1  0  -0.902365  0  1.82621  0  -1.280418  0  -0.866741  0  2.001247  0  0  -0.883368  0  1.968619  0  0  -0.63941  -0.846558  0  2.02879  0
