# generated using pymatgen
data_DyH35C21O19
_symmetry_space_group_name_H-M   'P 1'
_cell_length_a   6.14070333
_cell_length_b   9.94967011
_cell_length_c   24.88381214
_cell_angle_alpha   90.00041880
_cell_angle_beta   90.00041779
_cell_angle_gamma   103.93790915
_symmetry_Int_Tables_number   1
_chemical_formula_structural   DyH35C21O19
_chemical_formula_sum   'Dy2 H70 C42 O38'
_cell_volume   1475.58728129
_cell_formula_units_Z   2
loop_
 _symmetry_equiv_pos_site_id
 _symmetry_equiv_pos_as_xyz
  1  'x, y, z'
loop_
 _atom_site_type_symbol
 _atom_site_label
 _atom_site_symmetry_multiplicity
 _atom_site_fract_x
 _atom_site_fract_y
 _atom_site_fract_z
 _atom_site_occupancy
 _atom_site_pbe_bader_charge
 _atom_site_pbe_bader_spin_density
 _atom_site_pbe_cm5_charge
 _atom_site_pbe_ddec_charge
 _atom_site_pbe_ddec_spin_density
 _atom_site_pbe_ddec_sum_bond_order
 _atom_site_pbe_magmom
Dy  Dy0  1  0.89467972  0.89636486  0.74484016  1  2.178729  0  1.520206  2.044829  0  2.191012  0
Dy  Dy1  1  0.10532368  0.10363102  0.24483813  1  2.178786  0  1.520145  2.044725  0  2.191204  0
H  H2  1  0.91305812  0.80609867  0.86026408  1  0.651155  0  0.315458  0.371441  0  0.948454  0
H  H3  1  0.08695158  0.19390412  0.36026671  1  0.651079  0  0.315459  0.371344  0  0.948536  0
H  H4  1  0.29600529  0.01375617  0.02121930  1  0.6558  0  0.283434  0.328776  0  1.041651  0
H  H5  1  0.70399245  0.98624158  0.52121924  1  0.655748  0  0.283423  0.328711  0  1.041756  0
H  H6  1  0.07286140  0.81948763  0.04698844  1  0.637087  0  0.304267  0.361516  0  0.955515  0
H  H7  1  0.92713499  0.18051286  0.54699003  1  0.637071  0  0.304293  0.361501  0  0.955474  0
H  H8  1  0.85586743  0.65177943  0.93970621  1  0.592309  0  0.330698  0.367112  0  0.883307  0
H  H9  1  0.14415156  0.34822830  0.43970979  1  0.592268  0  0.330688  0.366996  0  0.883395  0
H  H10  1  0.72930775  0.58522353  0.76608389  1  0.642021  0  0.318878  0.37602  0  0.93537  0
H  H11  1  0.27069237  0.41478230  0.26608669  1  0.641995  0  0.318914  0.376153  0  0.935207  0
H  H12  1  0.35493857  0.32033015  0.90686344  1  0.589576  0  0.313242  0.34568  0  0.930868  0
H  H13  1  0.64503721  0.67968160  0.40686809  1  0.589598  0  0.313095  0.345498  0  0.931036  0
H  H14  1  0.53968829  0.22280413  0.83191193  1  0.649827  0  0.293269  0.332724  0  1.029701  0
H  H15  1  0.46031693  0.77720533  0.33191412  1  0.649821  0  0.293215  0.332665  0  1.029808  0
H  H16  1  0.70248348  0.32385371  0.75325104  1  0.618212  0  0.325706  0.363547  0  0.902715  0
H  H17  1  0.29751849  0.67614969  0.25325024  1  0.618297  0  0.325723  0.363658  0  0.902618  0
H  H18  1  0.95422953  0.68953376  0.65693336  1  0.657353  0  0.315907  0.381573  0  0.944432  0
H  H19  1  0.04577322  0.31045893  0.15693626  1  0.657383  0  0.315944  0.381635  0  0.944332  0
H  H20  1  0.15202404  0.53501502  0.60522210  1  0.660392  0  0.303297  0.355396  0  0.992014  0
H  H21  1  0.84797773  0.46498266  0.10522527  1  0.660382  0  0.303251  0.355296  0  0.992153  0
H  H22  1  0.36697060  0.39841761  0.56435054  1  0.640462  0  0.32728  0.373484  0  0.89283  0
H  H23  1  0.63302837  0.60156869  0.06435332  1  0.640471  0  0.327306  0.373523  0  0.892861  0
H  H24  1  0.84801920  0.39041336  0.51919790  1  0.593219  0  0.306935  0.344212  0  0.947944  0
H  H25  1  0.15199685  0.60957782  0.01919704  1  0.593363  0  0.306976  0.34438  0  0.947651  0
H  H26  1  0.36594112  0.98842461  0.73328974  1  0.660487  0  0.301815  0.401543  0  0.932037  0
H  H27  1  0.63405286  0.01158050  0.23329000  1  0.660436  0  0.301848  0.401616  0  0.93195  0
H  H28  1  0.30218914  0.10566497  0.76885569  1  0.635151  0  0.295177  0.384592  0  0.964538  0
H  H29  1  0.69780742  0.89433994  0.26885503  1  0.63513  0  0.295186  0.384619  0  0.964488  0
H  H30  1  0.01454685  0.14449184  0.93476295  1  0.023414  0  0.100218  0.115693  0  0.986448  0
H  H31  1  0.98545223  0.85550774  0.43476510  1  0.023388  0  0.100197  0.115667  0  0.9864  0
H  H32  1  0.21255595  0.11008616  0.88777470  1  0.075689  0  0.100533  0.118128  0  1.032821  0
H  H33  1  0.78746130  0.88991719  0.38777660  1  0.075455  0  0.100515  0.118162  0  1.032859  0
H  H34  1  0.19334087  0.88190558  0.92873778  1  0.017771  0  0.091725  0.026738  0  0.991991  0
H  H35  1  0.80667078  0.11810095  0.42873705  1  0.017822  0  0.091718  0.026738  0  0.99206  0
H  H36  1  0.87051956  0.95818949  0.01040694  1  0.053796  0  0.108916  0.063112  0  0.977942  0
H  H37  1  0.12947629  0.04181220  0.51040670  1  0.053779  0  0.108936  0.063125  0  0.977934  0
H  H38  1  0.58715314  0.76925988  0.97294422  1  0.086864  0  0.10658  0.057849  0  0.961215  0
H  H39  1  0.41285362  0.23074364  0.47294914  1  0.086704  0  0.106582  0.05783  0  0.961109  0
H  H40  1  0.60929156  0.99793463  0.93222332  1  0.132151  0  0.107727  0.13787  0  1.005511  0
H  H41  1  0.39071655  0.00207099  0.43222633  1  0.130622  0  0.107706  0.137872  0  1.005524  0
H  H42  1  0.53296121  0.86785174  0.88260165  1  0.037953  0  0.101504  0.113716  0  0.986582  0
H  H43  1  0.46703848  0.13215280  0.38260396  1  0.038004  0  0.101515  0.113723  0  0.986638  0
H  H44  1  0.41807650  0.66262226  0.86001226  1  0.060936  0  0.100614  0.116329  0  1.003863  0
H  H45  1  0.58190627  0.33738614  0.36001940  1  0.06111  0  0.10057  0.116318  0  1.003868  0
H  H46  1  0.16433521  0.56281217  0.83148812  1  0.021963  0  0.104184  0.122269  0  0.969618  0
H  H47  1  0.83565409  0.43719439  0.33149601  1  0.02207  0  0.104212  0.122234  0  0.969679  0
H  H48  1  0.60066021  0.46975548  0.84812771  1  0.040324  0  0.099426  0.040612  0  0.980963  0
H  H49  1  0.39932857  0.53025254  0.34812746  1  0.040193  0  0.09945  0.040664  0  0.980933  0
H  H50  1  0.14365018  0.31767148  0.80309820  1  0.030643  0  0.112813  0.074679  0  0.973295  0
H  H51  1  0.85634550  0.68232908  0.30310323  1  0.030671  0  0.11278  0.074594  0  0.973461  0
H  H52  1  0.34071922  0.29985395  0.71873989  1  0.088328  0  0.116376  0.073595  0  0.952686  0
H  H53  1  0.65928640  0.70014125  0.21874262  1  0.088437  0  0.11638  0.07353  0  0.952831  0
H  H54  1  0.41979755  0.55199480  0.69258679  1  0.049062  0  0.105187  0.119157  0  1.005751  0
H  H55  1  0.58020822  0.44799872  0.19259104  1  0.049096  0  0.105134  0.118987  0  1.005961  0
H  H56  1  0.16628106  0.49551597  0.72914358  1  0.044269  0  0.11196  0.136561  0  0.963489  0
H  H57  1  0.83371687  0.50447961  0.22915046  1  0.044303  0  0.111977  0.136572  0  0.963494  0
H  H58  1  0.45345531  0.72825134  0.63092008  1  0.061607  0  0.101472  0.112554  0  0.999627  0
H  H59  1  0.54654068  0.27173872  0.13092335  1  0.061832  0  0.101479  0.112495  0  0.999755  0
H  H60  1  0.51582696  0.76401889  0.56194683  1  0.06629  0  0.106106  0.125122  0  0.977812  0
H  H61  1  0.48417443  0.23596939  0.06195270  1  0.066297  0  0.106125  0.125101  0  0.977839  0
H  H62  1  0.63081719  0.52596208  0.62642987  1  0.06579  0  0.106217  0.051486  0  0.982856  0
H  H63  1  0.36918687  0.47403191  0.12643423  1  0.065905  0  0.106255  0.051537  0  0.982857  0
H  H64  1  0.70048985  0.59796609  0.50738075  1  0.070454  0  0.102111  0.059299  0  0.974924  0
H  H65  1  0.29951351  0.40202290  0.00738477  1  0.070411  0  0.102113  0.059243  0  0.97494  0
H  H66  1  0.10482248  0.63299804  0.53247731  1  0.068603  0  0.108224  0.054895  0  0.963912  0
H  H67  1  0.89518364  0.36699570  0.03247948  1  0.068696  0  0.108222  0.054963  0  0.963949  0
H  H68  1  0.14442002  0.85653750  0.58022036  1  0.063003  0  0.105076  0.124946  0  0.96576  0
H  H69  1  0.85558518  0.14345847  0.08022220  1  0.063022  0  0.105063  0.124887  0  0.965802  0
H  H70  1  0.92384854  0.83403808  0.53199851  1  0.076153  0  0.10347  0.113655  0  1.036457  0
H  H71  1  0.07615623  0.16595254  0.03200184  1  0.07625  0  0.103441  0.113577  0  1.036508  0
C  C72  1  0.87331139  0.99452003  0.87513262  1  0.419129  0  0.070499  0.23847  0  3.805462  0
C  C73  1  0.12670419  0.00548408  0.37513356  1  0.419233  0  0.070476  0.238205  0  3.805721  0
C  C74  1  0.06621806  0.06212351  0.91228561  1  -0.017412  0  -0.176496  -0.307871  0  3.895204  0
C  C75  1  0.93379809  0.93787942  0.41228711  1  -0.017143  0  -0.176462  -0.307776  0  3.895066  0
C  C76  1  0.13282712  0.96136104  0.95150325  1  0.503992  0  -0.017042  0.184076  0  3.897439  0
C  C77  1  0.86717394  0.03864204  0.45150319  1  0.503771  0  -0.017018  0.183969  0  3.897656  0
C  C78  1  0.92897510  0.88415496  0.98438948  1  0.418708  0  -0.015958  0.068462  0  3.884171  0
C  C79  1  0.07102195  0.11584795  0.48439024  1  0.418739  0  -0.01599  0.068474  0  3.884207  0
C  C80  1  0.73267170  0.81690254  0.94758737  1  0.413093  0  -0.001381  0.185399  0  3.814866  0
C  C81  1  0.26733244  0.18310040  0.44759109  1  0.413083  0  -0.001281  0.185651  0  3.814432  0
C  C82  1  0.67099590  0.92072323  0.90894267  1  -0.078472  0  -0.16435  -0.310146  0  3.870997  0
C  C83  1  0.32901085  0.07928080  0.40894619  1  -0.077028  0  -0.164381  -0.310254  0  3.871241  0
C  C84  1  0.81284512  0.10482036  0.83850544  1  1.622969  0  0.218363  0.567432  0  4.131723  0
C  C85  1  0.18716903  0.89518287  0.33850428  1  1.623032  0  0.218369  0.567534  0  4.131651  0
C  C86  1  0.43238003  0.62949981  0.77407443  1  0.466171  0  0.074535  0.229543  0  3.813469  0
C  C87  1  0.56761055  0.37050219  0.27407963  1  0.4663  0  0.074559  0.229709  0  3.813432  0
C  C88  1  0.34827392  0.58156276  0.83060943  1  0.008171  0  -0.165613  -0.289606  0  3.876606  0
C  C89  1  0.65171328  0.41844277  0.33061613  1  0.008405  0  -0.165548  -0.289703  0  3.876676  0
C  C90  1  0.41581282  0.44948901  0.84620498  1  0.467598  0  -0.01324  0.176271  0  3.907185  0
C  C91  1  0.58417677  0.55052103  0.34620914  1  0.46731  0  -0.013199  0.176475  0  3.906997  0
C  C92  1  0.32825333  0.33795726  0.80392544  1  0.508658  0  -0.016095  0.065857  0  3.884258  0
C  C93  1  0.67174461  0.66204849  0.30393049  1  0.509105  0  -0.016073  0.06592  0  3.884161  0
C  C94  1  0.41470587  0.38290486  0.74730243  1  0.391381  0  -0.006465  0.169649  0  3.847473  0
C  C95  1  0.58530219  0.61709413  0.24730638  1  0.390772  0  -0.006512  0.169598  0  3.847451  0
C  C96  1  0.34987251  0.51564516  0.73202195  1  0.003894  0  -0.159191  -0.29815  0  3.874856  0
C  C97  1  0.65012686  0.48435359  0.23202723  1  0.003698  0  -0.159231  -0.298039  0  3.874971  0
C  C98  1  0.34958505  0.75624767  0.75711251  1  1.576496  0  0.23619  0.594549  0  4.107775  0
C  C99  1  0.65041914  0.24375684  0.25711789  1  1.576425  0  0.236123  0.594541  0  4.107695  0
C  C100  1  0.80688250  0.81102619  0.61358515  1  0.43521  0  0.073567  0.235511  0  3.781289  0
C  C101  1  0.19311870  0.18896962  0.11358795  1  0.435544  0  0.073564  0.235336  0  3.781691  0
C  C102  1  0.57289246  0.72153177  0.59873821  1  -0.060939  0  -0.164541  -0.299193  0  3.851444  0
C  C103  1  0.42710433  0.27845853  0.09874209  1  -0.061413  0  -0.164591  -0.299022  0  3.851491  0
C  C104  1  0.57927275  0.57054646  0.58934072  1  0.442536  0  -0.007025  0.186553  0  3.836076  0
C  C105  1  0.42072573  0.42944462  0.08934463  1  0.442614  0  -0.007003  0.186553  0  3.836139  0
C  C106  1  0.74700373  0.55681399  0.54590900  1  0.450473  0  -0.016403  0.080852  0  3.895946  0
C  C107  1  0.25299880  0.44317805  0.04591185  1  0.450352  0  -0.016235  0.08121  0  3.895903  0
C  C108  1  0.97945556  0.64236708  0.56307310  1  0.410362  0  -0.006044  0.173594  0  3.847356  0
C  C109  1  0.02054411  0.35762855  0.06307528  1  0.410413  0  -0.006096  0.173284  0  3.84769  0
C  C110  1  0.97568366  0.79483206  0.56997218  1  -0.064422  0  -0.167693  -0.317419  0  3.887582  0
C  C111  1  0.02432069  0.20516263  0.06997473  1  -0.064681  0  -0.167661  -0.317148  0  3.887556  0
C  C112  1  0.79956206  0.96498695  0.62207201  1  1.619914  0  0.224724  0.578168  0  4.125696  0
C  C113  1  0.20043139  0.03500918  0.12207397  1  1.620065  0  0.2248  0.578539  0  4.125346  0
O  O114  1  0.94094743  0.89473333  0.83996469  1  -1.163622  0  -0.459603  -0.633068  0  2.391096  0
O  O115  1  0.05906397  0.10527102  0.33996540  1  -1.163522  0  -0.459554  -0.632846  0  2.391073  0
O  O116  1  0.82628139  0.08951327  0.78759643  1  -1.198265  0  -0.408247  -0.646333  0  2.234556  0
O  O117  1  0.17371722  0.91048373  0.28759770  1  -1.19832  0  -0.408254  -0.646334  0  2.23464  0
O  O118  1  0.75218492  0.20337082  0.86094783  1  -1.196102  0  -0.324262  -0.538496  0  2.173104  0
O  O119  1  0.24782747  0.79663820  0.36094769  1  -1.196108  0  -0.324209  -0.538424  0  2.172995  0
O  O120  1  0.31455259  0.04098869  0.98243462  1  -1.192192  0  -0.428512  -0.540781  0  2.239438  0
O  O121  1  0.68544130  0.95901839  0.48243252  1  -1.192008  0  -0.42856  -0.540753  0  2.239549  0
O  O122  1  0.97608581  0.77461253  0.01694716  1  -1.156408  0  -0.411967  -0.544412  0  2.250985  0
O  O123  1  0.02392030  0.22538603  0.51695049  1  -1.156426  0  -0.412031  -0.544435  0  2.251123  0
O  O124  1  0.79094042  0.70835308  0.91532653  1  -1.097961  0  -0.38565  -0.494486  0  2.223827  0
O  O125  1  0.20906893  0.29164899  0.41533047  1  -1.097791  0  -0.385738  -0.494454  0  2.223779  0
O  O126  1  0.67579184  0.66979310  0.77361778  1  -1.17193  0  -0.443752  -0.617526  0  2.397379  0
O  O127  1  0.32420285  0.33021091  0.27362324  1  -1.172113  0  -0.443742  -0.617646  0  2.397338  0
O  O128  1  0.14063329  0.74693017  0.75797391  1  -1.183726  0  -0.377091  -0.621906  0  2.275649  0
O  O129  1  0.85935253  0.25306942  0.25797889  1  -1.183628  0  -0.377006  -0.621813  0  2.275834  0
O  O130  1  0.49825282  0.86223812  0.74169956  1  -1.18942  0  -0.364125  -0.621246  0  2.327499  0
O  O131  1  0.50173193  0.13776005  0.24170156  1  -1.189437  0  -0.364161  -0.621351  0  2.327256  0
O  O132  1  0.32390381  0.40958780  0.89833592  1  -1.106805  0  -0.414391  -0.506644  0  2.187758  0
O  O133  1  0.67607237  0.59042165  0.39834196  1  -1.106816  0  -0.414276  -0.50655  0  2.187752  0
O  O134  1  0.37968035  0.21008256  0.81777808  1  -1.183583  0  -0.385374  -0.500025  0  2.391353  0
O  O135  1  0.62032108  0.78992660  0.31777939  1  -1.18362  0  -0.385297  -0.499983  0  2.391266  0
O  O136  1  0.65781808  0.40926337  0.74433529  1  -1.127134  0  -0.39272  -0.507015  0  2.213529  0
O  O137  1  0.34218516  0.59073979  0.24433632  1  -1.127149  0  -0.392735  -0.507162  0  2.213483  0
O  O138  1  0.87751715  0.76563525  0.66479354  1  -1.167837  0  -0.463835  -0.646012  0  2.413018  0
O  O139  1  0.12248517  0.23435972  0.16479393  1  -1.16795  0  -0.463863  -0.646044  0  2.413131  0
O  O140  1  0.83734121  0.01316399  0.66926719  1  -1.168141  0  -0.409894  -0.621486  0  2.256401  0
O  O141  1  0.16264289  0.98682616  0.16927188  1  -1.168011  0  -0.409988  -0.621698  0  2.255797  0
O  O142  1  0.75651419  0.03341006  0.58238135  1  -1.198701  0  -0.312722  -0.540593  0  2.234363  0
O  O143  1  0.24347506  0.96659037  0.08238733  1  -1.198994  0  -0.312797  -0.540775  0  2.234622  0
O  O144  1  0.04132286  0.59087616  0.61347845  1  -1.171479  0  -0.406415  -0.530689  0  2.313926  0
O  O145  1  0.95868128  0.40912273  0.11348085  1  -1.171524  0  -0.406357  -0.530588  0  2.314093  0
O  O146  1  0.35792734  0.49176163  0.57467585  1  -1.150863  0  -0.386086  -0.50667  0  2.30559  0
O  O147  1  0.64207425  0.50823009  0.07468079  1  -1.151047  0  -0.386177  -0.506791  0  2.305643  0
O  O148  1  0.73012643  0.41143840  0.54172533  1  -1.114161  0  -0.410214  -0.511281  0  2.261937  0
O  O149  1  0.26988548  0.58854922  0.04172823  1  -1.11403  0  -0.410307  -0.511548  0  2.26178  0
O  O150  1  0.24980045  0.04293561  0.73715020  1  -1.296043  0  -0.671438  -0.873989  0  2.055395  0
O  O151  1  0.75018795  0.95706760  0.23714862  1  -1.295982  0  -0.671448  -0.874048  0  2.055376  0
