# generated using pymatgen
data_HgTeH13C11S2N
_symmetry_space_group_name_H-M   'P 1'
_cell_length_a   6.40263972
_cell_length_b   9.36477906
_cell_length_c   22.43000000
_cell_angle_alpha   94.45037005
_cell_angle_beta   90.00000000
_cell_angle_gamma   90.00000000
_symmetry_Int_Tables_number   1
_chemical_formula_structural   HgTeH13C11S2N
_chemical_formula_sum   'Hg4 Te4 H52 C44 S8 N4'
_cell_volume   1340.83230161
_cell_formula_units_Z   4
loop_
 _symmetry_equiv_pos_site_id
 _symmetry_equiv_pos_as_xyz
  1  'x, y, z'
loop_
 _atom_site_type_symbol
 _atom_site_label
 _atom_site_symmetry_multiplicity
 _atom_site_fract_x
 _atom_site_fract_y
 _atom_site_fract_z
 _atom_site_occupancy
 _atom_site_hle17_bader_spin_density
 _atom_site_hle17_ddec_charge
 _atom_site_hle17_ddec_spin_density
 _atom_site_hle17_ddec_sum_bond_order
 _atom_site_hle17_magmom
 _atom_site_hse06_10hf_bader_spin_density
 _atom_site_hse06_10hf_ddec_charge
 _atom_site_hse06_10hf_ddec_spin_density
 _atom_site_hse06_10hf_ddec_sum_bond_order
 _atom_site_hse06_10hf_magmom
 _atom_site_hse06_bader_spin_density
 _atom_site_hse06_ddec_charge
 _atom_site_hse06_ddec_spin_density
 _atom_site_hse06_ddec_sum_bond_order
 _atom_site_hse06_magmom
 _atom_site_pbe_bader_charge
 _atom_site_pbe_bader_spin_density
 _atom_site_pbe_cm5_charge
 _atom_site_pbe_ddec_charge
 _atom_site_pbe_ddec_spin_density
 _atom_site_pbe_ddec_sum_bond_order
 _atom_site_pbe_magmom
Hg  Hg0  1  0.77364497  0.48278038  0.69332054  1  0  0.258613  0  2.287796  0  0  0.157453  0  2.774894  0  0  0.187329  0  2.763187  0  0.263452  0  0.283726  0.13753  0  2.784646  0
Hg  Hg1  1  0.27364026  0.51722353  0.80667714  1  0  0.258611  0  2.287846  0  0  0.15744  0  2.774967  0  0  0.187315  0  2.763264  0  0.263488  0  0.283732  0.137517  0  2.78472  0
Hg  Hg2  1  0.22635195  0.51721818  0.30667830  1  0  0.258617  0  2.287804  0  0  0.157453  0  2.774903  0  0  0.187332  0  2.763192  0  0.263531  0  0.283737  0.13753  0  2.784655  0
Hg  Hg3  1  0.72635666  0.48277931  0.19332050  1  0  0.258639  0  2.287738  0  0  0.157473  0  2.774851  0  0  0.187348  0  2.763151  0  0.263497  0  0.283726  0.13755  0  2.784602  0
Te  Te4  1  0.44760288  0.67158579  0.71470298  1  0  0.070312  0  2.486938  0  0  0.089115  0  2.960815  0  0  0.073262  0  2.958575  0  0.344519  0  0.089134  0.097997  0  2.964179  0
Te  Te5  1  0.94759510  0.32841918  0.78529696  1  0  0.070298  0  2.486954  0  0  0.089095  0  2.960807  0  0  0.07324  0  2.958566  0  0.344578  0  0.089131  0.097977  0  2.964173  0
Te  Te6  1  0.55240497  0.32841811  0.28529648  1  0  0.070283  0  2.486989  0  0  0.089082  0  2.960861  0  0  0.073225  0  2.958622  0  0.344523  0  0.089132  0.097963  0  2.964226  0
Te  Te7  1  0.05240963  0.67157937  0.21470188  1  0  0.070275  0  2.486971  0  0  0.08908  0  2.96084  0  0  0.073223  0  2.958602  0  0.344542  0  0.089129  0.097962  0  2.964203  0
H  H8  1  0.42974462  0.40238553  0.54598437  1  0  0.061586  0  0.964098  0  0  0.07393  0  1.036443  0  0  0.07444  0  1.036856  0  0.074266  0  0.089716  0.073265  0  1.036656  0
H  H9  1  0.92973840  0.59761302  0.95401491  1  0  0.061597  0  0.964142  0  0  0.073916  0  1.036492  0  0  0.074427  0  1.036906  0  0.074319  0  0.089709  0.073252  0  1.036706  0
H  H10  1  0.57025854  0.59761409  0.45401405  1  0  0.061531  0  0.964066  0  0  0.073896  0  1.0364  0  0  0.074407  0  1.036814  0  0.074268  0  0.089709  0.07323  0  1.036612  0
H  H11  1  0.07024915  0.40239196  0.04598681  1  0  0.061516  0  0.96413  0  0  0.073839  0  1.036515  0  0  0.07435  0  1.036932  0  0.074227  0  0.089708  0.073176  0  1.036727  0
H  H12  1  0.26882194  0.50402700  0.49992728  1  0  0.066924  0  0.957988  0  0  0.078836  0  1.028821  0  0  0.079186  0  1.029281  0  0.042647  0  0.095316  0.078719  0  1.028362  0
H  H13  1  0.76881415  0.49597691  0.00007263  1  0  0.066898  0  0.957977  0  0  0.078799  0  1.028797  0  0  0.079151  0  1.029257  0  0.042695  0  0.095229  0.078682  0  1.028339  0
H  H14  1  0.73117811  0.49597370  0.50007252  1  0  0.066848  0  0.958049  0  0  0.078751  0  1.028912  0  0  0.079102  0  1.029372  0  0.042648  0  0.09525  0.078632  0  1.028452  0
H  H15  1  0.23117496  0.50403021  0.99993005  1  0  0.066886  0  0.958078  0  0  0.078791  0  1.028905  0  0  0.079147  0  1.029357  0  0.042674  0  0.095311  0.078675  0  1.028446  0
H  H16  1  0.79603105  0.10785469  0.89933857  1  0  0.080601  0  0.974669  0  0  0.093635  0  1.036445  0  0  0.096275  0  1.03507  0  0.076059  0  0.09422  0.091682  0  1.038049  0
H  H17  1  0.29604352  0.89214279  0.60066825  1  0  0.080581  0  0.974702  0  0  0.093688  0  1.036423  0  0  0.096328  0  1.035048  0  0.076198  0  0.094229  0.091706  0  1.038065  0
H  H18  1  0.20398305  0.89212994  0.10066828  1  0  0.080565  0  0.974722  0  0  0.093625  0  1.03646  0  0  0.096268  0  1.035084  0  0.076183  0  0.094171  0.091635  0  1.03811  0
H  H19  1  0.70397214  0.10785469  0.39933456  1  0  0.080583  0  0.974735  0  0  0.093698  0  1.036427  0  0  0.09634  0  1.03505  0  0.076194  0  0.094241  0.091741  0  1.038039  0
H  H20  1  0.95872488  0.19035738  0.46976130  1  0  0.061996  0  0.935662  0  0  0.076012  0  1.006107  0  0  0.076549  0  1.00564  0  0.061181  0  0.096504  0.075576  0  1.0064  0
H  H21  1  0.45871861  0.80964545  0.03023544  1  0  0.061861  0  0.935715  0  0  0.075939  0  1.006096  0  0  0.076471  0  1.005635  0  0.061326  0  0.096497  0.075504  0  1.006387  0
H  H22  1  0.04127985  0.80963903  0.53023925  1  0  0.061922  0  0.935689  0  0  0.075935  0  1.006129  0  0  0.076472  0  1.005664  0  0.061177  0  0.096491  0.075499  0  1.006421  0
H  H23  1  0.54125488  0.19035417  0.96976120  1  0  0.062012  0  0.93564  0  0  0.076018  0  1.00606  0  0  0.076545  0  1.005597  0  0.061419  0  0.096521  0.075582  0  1.006354  0
H  H24  1  0.04009440  0.10823063  0.53511045  1  0  0.069618  0  0.958236  0  0  0.084416  0  1.025358  0  0  0.084465  0  1.026708  0  0.062246  0  0.100323  0.084562  0  1.023992  0
H  H25  1  0.54008349  0.89177006  0.96488623  1  0  0.069577  0  0.958174  0  0  0.084362  0  1.025349  0  0  0.084412  0  1.026691  0  0.062116  0  0.100316  0.084508  0  1.023983  0
H  H26  1  0.95991658  0.89176578  0.46488966  1  0  0.069607  0  0.958272  0  0  0.084397  0  1.025424  0  0  0.084437  0  1.026798  0  0.06219  0  0.100332  0.084543  0  1.024056  0
H  H27  1  0.45988532  0.10822635  0.03511031  1  0  0.069675  0  0.958243  0  0  0.084474  0  1.025335  0  0  0.084515  0  1.026687  0  0.062244  0  0.100314  0.08462  0  1.023969  0
H  H28  1  0.29369761  0.32995187  0.41650934  1  0  0.057234  0  0.987952  0  0  0.06836  0  1.066381  0  0  0.069008  0  1.067269  0  0.049401  0  0.07116  0.0677  0  1.066435  0
H  H29  1  0.79368983  0.67005632  0.08348937  1  0  0.057103  0  0.988063  0  0  0.068252  0  1.066493  0  0  0.068906  0  1.067376  0  0.050118  0  0.071136  0.067583  0  1.066551  0
H  H30  1  0.70629931  0.67004882  0.58349001  1  0  0.057253  0  0.987976  0  0  0.06836  0  1.066403  0  0  0.069009  0  1.067291  0  0.048844  0  0.07117  0.0677  0  1.066457  0
H  H31  1  0.20629148  0.32995830  0.91651088  1  0  0.057196  0  0.987943  0  0  0.068288  0  1.066373  0  0  0.068935  0  1.067262  0  0.048877  0  0.071154  0.06763  0  1.066424  0
H  H32  1  0.54237161  0.30149059  0.44851149  1  0  0.071144  0  0.962525  0  0  0.084567  0  1.034125  0  0  0.086049  0  1.033365  0  0.053117  0  0.084257  0.08342  0  1.034856  0
H  H33  1  0.04236534  0.69851760  0.05148588  1  0  0.071142  0  0.96244  0  0  0.084551  0  1.034066  0  0  0.086033  0  1.033308  0  0.053199  0  0.084266  0.083406  0  1.034791  0
H  H34  1  0.45763000  0.69851225  0.55148571  1  0  0.071168  0  0.962517  0  0  0.084592  0  1.034115  0  0  0.086076  0  1.033355  0  0.05313  0  0.084263  0.083442  0  1.034848  0
H  H35  1  0.95761596  0.30150237  0.94851410  1  0  0.071121  0  0.962607  0  0  0.084546  0  1.034165  0  0  0.086027  0  1.033407  0  0.053049  0  0.084236  0.08338  0  1.034913  0
H  H36  1  0.33319070  0.97051227  0.76791695  1  0  0.090873  0  0.982495  0  0  0.102369  0  1.043843  0  0  0.104005  0  1.045372  0  0.096769  0  0.091376  0.10124  0  1.0427  0
H  H37  1  0.83318603  0.02949271  0.73208432  1  0  0.0909  0  0.982465  0  0  0.102405  0  1.043802  0  0  0.104042  0  1.045332  0  0.096718  0  0.091394  0.101275  0  1.042659  0
H  H38  1  0.66682653  0.02949486  0.23208439  1  0  0.090788  0  0.9827  0  0  0.10234  0  1.043972  0  0  0.103976  0  1.045503  0  0.096538  0  0.09139  0.10121  0  1.042829  0
H  H39  1  0.16681557  0.97051548  0.26791349  1  0  0.090789  0  0.982591  0  0  0.102311  0  1.0439  0  0  0.103948  0  1.045428  0  0.096621  0  0.091345  0.101182  0  1.042757  0
H  H40  1  0.99141765  0.88053785  0.87677111  1  0  0.085354  0  0.985141  0  0  0.098171  0  1.047574  0  0  0.101083  0  1.045976  0  0.046973  0  0.087801  0.095969  0  1.048931  0
H  H41  1  0.49143324  0.11945641  0.62323650  1  0  0.085216  0  0.98525  0  0  0.098126  0  1.047582  0  0  0.101039  0  1.04598  0  0.047151  0  0.087749  0.095922  0  1.048945  0
H  H42  1  0.00858552  0.11944356  0.12323475  1  0  0.085267  0  0.985185  0  0  0.098154  0  1.047535  0  0  0.101065  0  1.045936  0  0.047104  0  0.087769  0.095952  0  1.048893  0
H  H43  1  0.50858554  0.88053571  0.37676614  1  0  0.085276  0  0.985107  0  0  0.098118  0  1.047524  0  0  0.101028  0  1.045927  0  0.047264  0  0.087767  0.095917  0  1.04888  0
H  H44  1  0.85776652  0.69647938  0.80085810  1  0  0.067088  0  0.99827  0  0  0.073278  0  1.079644  0  0  0.075827  0  1.077923  0  0.062377  0  0.073282  0.071106  0  1.081508  0
H  H45  1  0.35777431  0.30352667  0.69914589  1  0  0.067048  0  0.998183  0  0  0.073219  0  1.079632  0  0  0.075771  0  1.077912  0  0.062302  0  0.073239  0.071048  0  1.081495  0
H  H46  1  0.14223508  0.30351168  0.19914406  1  0  0.067105  0  0.99826  0  0  0.073311  0  1.079631  0  0  0.075862  0  1.077912  0  0.062513  0  0.073269  0.071136  0  1.081499  0
H  H47  1  0.64224448  0.69647723  0.30085402  1  0  0.067027  0  0.998366  0  0  0.07323  0  1.079744  0  0  0.075782  0  1.078025  0  0.062558  0  0.07326  0.071058  0  1.081611  0
H  H48  1  0.46732287  0.15322051  0.84425056  1  0  0.084629  0  0.961078  0  0  0.097429  0  1.022166  0  0  0.099789  0  1.021528  0  0.063415  0  0.091057  0.095541  0  1.022998  0
H  H49  1  0.96732133  0.84678232  0.65575065  1  0  0.084583  0  0.960992  0  0  0.097388  0  1.022102  0  0  0.099746  0  1.021461  0  0.063332  0  0.091055  0.095499  0  1.022934  0
H  H50  1  0.53270684  0.84677590  0.15575178  1  0  0.084545  0  0.960989  0  0  0.097399  0  1.022039  0  0  0.099743  0  1.021412  0  0.063232  0  0.09103  0.095511  0  1.022871  0
H  H51  1  0.03268339  0.15322051  0.34424788  1  0  0.08463  0  0.960961  0  0  0.097464  0  1.02202  0  0  0.099826  0  1.021375  0  0.063268  0  0.091088  0.095575  0  1.022852  0
H  H52  1  0.40299628  0.10357259  0.50350792  1  0  0.068868  0  0.943614  0  0  0.087057  0  1.005169  0  0  0.087792  0  1.005756  0  0.0337  0  0.089271  0.086421  0  1.004862  0
H  H53  1  0.90298537  0.89643132  0.99648753  1  0  0.068823  0  0.943608  0  0  0.087018  0  1.005135  0  0  0.08775  0  1.005728  0  0.033692  0  0.089252  0.086386  0  1.004819  0
H  H54  1  0.59701313  0.89642703  0.49648962  1  0  0.068872  0  0.943534  0  0  0.087043  0  1.005107  0  0  0.087776  0  1.005696  0  0.033773  0  0.089261  0.086411  0  1.004791  0
H  H55  1  0.09698187  0.10357580  0.00350802  1  0  0.068883  0  0.94367  0  0  0.087082  0  1.005221  0  0  0.087816  0  1.005805  0  0.033455  0  0.089282  0.086445  0  1.004915  0
H  H56  1  0.27865069  0.07196989  0.43264993  1  0  0.07731  0  0.948294  0  0  0.094702  0  1.010891  0  0  0.095515  0  1.011481  0  0.023941  0  0.091137  0.094091  0  1.0106  0
H  H57  1  0.77864134  0.92803723  0.06734517  1  0  0.07738  0  0.948138  0  0  0.09471  0  1.010795  0  0  0.095526  0  1.011381  0  0.023969  0  0.091129  0.094095  0  1.01051  0
H  H58  1  0.72135247  0.92803081  0.56734808  1  0  0.077361  0  0.948236  0  0  0.094716  0  1.010863  0  0  0.09553  0  1.011452  0  0.024076  0  0.091145  0.094105  0  1.010571  0
H  H59  1  0.22132746  0.07197632  0.93265014  1  0  0.077364  0  0.948183  0  0  0.094726  0  1.01084  0  0  0.095533  0  1.011433  0  0.023617  0  0.091106  0.094114  0  1.010549  0
C  C60  1  0.30858366  0.39508304  0.51094574  1  0  0.001604  0  3.608938  0  0  -0.052196  0  3.851142  0  0  -0.048244  0  3.863294  0  0.275356  0  -0.068466  -0.054581  0  3.842705  0
C  C61  1  0.80857743  0.60491765  0.98905227  1  0  0.001596  0  3.608867  0  0  -0.05218  0  3.85109  0  0  -0.048228  0  3.863232  0  0.275417  0  -0.068368  -0.054572  0  3.842664  0
C  C62  1  0.69141951  0.60491658  0.48905402  1  0  0.0017  0  3.608894  0  0  -0.052138  0  3.851121  0  0  -0.048174  0  3.863241  0  0.275446  0  -0.068403  -0.054515  0  3.842671  0
C  C63  1  0.19140855  0.39508625  0.01094808  1  0  0.001787  0  3.60909  0  0  -0.052043  0  3.851248  0  0  -0.048069  0  3.863341  0  0.275501  0  -0.068434  -0.054431  0  3.842814  0
C  C64  1  0.73653371  0.02741593  0.86591717  1  0  -0.085922  0  3.7917  0  0  -0.10099  0  4.041749  0  0  -0.101828  0  4.061703  0  -0.132669  0  -0.100728  -0.100753  0  4.028248  0
C  C65  1  0.23654462  0.97258584  0.63408935  1  0  -0.085842  0  3.791831  0  0  -0.10098  0  4.041896  0  0  -0.101824  0  4.061862  0  -0.150311  0  -0.100685  -0.10072  0  4.028395  0
C  C66  1  0.26347258  0.97257406  0.13408852  1  0  -0.085899  0  3.791821  0  0  -0.100984  0  4.041881  0  0  -0.101822  0  4.06183  0  -0.132268  0  -0.100702  -0.100718  0  4.028386  0
C  C67  1  0.76347104  0.02741486  0.36591268  1  0  -0.08602  0  3.791851  0  0  -0.101174  0  4.041952  0  0  -0.102015  0  4.061911  0  -0.149736  0  -0.100763  -0.100935  0  4.028448  0
C  C68  1  0.08642529  0.18347261  0.50235993  1  0  0.003853  0  3.62043  0  0  -0.056308  0  3.874043  0  0  -0.051695  0  3.885314  0  0.279471  0  -0.063746  -0.059296  0  3.865782  0
C  C69  1  0.58641750  0.81653130  0.99763686  1  0  0.004053  0  3.620502  0  0  -0.056167  0  3.874088  0  0  -0.051546  0  3.885354  0  0.280417  0  -0.063718  -0.059157  0  3.865828  0
C  C70  1  0.91357944  0.81652594  0.49763936  1  0  0.003891  0  3.620628  0  0  -0.056259  0  3.874205  0  0  -0.05165  0  3.885481  0  0.279845  0  -0.063752  -0.059249  0  3.865948  0
C  C71  1  0.41355599  0.18347154  0.00236078  1  0  0.003738  0  3.620482  0  0  -0.05637  0  3.874026  0  0  -0.051734  0  3.885257  0  0.279531  0  -0.063723  -0.059359  0  3.865767  0
C  C72  1  0.37364276  0.29681541  0.45652231  1  0  -0.133848  0  3.672808  0  0  -0.172765  0  3.924824  0  0  -0.174397  0  3.938123  0  -0.048734  0  -0.171395  -0.171731  0  3.915826  0
C  C73  1  0.87363654  0.70319064  0.04347499  1  0  -0.133569  0  3.672503  0  0  -0.172489  0  3.924406  0  0  -0.174126  0  3.93771  0  -0.04971  0  -0.171285  -0.171446  0  3.915407  0
C  C74  1  0.62635416  0.70318635  0.54347663  1  0  -0.133856  0  3.672782  0  0  -0.17271  0  3.924644  0  0  -0.174341  0  3.937946  0  -0.048211  0  -0.171369  -0.171676  0  3.915645  0
C  C75  1  0.12634164  0.29682077  0.95652516  1  0  -0.133855  0  3.672838  0  0  -0.172595  0  3.924582  0  0  -0.17423  0  3.937887  0  -0.048483  0  -0.171351  -0.171547  0  3.91559  0
C  C76  1  0.58743583  0.82214901  0.77950365  1  0  -0.058748  0  3.695219  0  0  -0.025822  0  3.937414  0  0  -0.025288  0  3.964412  0  -0.386995  0  -0.082675  -0.026163  0  3.919016  0
C  C77  1  0.08743894  0.17785383  0.72049755  1  0  -0.058788  0  3.695448  0  0  -0.02581  0  3.937575  0  0  -0.025274  0  3.964572  0  -0.387438  0  -0.082634  -0.026152  0  3.919178  0
C  C78  1  0.41257358  0.17785061  0.22049834  1  0  -0.058805  0  3.69508  0  0  -0.025847  0  3.937264  0  0  -0.025313  0  3.964263  0  -0.386852  0  -0.08268  -0.026186  0  3.918855  0
C  C79  1  0.91257517  0.82214794  0.27950273  1  0  -0.058742  0  3.695311  0  0  -0.025802  0  3.937496  0  0  -0.025268  0  3.964496  0  -0.387089  0  -0.082648  -0.026142  0  3.919096  0
C  C80  1  0.47732500  0.95042882  0.79179774  1  0  -0.09138  0  3.768318  0  0  -0.108338  0  4.011503  0  0  -0.11011  0  4.033175  0  -0.034159  0  -0.103375  -0.10685  0  3.996188  0
C  C81  1  0.97733127  0.04957616  0.70820264  1  0  -0.091448  0  3.768456  0  0  -0.108422  0  4.011634  0  0  -0.110193  0  4.033304  0  -0.034232  0  -0.103432  -0.106934  0  3.996321  0
C  C82  1  0.52269379  0.04957402  0.20820614  1  0  -0.091304  0  3.768251  0  0  -0.108349  0  4.011486  0  0  -0.110118  0  4.033145  0  -0.033942  0  -0.103363  -0.106862  0  3.996178  0
C  C83  1  0.02268127  0.95042560  0.29179452  1  0  -0.091344  0  3.768373  0  0  -0.108344  0  4.01157  0  0  -0.110113  0  4.033238  0  -0.034064  0  -0.103365  -0.106858  0  3.996258  0
C  C84  1  0.84630562  0.89982979  0.85322625  1  0  -0.05691  0  3.736019  0  0  -0.066915  0  3.975366  0  0  -0.069126  0  3.997094  0  -0.030724  0  -0.094149  -0.065375  0  3.961076  0
C  C85  1  0.34631810  0.10016555  0.64677962  1  0  -0.056813  0  3.736008  0  0  -0.066868  0  3.975355  0  0  -0.06908  0  3.997084  0  -0.012963  0  -0.094119  -0.065328  0  3.961054  0
C  C86  1  0.15369598  0.10015377  0.14677834  1  0  -0.056775  0  3.736  0  0  -0.066815  0  3.975345  0  0  -0.069025  0  3.997075  0  -0.030719  0  -0.094067  -0.065275  0  3.961042  0
C  C87  1  0.65369913  0.89982872  0.35322176  1  0  -0.056799  0  3.735897  0  0  -0.06681  0  3.975263  0  0  -0.069019  0  3.996991  0  -0.013934  0  -0.09408  -0.065271  0  3.960971  0
C  C88  1  0.77222368  0.79652604  0.81004983  1  0  -0.086632  0  3.784954  0  0  -0.102581  0  4.028005  0  0  -0.105867  0  4.053123  0  0.019228  0  -0.105539  -0.100307  0  4.011359  0
C  C89  1  0.27222678  0.20347252  0.68995436  1  0  -0.086516  0  3.784881  0  0  -0.102534  0  4.027997  0  0  -0.105824  0  4.053121  0  0.019043  0  -0.105506  -0.100264  0  4.011363  0
C  C90  1  0.22777793  0.20346395  0.18995141  1  0  -0.08653  0  3.78479  0  0  -0.102545  0  4.027884  0  0  -0.105836  0  4.053007  0  0.018534  0  -0.105464  -0.100271  0  4.011249  0
C  C91  1  0.72778888  0.79652389  0.31004664  1  0  -0.086471  0  3.784954  0  0  -0.102462  0  4.02801  0  0  -0.105752  0  4.053135  0  0.019083  0  -0.105494  -0.100187  0  4.011363  0
C  C92  1  0.55221130  0.05286110  0.83506787  1  0  -0.072628  0  3.781739  0  0  -0.084791  0  4.031837  0  0  -0.086308  0  4.051886  0  -0.023214  0  -0.097425  -0.083331  0  4.017358  0
C  C93  1  0.05221596  0.94714280  0.66493515  1  0  -0.072584  0  3.781673  0  0  -0.084783  0  4.031828  0  0  -0.086295  0  4.05187  0  -0.022878  0  -0.09746  -0.083319  0  4.017335  0
C  C94  1  0.44780280  0.94713959  0.16493683  1  0  -0.072621  0  3.781516  0  0  -0.084833  0  4.031608  0  0  -0.086332  0  4.051663  0  -0.023324  0  -0.097513  -0.083372  0  4.017118  0
C  C95  1  0.94779658  0.05285896  0.33506423  1  0  -0.072559  0  3.781551  0  0  -0.08476  0  4.031664  0  0  -0.086276  0  4.051712  0  -0.023168  0  -0.097504  -0.0833  0  4.017186  0
C  C96  1  0.29561245  0.14916655  0.47171262  1  0  -0.124773  0  3.658011  0  0  -0.163787  0  3.912885  0  0  -0.165057  0  3.925313  0  -0.020743  0  -0.162523  -0.162692  0  3.904196  0
C  C97  1  0.79560310  0.85083950  0.02828289  1  0  -0.124882  0  3.657789  0  0  -0.163814  0  3.912573  0  0  -0.165091  0  3.925005  0  -0.021621  0  -0.162547  -0.162716  0  3.903881  0
C  C98  1  0.70439384  0.85083414  0.52828584  1  0  -0.124846  0  3.657976  0  0  -0.16382  0  3.912801  0  0  -0.165093  0  3.925233  0  -0.021188  0  -0.162546  -0.162725  0  3.904114  0
C  C99  1  0.20436883  0.14917084  0.97171410  1  0  -0.124807  0  3.658073  0  0  -0.163888  0  3.912931  0  0  -0.165157  0  3.925339  0  -0.020257  0  -0.162512  -0.162791  0  3.904239  0
C  C100  1  0.00755157  0.38047806  0.57932189  1  0  0.242623  0  3.783595  0  0  0.208779  0  4.086047  0  0  0.233551  0  4.095104  0  0.339926  0  0.123346  0.192169  0  4.078807  0
C  C101  1  0.50755003  0.61952049  0.92067605  1  0  0.242361  0  3.78383  0  0  0.208595  0  4.086172  0  0  0.233364  0  4.095231  0  0.339971  0  0.123205  0.191984  0  4.078933  0
C  C102  1  0.99245159  0.61951728  0.42067907  1  0  0.242363  0  3.783789  0  0  0.208516  0  4.08624  0  0  0.233287  0  4.095297  0  0.34003  0  0.123253  0.191906  0  4.079001  0
C  C103  1  0.49244376  0.38047592  0.07932183  1  0  0.242621  0  3.783664  0  0  0.208761  0  4.086137  0  0  0.23353  0  4.095198  0  0.339902  0  0.123338  0.19215  0  4.0789  0
S  S104  1  0.08734679  0.53768292  0.61807603  1  0  -0.356879  0  2.116055  0  0  -0.316778  0  2.481378  0  0  -0.334092  0  2.478685  0  -0.226609  0  -0.178697  -0.304169  0  2.482539  0
S  S105  1  0.58734212  0.46231349  0.88192274  1  0  -0.356762  0  2.116099  0  0  -0.316672  0  2.481376  0  0  -0.333986  0  2.478685  0  -0.226569  0  -0.178625  -0.304062  0  2.482536  0
S  S106  1  0.91265951  0.46230920  0.38192527  1  0  -0.356816  0  2.116116  0  0  -0.316694  0  2.481407  0  0  -0.334009  0  2.478713  0  -0.226686  0  -0.178676  -0.304085  0  2.482569  0
S  S107  1  0.41265948  0.53768614  0.11807480  1  0  -0.356877  0  2.115996  0  0  -0.31676  0  2.481326  0  0  -0.334079  0  2.478634  0  -0.226569  0  -0.178702  -0.304151  0  2.482485  0
S  S108  1  0.78245540  0.29493784  0.59844543  1  0  -0.327502  0  2.093523  0  0  -0.293188  0  2.440753  0  0  -0.310075  0  2.43887  0  -0.212114  0  -0.161092  -0.280591  0  2.441165  0
S  S109  1  0.28245381  0.70506071  0.90155252  1  0  -0.327392  0  2.093568  0  0  -0.293098  0  2.440799  0  0  -0.309989  0  2.438921  0  -0.212237  0  -0.161042  -0.280503  0  2.44121  0
S  S110  1  0.21754777  0.70505750  0.40155420  1  0  -0.327454  0  2.093567  0  0  -0.293134  0  2.4408  0  0  -0.310019  0  2.438917  0  -0.212235  0  -0.161086  -0.280538  0  2.441212  0
S  S111  1  0.71753686  0.29493249  0.09844615  1  0  -0.3275  0  2.093541  0  0  -0.293199  0  2.440828  0  0  -0.310089  0  2.438951  0  -0.21214  0  -0.161096  -0.280601  0  2.441237  0
N  N112  1  0.12245730  0.32506569  0.53361854  1  0  -0.125032  0  3.413224  0  0  -0.02366  0  3.632058  0  0  -0.042049  0  3.654853  0  -1.152086  0  -0.26183  -0.011151  0  3.616091  0
N  N113  1  0.62244795  0.67493821  0.96637869  1  0  -0.124993  0  3.413363  0  0  -0.023678  0  3.632178  0  0  -0.042069  0  3.654972  0  -1.15207  0  -0.261843  -0.011168  0  3.616214  0
N  N114  1  0.87754743  0.67493179  0.46638160  1  0  -0.124796  0  3.413268  0  0  -0.023437  0  3.632087  0  0  -0.041822  0  3.654886  0  -1.152089  0  -0.261743  -0.010932  0  3.616121  0
N  N115  1  0.37753178  0.32506569  0.03361988  1  0  -0.125038  0  3.413347  0  0  -0.023697  0  3.632202  0  0  -0.042094  0  3.655002  0  -1.152171  0  -0.26185  -0.011187  0  3.616235  0
