# generated using pymatgen
data_CoH2CO3
_symmetry_space_group_name_H-M   'P 1'
_cell_length_a   7.60693094
_cell_length_b   7.55477179
_cell_length_c   7.70399988
_cell_angle_alpha   97.44845438
_cell_angle_beta   97.00155929
_cell_angle_gamma   97.81712448
_symmetry_Int_Tables_number   1
_chemical_formula_structural   CoH2CO3
_chemical_formula_sum   'Co6 H12 C6 O18'
_cell_volume   430.51344350
_cell_formula_units_Z   6
loop_
 _symmetry_equiv_pos_site_id
 _symmetry_equiv_pos_as_xyz
  1  'x, y, z'
loop_
 _atom_site_type_symbol
 _atom_site_label
 _atom_site_symmetry_multiplicity
 _atom_site_fract_x
 _atom_site_fract_y
 _atom_site_fract_z
 _atom_site_occupancy
 _atom_site_hle17_ddec_charge
 _atom_site_hle17_ddec_spin_density
 _atom_site_hle17_ddec_sum_bond_order
 _atom_site_hle17_magmom
 _atom_site_hse06_10hf_ddec_charge
 _atom_site_hse06_10hf_ddec_spin_density
 _atom_site_hse06_10hf_ddec_sum_bond_order
 _atom_site_hse06_10hf_magmom
 _atom_site_pbe_cm5_charge
 _atom_site_pbe_ddec_charge
 _atom_site_pbe_ddec_spin_density
 _atom_site_pbe_ddec_sum_bond_order
 _atom_site_pbe_magmom
Co  Co0  1  0.01786331  0.92567551  0.28563941  1  1.087345  -2.789799  1.935754  -2.573  1.102455  -2.83856  2.307224  -2.672  0.599012  0.997301  -2.762816  2.401011  -2.578
Co  Co1  1  0.29196122  0.01645524  0.93216489  1  1.104731  -2.817573  1.980623  -2.599  1.098835  -2.818197  2.361206  -2.66  0.611046  1.017632  -2.77955  2.439506  -2.592
Co  Co2  1  0.92519048  0.29121863  0.02588469  1  1.10332  -2.810976  1.966235  -2.593  1.118063  -2.854906  2.334087  -2.686  0.608855  1.015039  -2.772381  2.424037  -2.587
Co  Co3  1  0.96958791  0.06449968  0.69493367  1  1.12491  2.831813  1.913506  2.567  1.112889  2.786366  2.304076  2.633  0.611978  1.033726  2.654139  2.369302  2.499
Co  Co4  1  0.71321855  0.98691499  0.07429821  1  1.07148  -2.779633  1.970101  -2.558  1.056782  -2.785765  2.3659  -2.626  0.595257  0.97977  -2.738614  2.437487  -2.549
Co  Co5  1  0.08026348  0.71331326  0.98266402  1  1.069021  -2.780728  1.968401  -2.56  1.059872  -2.789271  2.359681  -2.631  0.59474  0.977574  -2.739442  2.434499  -2.551
H  H6  1  0.41429213  0.14707450  0.45661920  1  0.025694  0.000269  0.905555  0.0  0.03513  0.000222  0.969268  0.0  0.118531  0.037012  -1e-06  0.971631  0.0
H  H7  1  0.44973212  0.41844136  0.14315008  1  0.031898  -0.002776  0.907728  -0.005  0.041634  -0.002139  0.970859  -0.003  0.120458  0.041123  -0.002753  0.975685  -0.004
H  H8  1  0.14960106  0.45022408  0.41072430  1  0.029766  -0.003346  0.906861  -0.006  0.039908  -0.002757  0.969699  -0.004  0.119021  0.03969  -0.003642  0.974163  -0.005
H  H9  1  0.57912866  0.85144788  0.54076324  1  0.029246  -0.003573  0.904043  -0.005  0.039729  -0.002881  0.966891  -0.004  0.119437  0.038683  -0.003777  0.972461  -0.005
H  H10  1  0.55078598  0.58530828  0.85186088  1  0.029491  -0.003139  0.902359  -0.005  0.039763  -0.002429  0.964979  -0.003  0.118766  0.03985  -0.0033  0.96902  -0.005
H  H11  1  0.85909377  0.55268187  0.59365185  1  0.030694  -0.000293  0.909343  0.0  0.039664  -0.000324  0.973466  0.0  0.120031  0.040837  -0.000561  0.976826  -0.001
H  H12  1  0.89209441  0.21654944  0.34247504  1  0.41929  -0.000577  0.884118  0.001  0.392175  -0.00166  0.947494  -0.003  0.288351  0.383755  -0.002306  0.958747  -0.003
H  H13  1  0.34145918  0.89342666  0.21675824  1  0.419388  -0.000145  0.885835  0.001  0.39063  -0.001157  0.951778  -0.002  0.287487  0.383072  -0.001787  0.961857  -0.003
H  H14  1  0.20644210  0.32384494  0.89841993  1  0.404248  1e-05  0.893559  0.001  0.374718  -0.00021  0.971109  0.0  0.284132  0.368768  -0.001019  0.978531  -0.001
H  H15  1  0.10832848  0.78568238  0.66654879  1  0.408817  -9.8e-05  0.889317  0.0  0.380864  -0.001214  0.961903  -0.003  0.285651  0.373965  -0.000557  0.970629  -0.001
H  H16  1  0.66390851  0.10666571  0.78969090  1  0.410706  0.00017  0.887062  0.001  0.382794  -0.000777  0.959186  -0.001  0.286005  0.374891  -0.000614  0.9695  0.0
H  H17  1  0.78765519  0.66604058  0.09933833  1  0.415834  3e-06  0.889205  0.002  0.386242  -0.002028  0.958375  -0.004  0.286294  0.379136  -0.001716  0.96759  -0.003
C  C18  1  0.33615353  0.12316636  0.56595173  1  0.598244  0.000538  3.835384  0.001  0.534399  -0.0023  4.14524  -0.003  0.161054  0.504771  -0.002018  4.149797  -0.002
C  C19  1  0.56267186  0.34386614  0.12132874  1  0.59276  0.005888  3.832544  0.01  0.528668  -0.001156  4.141818  0.0  0.15932  0.49833  0.000135  4.149083  0.002
C  C20  1  0.12510792  0.56330918  0.33731978  1  0.590168  0.00482  3.837995  0.008  0.526837  -0.002012  4.146835  -0.001  0.15627  0.496379  -0.001252  4.153595  0.0
C  C21  1  0.65600803  0.87257644  0.43001094  1  0.592786  0.005414  3.83753  0.008  0.52875  0.002368  4.143891  0.004  0.15953  0.497602  0.004307  4.155238  0.007
C  C22  1  0.43948332  0.66121362  0.87712976  1  0.593026  0.005304  3.833873  0.009  0.528382  -0.002281  4.142301  -0.002  0.158505  0.499134  -0.000633  4.149395  0.001
C  C23  1  0.88084241  0.43813039  0.66574052  1  0.597069  -1.1e-05  3.829474  0.0  0.5325  -0.001975  4.137598  -0.003  0.16043  0.502131  -0.002189  4.143909  -0.003
O  O24  1  0.16549148  0.09487440  0.52532727  1  -0.616857  0.0057  2.256877  0.01  -0.57675  0.002957  2.549553  0.004  -0.310967  -0.538307  0.002048  2.554181  0.004
O  O25  1  0.52622042  0.17163805  0.09164789  1  -0.613482  -0.04483  2.291178  -0.076  -0.574157  -0.037913  2.590763  -0.058  -0.310019  -0.538437  -0.045555  2.594012  -0.07
O  O26  1  0.09641138  0.52625766  0.16869551  1  -0.615849  -0.045553  2.27898  -0.076  -0.578484  -0.039515  2.576357  -0.061  -0.311437  -0.540308  -0.046554  2.579523  -0.071
O  O27  1  0.82680531  0.89777399  0.46685445  1  -0.621016  -0.004559  2.294486  -0.009  -0.581778  -0.005643  2.584802  -0.011  -0.311537  -0.548361  -0.006165  2.602529  -0.012
O  O28  1  0.47846565  0.83333017  0.90772706  1  -0.615468  -0.045431  2.28297  -0.075  -0.570789  -0.040577  2.570182  -0.059  -0.311432  -0.537571  -0.046594  2.580626  -0.069
O  O29  1  0.91166773  0.47333804  0.83402509  1  -0.607213  -0.044877  2.265241  -0.071  -0.564258  -0.040909  2.55  -0.059  -0.30615  -0.528187  -0.046347  2.558927  -0.067
O  O30  1  0.42097325  0.12529679  0.71770929  1  -0.575566  -0.025693  2.106548  -0.043  -0.526905  -0.023605  2.357132  -0.036  -0.294229  -0.503169  -0.026922  2.369505  -0.042
O  O31  1  0.71680456  0.43274996  0.12647224  1  -0.576255  -0.026459  2.124759  -0.047  -0.529167  -0.024639  2.373191  -0.039  -0.295263  -0.503728  -0.027587  2.388464  -0.046
O  O32  1  0.12658111  0.71707806  0.42453117  1  -0.573043  -0.027981  2.109601  -0.048  -0.524364  -0.026292  2.357764  -0.042  -0.295154  -0.500419  -0.029531  2.373093  -0.048
O  O33  1  0.57082445  0.87081847  0.27852180  1  -0.568303  -0.018824  2.122409  -0.033  -0.515218  -0.016991  2.369304  -0.025  -0.291083  -0.493591  -0.019233  2.383268  -0.031
O  O34  1  0.28530479  0.57347521  0.87434048  1  -0.574986  -0.027082  2.1126  -0.048  -0.527234  -0.023067  2.366053  -0.036  -0.296578  -0.503531  -0.027383  2.378508  -0.045
O  O35  1  0.87353513  0.28404976  0.57568655  1  -0.585076  0.020276  2.120642  0.033  -0.537012  0.016773  2.376938  0.024  -0.29838  -0.510451  0.017516  2.385809  0.025
O  O36  1  0.92074877  0.15314453  0.23138478  1  -0.947392  -0.138566  2.083217  -0.243  -0.950564  -0.10766  2.380308  -0.17  -0.565642  -0.889403  -0.12991  2.4121  -0.214
O  O37  1  0.23055311  0.92273313  0.15287339  1  -0.945762  -0.141339  2.087199  -0.247  -0.952261  -0.107074  2.390543  -0.17  -0.566324  -0.88782  -0.131831  2.417203  -0.218
O  O38  1  0.13951116  0.21224396  0.92591876  1  -0.930202  -0.071711  2.032596  -0.127  -0.935893  -0.046239  2.329952  -0.073  -0.556458  -0.867307  -0.070888  2.353223  -0.121
O  O39  1  0.07771964  0.85447128  0.77374055  1  -0.939066  -0.038808  2.05087  -0.072  -0.943714  -0.021582  2.359684  -0.035  -0.56268  -0.876577  -0.034168  2.375502  -0.059
O  O40  1  0.77770256  0.08051326  0.84987697  1  -0.939294  -0.046961  2.060282  -0.085  -0.939693  -0.034398  2.366829  -0.058  -0.561975  -0.875807  -0.041149  2.387469  -0.071
O  O41  1  0.85380477  0.77847972  0.07158846  1  -0.935102  -0.138862  2.065813  -0.245  -0.94344  -0.098584  2.372518  -0.157  -0.564853  -0.8772  -0.1274  2.393564  -0.211
