# generated using pymatgen
data_MgH4C12NO5
_symmetry_space_group_name_H-M   'P 1'
_cell_length_a   6.85369861
_cell_length_b   34.36558690
_cell_length_c   34.36500953
_cell_angle_alpha   119.56463008
_cell_angle_beta   93.81183057
_cell_angle_gamma   93.81103734
_symmetry_Int_Tables_number   1
_chemical_formula_structural   MgH4C12NO5
_chemical_formula_sum   'Mg6 H24 C72 N6 O30'
_cell_volume   6978.51498641
_cell_formula_units_Z   6
loop_
 _symmetry_equiv_pos_site_id
 _symmetry_equiv_pos_as_xyz
  1  'x, y, z'
loop_
 _atom_site_type_symbol
 _atom_site_label
 _atom_site_symmetry_multiplicity
 _atom_site_fract_x
 _atom_site_fract_y
 _atom_site_fract_z
 _atom_site_occupancy
 _atom_site_pbe_bader_charge
 _atom_site_pbe_bader_spin_density
 _atom_site_pbe_cm5_charge
 _atom_site_pbe_ddec_charge
 _atom_site_pbe_ddec_spin_density
 _atom_site_pbe_ddec_sum_bond_order
 _atom_site_pbe_magmom
Mg  Mg0  1  0.44116835  0.67216805  0.30572868  1  1.683634  0  0.911499  1.411348  0  1.325848  0
Mg  Mg1  1  0.13547304  0.69425603  0.36646036  1  1.682181  0  0.911593  1.41241  0  1.324087  0
Mg  Mg2  1  0.76898728  0.63353675  0.32782822  1  1.684953  0  0.911649  1.411786  0  1.325426  0
Mg  Mg3  1  0.66195245  0.33324256  0.69732741  1  1.683454  0  0.910417  1.41132  0  1.323739  0
Mg  Mg4  1  0.96459694  0.30266536  0.63590232  1  1.681717  0  0.910326  1.411124  0  1.32452  0
Mg  Mg5  1  0.32874061  0.36410107  0.66674923  1  1.684193  0  0.910408  1.411341  0  1.32417  0
H  H6  1  0.91872466  0.82057539  0.42922010  1  0.121317  0  0.113271  0.125159  0  1.006503  0
H  H7  1  0.48953935  0.57076130  0.39136292  1  0.120683  0  0.113379  0.125673  0  1.006805  0
H  H8  1  0.09810339  0.60865317  0.17943035  1  0.09909  0  0.113422  0.125633  0  1.006904  0
H  H9  1  0.38719732  0.88143803  0.42996964  1  0.116281  0  0.105347  0.112696  0  1.024741  0
H  H10  1  0.95724302  0.57001509  0.45147844  1  0.108671  0  0.105432  0.11287  0  1.024977  0
H  H11  1  0.50570625  0.54854256  0.11855730  1  0.115437  0  0.105501  0.113213  0  1.024669  0
H  H12  1  0.20156473  0.80603520  0.38594311  1  0.113605  0  0.109678  0.131087  0  1.00244  0
H  H13  1  0.81566016  0.61404333  0.42010570  1  0.111074  0  0.10981  0.13131  0  1.001774  0
H  H14  1  0.39549895  0.57988624  0.19395732  1  0.10198  0  0.109814  0.131685  0  1.002184  0
H  H15  1  0.31165322  0.96833789  0.45434295  1  0.117392  0  0.125105  0.13064  0  0.969348  0
H  H16  1  0.85731261  0.54570662  0.51406415  1  0.150452  0  0.124898  0.13004  0  0.970096  0
H  H17  1  0.34329586  0.48601505  0.03167164  1  0.137183  0  0.125092  0.130272  0  0.969735  0
H  H18  1  0.81355483  0.03124933  0.56695849  1  0.139895  0  0.12519  0.130058  0  0.969939  0
H  H19  1  0.24694522  0.43297326  0.46420809  1  0.15311  0  0.125345  0.130615  0  0.969592  0
H  H20  1  0.78239662  0.53573169  0.96875619  1  0.143009  0  0.125162  0.130606  0  0.969721  0
H  H21  1  0.73230211  0.12210375  0.59351750  1  0.112285  0  0.106048  0.11484  0  1.020893  0
H  H22  1  0.13911230  0.40645844  0.52857732  1  0.106846  0  0.106365  0.11544  0  1.020482  0
H  H23  1  0.61029758  0.47143648  0.87788609  1  0.108994  0  0.106334  0.115255  0  1.020687  0
H  H24  1  0.90963343  0.19859318  0.63286493  1  0.112621  0  0.110408  0.13109  0  0.998029  0
H  H25  1  0.27694049  0.36708664  0.56572053  1  0.103461  0  0.11031  0.131263  0  0.997359  0
H  H26  1  0.71111862  0.43431074  0.80139445  1  0.123965  0  0.110363  0.131552  0  0.997314  0
H  H27  1  0.19293381  0.17718818  0.58557202  1  0.125166  0  0.113638  0.125949  0  1.004017  0
H  H28  1  0.60762750  0.41444566  0.59159695  1  0.099408  0  0.113516  0.125903  0  1.004403  0
H  H29  1  0.01588429  0.40837505  0.82281203  1  0.108403  0  0.113413  0.125607  0  1.00479  0
C  C30  1  0.77475158  0.73622315  0.38029681  1  1.507749  0  0.23971  0.680861  0  4.117527  0
C  C31  1  0.39446978  0.61969080  0.35593838  1  1.517613  0  0.239998  0.681095  0  4.11657  0
C  C32  1  0.03845902  0.64405688  0.26378078  1  1.505123  0  0.239585  0.679878  0  4.119767  0
C  C33  1  0.65938005  0.77467178  0.39334406  1  0.028955  0  -0.038529  -0.19438  0  3.963506  0
C  C34  1  0.26606810  0.60664819  0.38134474  1  -0.002606  0  -0.03801  -0.193632  0  3.962797  0
C  C35  1  0.88464220  0.61864749  0.22532608  1  -0.02042  0  -0.038267  -0.193798  0  3.962953  0
C  C36  1  0.76199365  0.81793258  0.41954458  1  -0.011582  0  -0.078776  -0.141095  0  3.970309  0
C  C37  1  0.34249749  0.58044674  0.39840313  1  -0.014707  0  -0.079456  -0.142086  0  3.972807  0
C  C38  1  0.94399787  0.60161165  0.18206735  1  0.003631  0  -0.079257  -0.14238  0  3.974072  0
C  C39  1  0.66741592  0.85615587  0.43220337  1  0.282243  0  0.07612  0.162725  0  4.054664  0
C  C40  1  0.23523968  0.56777655  0.42395426  1  0.300628  0  0.07596  0.162058  0  4.056816  0
C  C41  1  0.81119629  0.57605810  0.14384344  1  0.311848  0  0.076132  0.158602  0  4.055242  0
C  C42  1  0.46386021  0.85181618  0.42037306  1  0.004236  0  -0.077413  -0.109625  0  3.972019  0
C  C43  1  0.04354517  0.57961494  0.43146314  1  0.004395  0  -0.077795  -0.110145  0  3.972599  0
C  C44  1  0.61199303  0.56855131  0.14817964  1  -0.056811  0  -0.077934  -0.111403  0  3.973626  0
C  C45  1  0.35915280  0.80938620  0.39544718  1  -0.041945  0  -0.101217  -0.199511  0  3.94845  0
C  C46  1  0.96372503  0.60453201  0.41395123  1  -0.023618  0  -0.101311  -0.199133  0  3.947781  0
C  C47  1  0.54970821  0.58604039  0.19060645  1  -0.009652  0  -0.101003  -0.19939  0  3.948481  0
C  C48  1  0.45235150  0.76974174  0.38022983  1  0.593493  0  0.09833  0.368219  0  4.073576  0
C  C49  1  0.07212976  0.61975751  0.38952893  1  0.581176  0  0.098391  0.36814  0  4.074522  0
C  C50  1  0.68252315  0.61045913  0.23025199  1  0.646942  0  0.098004  0.36842  0  4.073639  0
C  C51  1  0.73021331  0.93736565  0.49413185  1  1.362132  0  0.25152  0.443467  0  4.091203  0
C  C52  1  0.23622778  0.50583400  0.44321158  1  1.35454  0  0.252233  0.443214  0  4.092171  0
C  C53  1  0.79288926  0.55680157  0.06264270  1  1.368603  0  0.251483  0.439347  0  4.09239  0
C  C54  1  0.89510999  0.97358753  0.50702262  1  -0.054265  0  0.004315  -0.039836  0  3.981705  0
C  C55  1  0.38825036  0.49294813  0.46655500  1  -0.001456  0  0.004396  -0.040609  0  3.983349  0
C  C56  1  0.92155520  0.53347289  0.02641964  1  -0.007997  0  0.00452  -0.042623  0  3.985525  0
C  C57  1  0.03292445  0.95640505  0.47599766  1  -0.010063  0  0.004156  -0.043632  0  3.98921  0
C  C58  1  0.55699155  0.52401030  0.48043966  1  -0.049623  0  0.004499  -0.042229  0  3.989078  0
C  C59  1  0.07651164  0.51961634  0.04360043  1  -0.05887  0  0.004008  -0.041745  0  3.986946  0
C  C60  1  0.96031736  0.90879552  0.44232555  1  1.344689  0  0.254976  0.443384  0  4.088187  0
C  C61  1  0.51804993  0.55768802  0.46649926  1  1.35463  0  0.254463  0.442319  0  4.088134  0
C  C62  1  0.05148812  0.53354838  0.09121101  1  1.372172  0  0.254029  0.43786  0  4.087205  0
C  C63  1  0.20527577  0.98186470  0.47859207  1  0.085829  0  -0.047263  -0.060104  0  3.88744  0
C  C64  1  0.72675669  0.52143038  0.50331327  1  0.070475  0  -0.047278  -0.05921  0  3.887622  0
C  C65  1  0.22339961  0.49674521  0.01814582  1  0.081428  0  -0.04691  -0.059029  0  3.884923  0
C  C66  1  0.23056560  0.02596669  0.51442093  1  -0.078869  0  0.005046  -0.038462  0  3.978868  0
C  C67  1  0.71632363  0.48559199  0.51156402  1  -0.016307  0  0.005193  -0.039339  0  3.979354  0
C  C68  1  0.20461614  0.48846243  0.97404124  1  -0.049156  0  0.004631  -0.039378  0  3.978737  0
C  C69  1  0.09216096  0.04318656  0.54529801  1  -0.024228  0  0.003877  -0.044074  0  3.991  0
C  C70  1  0.54713387  0.45467969  0.49787044  1  -0.053054  0  0.00407  -0.041557  0  3.989073  0
C  C71  1  0.04904555  0.50213579  0.95682312  1  -0.043956  0  0.004275  -0.043554  0  3.992173  0
C  C72  1  0.92031833  0.01767572  0.54282059  1  0.065296  0  -0.046582  -0.057731  0  3.887627  0
C  C73  1  0.37778978  0.45713365  0.47482183  1  -0.015084  0  -0.047273  -0.059308  0  3.888816  0
C  C74  1  0.90272119  0.52517091  0.98233052  1  0.003369  0  -0.046925  -0.058188  0  3.889697  0
C  C75  1  0.16130674  0.09119579  0.57822830  1  1.359246  0  0.254495  0.444267  0  4.091117  0
C  C76  1  0.58342146  0.42174185  0.51292291  1  1.338693  0  0.25397  0.442573  0  4.092397  0
C  C77  1  0.07020169  0.48704633  0.90881225  1  1.376056  0  0.254187  0.444256  0  4.092384  0
C  C78  1  0.39406412  0.06244854  0.52708621  1  1.365083  0  0.251447  0.44393  0  4.089481  0
C  C79  1  0.86716082  0.47293816  0.53538276  1  1.363704  0  0.25155  0.443183  0  4.093047  0
C  C80  1  0.33165522  0.46464377  0.93755922  1  1.342115  0  0.251472  0.443479  0  4.090547  0
C  C81  1  0.44908099  0.14446683  0.58693800  1  0.296682  0  0.075994  0.164098  0  4.055141  0
C  C82  1  0.86239400  0.41306436  0.55751933  1  0.348122  0  0.075836  0.160935  0  4.057275  0
C  C83  1  0.30468503  0.44248476  0.85553616  1  0.306797  0  0.07636  0.162987  0  4.056105  0
C  C84  1  0.65219271  0.15067351  0.60013202  1  -0.116387  0  -0.0768  -0.110159  0  3.970726  0
C  C85  1  0.05229134  0.39985507  0.55052989  1  -0.044499  0  -0.076989  -0.109138  0  3.969666  0
C  C86  1  0.50157257  0.44948706  0.84932366  1  -0.009428  0  -0.076949  -0.108993  0  3.970032  0
C  C87  1  0.75223913  0.19370825  0.62241250  1  0.057579  0  -0.100605  -0.197813  0  3.949245  0
C  C88  1  0.13000224  0.37756173  0.57127772  1  0.00271  0  -0.100514  -0.198857  0  3.949058  0
C  C89  1  0.55858087  0.42873853  0.80628753  1  -0.034426  0  -0.101118  -0.200126  0  3.950543  0
C  C90  1  0.65509433  0.23219956  0.63323149  1  0.602925  0  0.097898  0.366099  0  4.073312  0
C  C91  1  0.02198120  0.36675451  0.59895195  1  0.584116  0  0.098526  0.367255  0  4.073721  0
C  C92  1  0.42295293  0.40105029  0.76779586  1  0.598274  0  0.098498  0.367172  0  4.073607  0
C  C93  1  0.44783743  0.22533283  0.61939875  1  -0.004958  0  -0.038593  -0.194863  0  3.962574  0
C  C94  1  0.82856897  0.38059657  0.60592475  1  0.004871  0  -0.038621  -0.195121  0  3.963046  0
C  C95  1  0.22255530  0.39407597  0.77466295  1  0.024995  0  -0.038414  -0.194419  0  3.961932  0
C  C96  1  0.34979816  0.18139624  0.59610162  1  0.009814  0  -0.078569  -0.141119  0  3.969714  0
C  C97  1  0.75392811  0.40390623  0.58529071  1  -0.025288  0  -0.078146  -0.139581  0  3.970086  0
C  C98  1  0.16850102  0.41470767  0.81860246  1  -0.037985  0  -0.078285  -0.140291  0  3.970882  0
C  C99  1  0.32825005  0.26233736  0.62807685  1  1.518076  0  0.239923  0.680788  0  4.117402  0
C  C100  1  0.70022559  0.37192004  0.63424092  1  1.510907  0  0.239807  0.6804  0  4.114909  0
C  C101  1  0.06596570  0.36574764  0.73766113  1  1.50676  0  0.240769  0.681675  0  4.116481  0
N  N102  1  0.78046738  0.89911889  0.45557704  1  -1.182391  0  -0.232896  -0.217287  0  3.609211  0
N  N103  1  0.32494225  0.54442037  0.44356056  1  -1.183425  0  -0.2322  -0.216627  0  3.610437  0
N  N104  1  0.88132803  0.55648111  0.10088448  1  -1.183714  0  -0.232313  -0.202556  0  3.593797  0
N  N105  1  0.34134203  0.10088624  0.56511819  1  -1.186143  0  -0.232324  -0.219255  0  3.611783  0
N  N106  1  0.77651039  0.43487546  0.53574489  1  -1.156665  0  -0.23271  -0.218705  0  3.613073  0
N  N107  1  0.24055640  0.46425031  0.89912171  1  -1.165623  0  -0.23248  -0.219491  0  3.611876  0
O  O108  1  0.95439947  0.74206119  0.39595764  1  -1.239687  0  -0.354628  -0.641309  0  2.144761  0
O  O109  1  0.55849883  0.60403530  0.34612331  1  -1.241724  0  -0.35489  -0.641205  0  2.14414  0
O  O110  1  0.21230181  0.65388391  0.25794362  1  -1.236426  0  -0.354725  -0.640632  0  2.144812  0
O  O111  1  0.68903974  0.69633351  0.35177149  1  -1.300406  0  -0.401938  -0.767764  0  2.416435  0
O  O112  1  0.33727130  0.64821393  0.34457663  1  -1.29618  0  -0.402156  -0.76826  0  2.417456  0
O  O113  1  0.99266531  0.65540148  0.30366473  1  -1.295249  0  -0.401791  -0.767555  0  2.418834  0
O  O114  1  0.34469836  0.72974140  0.35410490  1  -1.315804  0  -0.445364  -0.777449  0  2.308684  0
O  O115  1  0.99064152  0.64589136  0.37565769  1  -1.304938  0  -0.445274  -0.777645  0  2.310566  0
O  O116  1  0.61490278  0.62432537  0.27025519  1  -1.311345  0  -0.445273  -0.777703  0  2.309785  0
O  O117  1  0.14752722  0.25436667  0.61242010  1  -1.240002  0  -0.353591  -0.640587  0  2.145974  0
O  O118  1  0.53517554  0.38758122  0.64192625  1  -1.239405  0  -0.353736  -0.64055  0  2.145558  0
O  O119  1  0.89322688  0.35805130  0.74562448  1  -1.235912  0  -0.35413  -0.641499  0  2.147248  0
O  O120  1  0.41130208  0.30331328  0.65262420  1  -1.297824  0  -0.402743  -0.769262  0  2.417226  0
O  O121  1  0.75871642  0.34736735  0.65066567  1  -1.290112  0  -0.402441  -0.768795  0  2.414976  0
O  O122  1  0.10804133  0.34933422  0.69668590  1  -1.291927  0  -0.402966  -0.769406  0  2.41529  0
O  O123  1  0.76011707  0.27294707  0.65586161  1  -1.310578  0  -0.444886  -0.776395  0  2.305927  0
O  O124  1  0.10428001  0.34411795  0.61707125  1  -1.304713  0  -0.445477  -0.776824  0  2.305859  0
O  O125  1  0.48721832  0.38293320  0.72704353  1  -1.315544  0  -0.445427  -0.776979  0  2.305872  0
O  O126  1  0.58085039  0.93931414  0.51225391  1  -1.096914  0  -0.265756  -0.416728  0  2.071095  0
O  O127  1  0.06879024  0.48767615  0.42700520  1  -1.100082  0  -0.266279  -0.416415  0  2.071268  0
O  O128  1  0.64159426  0.57297805  0.06069184  1  -1.096402  0  -0.265819  -0.416574  0  2.07422  0
O  O129  1  0.03658617  0.88269420  0.40948923  1  -1.104165  0  -0.251015  -0.40285  0  2.112705  0
O  O130  1  0.62708463  0.59053725  0.47324775  1  -1.093947  0  -0.250836  -0.402513  0  2.112911  0
O  O131  1  0.15377926  0.52680133  0.11731000  1  -1.097019  0  -0.250295  -0.402363  0  2.114763  0
O  O132  1  0.08173407  0.11765710  0.61025049  1  -1.102555  0  -0.252887  -0.404577  0  2.103394  0
O  O133  1  0.47194679  0.38969210  0.50733299  1  -1.096512  0  -0.252602  -0.40408  0  2.104069  0
O  O134  1  0.96423246  0.49262450  0.88235598  1  -1.101728  0  -0.252668  -0.404433  0  2.104072  0
O  O135  1  0.54378340  0.06066002  0.50912607  1  -1.091254  0  -0.265924  -0.416434  0  2.069338  0
O  O136  1  0.03477373  0.49091551  0.55157118  1  -1.101315  0  -0.265967  -0.41588  0  2.071212  0
O  O137  1  0.48314137  0.44847234  0.93935651  1  -1.094322  0  -0.266181  -0.416215  0  2.070602  0
