# generated using pymatgen
data_Zr3H15C32O18F5
_symmetry_space_group_name_H-M   'P 1'
_cell_length_a   14.88068354
_cell_length_b   14.87581803
_cell_length_c   14.88182893
_cell_angle_alpha   59.79345557
_cell_angle_beta   59.77161259
_cell_angle_gamma   59.81110709
_symmetry_Int_Tables_number   1
_chemical_formula_structural   Zr3H15C32O18F5
_chemical_formula_sum   'Zr6 H30 C64 O36 F10'
_cell_volume   2318.40829671
_cell_formula_units_Z   2
loop_
 _symmetry_equiv_pos_site_id
 _symmetry_equiv_pos_as_xyz
  1  'x, y, z'
loop_
 _atom_site_type_symbol
 _atom_site_label
 _atom_site_symmetry_multiplicity
 _atom_site_fract_x
 _atom_site_fract_y
 _atom_site_fract_z
 _atom_site_occupancy
 _atom_site_pbe_bader_charge
 _atom_site_pbe_bader_spin_density
 _atom_site_pbe_cm5_charge
 _atom_site_pbe_ddec_charge
 _atom_site_pbe_ddec_spin_density
 _atom_site_pbe_ddec_sum_bond_order
 _atom_site_pbe_magmom
Zr  Zr0  1  0.88096428  0.38227929  0.61672250  1  2.629942  0  1.629246  2.377749  0  2.756885  0
Zr  Zr1  1  0.12143738  0.61819397  0.37959903  1  2.635852  0  1.62907  2.373248  0  2.741744  0
Zr  Zr2  1  0.11912623  0.38106960  0.62075508  1  2.639048  0  1.630851  2.378105  0  2.741863  0
Zr  Zr3  1  0.88500306  0.61860390  0.37828427  1  2.639085  0  1.625533  2.374455  0  2.745871  0
Zr  Zr4  1  0.88200062  0.61831217  0.61885825  1  2.637052  0  1.630527  2.3733  0  2.74952  0
Zr  Zr5  1  0.12258006  0.37728229  0.38359598  1  2.636363  0  1.632937  2.373518  0  2.756775  0
H  H6  1  0.90548269  0.40911387  0.78132841  1  0.598616  0  0.32708  0.416265  0  0.87036  0
H  H7  1  0.91080323  0.78063208  0.40408878  1  0.605454  0  0.326494  0.413769  0  0.875088  0
H  H8  1  0.28272110  0.40457804  0.40904102  1  0.628695  0  0.331581  0.423042  0  0.857486  0
H  H9  1  0.91015951  0.40545217  0.40468555  1  0.621586  0  0.3319  0.423103  0  0.858366  0
H  H10  1  0.58502577  0.71492751  0.91519569  1  0.075127  0  0.107601  0.125899  0  0.964747  0
H  H11  1  0.66745047  0.59563971  0.99435753  1  0.034525  0  0.093976  0.100017  0  1.00132  0
H  H12  1  0.49878161  0.59570095  0.16580813  1  0.046106  0  0.09173  0.101744  0  0.993349  0
H  H13  1  0.41645220  0.71288666  0.08527596  1  0.089281  0  0.107179  0.132922  0  0.976665  0
H  H14  1  0.23827086  0.06664510  0.29849889  1  0.065483  0  0.099838  0.109913  0  1.007388  0
H  H15  1  0.13062114  0.14617156  0.24093128  1  0.078022  0  0.097967  0.114493  0  0.990157  0
H  H16  1  0.13641901  0.97292314  0.24237507  1  0.066067  0  0.102517  0.117536  0  0.971027  0
H  H17  1  0.24057712  0.89248380  0.30519437  1  0.076535  0  0.101721  0.119054  0  0.982785  0
H  H18  1  0.51719959  0.84525184  0.37840335  1  0.070524  0  0.095099  0.114069  0  1.003105  0
H  H19  1  0.59196895  0.93628840  0.27091618  1  0.070089  0  0.098755  0.111248  0  0.982755  0
H  H20  1  0.41397478  0.09786913  0.28279579  1  0.057068  0  0.101179  0.113232  0  0.978614  0
H  H21  1  0.34082716  0.00692900  0.39605299  1  0.052155  0  0.101424  0.115437  0  0.983725  0
H  H22  1  0.86868774  0.76350595  0.02443802  1  0.037368  0  0.095967  0.106034  0  0.981811  0
H  H23  1  0.77545029  0.68781847  0.10996805  1  0.078971  0  0.101624  0.118001  0  0.977245  0
H  H24  1  0.77042722  0.69332377  0.94026588  1  0.05854  0  0.099115  0.110277  0  1.005398  0
H  H25  1  0.86555597  0.76669110  0.85504320  1  0.090719  0  0.094646  0.114886  0  1.017725  0
H  H26  1  0.80877640  0.26606571  0.93222921  1  0.085424  0  0.101794  0.106349  0  1.032759  0
H  H27  1  0.65218408  0.26973673  0.10540774  1  0.092223  0  0.10188  0.098105  0  1.006735  0
H  H28  1  0.81242558  0.92890511  0.26629210  1  0.064034  0  0.100488  0.103341  0  1.045661  0
H  H29  1  0.65476233  0.10011231  0.27348145  1  0.083041  0  0.10218  0.098519  0  1.011484  0
H  H30  1  0.55091385  0.33103659  0.74698033  1  0.078213  0  0.097403  0.120227  0  1.012549  0
H  H31  1  0.62915778  0.25465317  0.65436971  1  0.063647  0  0.100313  0.114799  0  0.975422  0
H  H32  1  0.45291080  0.25784675  0.66502182  1  0.067749  0  0.097987  0.117473  0  1.000954  0
H  H33  1  0.37471835  0.33822025  0.75387433  1  0.077516  0  0.10091  0.119468  0  0.979543  0
H  H34  1  0.10431056  0.72809248  0.99949337  1  0.61106  0  0.334666  0.368707  0  0.879994  0
H  H35  1  0.05278166  0.06348348  0.72293581  1  0.607852  0  0.326294  0.36495  0  0.906423  0
C  C36  1  0.69370372  0.50335766  0.79626386  1  1.582771  0  0.238698  0.663278  0  4.10194  0
C  C37  1  0.00437924  0.79769845  0.50255061  1  1.597361  0  0.238211  0.662675  0  4.104084  0
C  C38  1  0.30055854  0.49929743  0.19628073  1  1.567169  0  0.239567  0.668109  0  4.095743  0
C  C39  1  0.00688390  0.19229950  0.50380616  1  1.582904  0  0.235139  0.657038  0  4.115813  0
C  C40  1  0.99911271  0.19433416  0.80031941  1  1.591248  0  0.229258  0.615589  0  4.173186  0
C  C41  1  0.69661697  0.50749735  0.49758498  1  1.581293  0  0.237771  0.662203  0  4.101588  0
C  C42  1  0.00626125  0.79956420  0.19026485  1  1.586704  0  0.232682  0.631019  0  4.145244  0
C  C43  1  0.29660461  0.50797709  0.50401395  1  1.581087  0  0.237074  0.662542  0  4.105714  0
C  C44  1  0.00584131  0.50446925  0.79786249  1  1.598033  0  0.237221  0.66135  0  4.106443  0
C  C45  1  0.29952161  0.19341843  0.51047881  1  1.57775  0  0.239563  0.667436  0  4.098153  0
C  C46  1  0.01400642  0.50057841  0.19216599  1  1.605777  0  0.234044  0.656851  0  4.114932  0
C  C47  1  0.70008932  0.80092481  0.49977707  1  1.565074  0  0.238327  0.663366  0  4.100797  0
C  C48  1  0.59231479  0.50372134  0.89518974  1  0.030737  0  -0.017825  -0.173499  0  3.984211  0
C  C49  1  0.39809216  0.50113585  0.09385821  1  0.081269  0  -0.01514  -0.167407  0  3.982219  0
C  C50  1  0.55912596  0.56033199  0.96427037  1  0.0163  0  -0.004288  0.069369  0  3.901494  0
C  C51  1  0.42970504  0.44458105  0.02428933  1  0.553993  0  0.099498  0.157372  0  4.050573  0
C  C52  1  0.46641370  0.55895846  0.05937901  1  -0.015157  0  -0.002196  0.073321  0  3.910273  0
C  C53  1  0.52324850  0.44567368  0.92897793  1  0.489054  0  0.097961  0.154342  0  4.048353  0
C  C54  1  0.58836948  0.63399245  0.98024403  1  0.003275  0  -0.147331  -0.195098  0  3.865151  0
C  C55  1  0.48272564  0.63289403  0.08794205  1  -0.023349  0  -0.148998  -0.197696  0  3.851931  0
C  C56  1  0.00770008  0.09077139  0.50597837  1  0.060317  0  -0.018308  -0.170699  0  3.98104  0
C  C57  1  0.00553252  0.89565734  0.50543541  1  -0.020651  0  -0.017039  -0.170359  0  3.977597  0
C  C58  1  0.07537833  0.04929052  0.41836785  1  -0.038188  0  -0.005214  0.065728  0  3.900867  0
C  C59  1  0.93630014  0.93735823  0.59382543  1  0.560232  0  0.09868  0.156029  0  4.049242  0
C  C60  1  0.07516800  0.95539996  0.41879452  1  0.00461  0  -0.004929  0.067504  0  3.907324  0
C  C61  1  0.93862166  0.02979387  0.59485880  1  0.532142  0  0.093989  0.149194  0  4.057227  0
C  C62  1  0.16061620  0.06978014  0.30375132  1  -0.035933  0  -0.148494  -0.194501  0  3.859482  0
C  C63  1  0.16242874  0.96164574  0.30560563  1  -0.013741  0  -0.146242  -0.192939  0  3.855485  0
C  C64  1  0.60218948  0.90314171  0.49995480  1  0.055538  0  -0.017433  -0.173938  0  3.975474  0
C  C65  1  0.40257523  0.09651113  0.50768830  1  0.010487  0  -0.013987  -0.166411  0  3.976421  0
C  C66  1  0.53776774  0.94398004  0.43572998  1  -0.034965  0  -0.006116  0.062898  0  3.912845  0
C  C67  1  0.46879023  0.05838199  0.57011529  1  0.579757  0  0.103761  0.165193  0  4.038296  0
C  C68  1  0.44216181  0.03594913  0.44015214  1  0.040258  0  -0.005669  0.066434  0  3.910421  0
C  C69  1  0.56480642  0.96543212  0.56641449  1  0.50838  0  0.102946  0.164706  0  4.029305  0
C  C70  1  0.52656218  0.92436184  0.35181812  1  -0.024614  0  -0.150395  -0.196422  0  3.861078  0
C  C71  1  0.41637980  0.02697892  0.35935212  1  -0.012674  0  -0.147978  -0.194699  0  3.864969  0
C  C72  1  0.01835889  0.50299989  0.08886154  1  0.06281  0  -0.020522  -0.175269  0  3.990454  0
C  C73  1  0.01291876  0.50587972  0.89356190  1  0.022383  0  -0.016844  -0.170276  0  3.965871  0
C  C74  1  0.94473049  0.58814793  0.03316701  1  -0.005371  0  -0.011556  0.055145  0  3.927117  0
C  C75  1  0.08982389  0.42078810  0.94739871  1  0.523774  0  0.099498  0.15622  0  4.042811  0
C  C76  1  0.94184292  0.58976245  0.94012000  1  -0.013086  0  -0.007534  0.064811  0  3.90485  0
C  C77  1  0.09224261  0.41922400  0.04125605  1  0.511904  0  0.099334  0.15642  0  4.049462  0
C  C78  1  0.84916474  0.69533292  0.03630106  1  -0.01713  0  -0.150053  -0.192816  0  3.872493  0
C  C79  1  0.84643155  0.69788841  0.93024226  1  -0.027028  0  -0.150598  -0.195884  0  3.856579  0
C  C80  1  0.99779895  0.09098071  0.90002560  1  -0.025979  0  -0.000435  -0.081311  0  3.91158  0
C  C81  1  0.90645294  0.09613363  0.99972530  1  -0.038521  0  0.002066  0.065188  0  3.95047  0
C  C82  1  0.08631543  0.99375713  0.89353943  1  0.051518  0  -0.007283  -0.09001  0  3.964447  0
C  C83  1  0.81272883  0.19340091  0.00608409  1  -0.057535  0  -0.08738  -0.120934  0  3.951074  0
C  C84  1  0.72416914  0.19489177  0.10272581  1  -0.028637  0  -0.086366  -0.072178  0  4.01205  0
C  C85  1  0.00298014  0.90160006  0.08914230  1  0.002276  0  -0.00476  -0.094595  0  3.91512  0
C  C86  1  0.09126061  0.89926697  0.99105107  1  -0.030872  0  -0.005166  -0.089403  0  3.968526  0
C  C87  1  0.90775074  0.99864128  0.09572990  1  -0.010211  0  0.003845  0.069675  0  3.948639  0
C  C88  1  0.81483801  0.00313742  0.19392073  1  0.012654  0  -0.089414  -0.129251  0  3.956358  0
C  C89  1  0.72546354  0.09903686  0.19743125  1  -0.080168  0  -0.085017  -0.067473  0  4.004587  0
C  C90  1  0.59419082  0.51099425  0.49894644  1  0.039197  0  -0.017593  -0.171349  0  3.976369  0
C  C91  1  0.39417927  0.51266795  0.50413317  1  0.015181  0  -0.017989  -0.17217  0  3.976835  0
C  C92  1  0.54423653  0.43074851  0.57739274  1  -0.033036  0  -0.003162  0.072428  0  3.896609  0
C  C93  1  0.44319761  0.59488161  0.42514942  1  0.47828  0  0.09677  0.151004  0  4.054658  0
C  C94  1  0.44845963  0.43193604  0.58023578  1  0.01541  0  -0.004338  0.068211  0  3.903211  0
C  C95  1  0.53934477  0.59362229  0.42235385  1  0.583399  0  0.095271  0.148624  0  4.053912  0
C  C96  1  0.55556946  0.32450284  0.67453939  1  -0.007758  0  -0.148753  -0.197677  0  3.852919  0
C  C97  1  0.44579352  0.32709278  0.67919837  1  -0.017252  0  -0.147722  -0.194021  0  3.845642  0
C  C98  1  0.19199018  0.79610154  0.99055984  1  1.540566  0  0.236795  0.582437  0  4.108645  0
C  C99  1  0.17301857  0.98600022  0.78349035  1  1.512921  0  0.231146  0.573091  0  4.097758  0
O  O100  1  0.73519234  0.42677580  0.75641678  1  -1.18014  0  -0.360959  -0.625593  0  2.308231  0
O  O101  1  0.07932124  0.76306369  0.42243252  1  -1.171022  0  -0.344739  -0.600043  0  2.249909  0
O  O102  1  0.26303702  0.57593348  0.23470105  1  -1.171451  0  -0.346713  -0.599776  0  2.258338  0
O  O103  1  0.92901369  0.23450500  0.57787864  1  -1.178838  0  -0.359561  -0.626459  0  2.314464  0
O  O104  1  0.07312857  0.23340381  0.76741710  1  -1.158008  0  -0.331036  -0.577039  0  2.248925  0
O  O105  1  0.73909747  0.58185930  0.42103223  1  -1.175443  0  -0.360167  -0.622118  0  2.302835  0
O  O106  1  0.93059341  0.75960498  0.22902694  1  -1.174532  0  -0.351736  -0.620113  0  2.302602  0
O  O107  1  0.26084005  0.42921404  0.58045050  1  -1.163066  0  -0.339263  -0.594135  0  2.243616  0
O  O108  1  0.92578568  0.57954320  0.76340316  1  -1.174156  0  -0.34084  -0.600071  0  2.230726  0
O  O109  1  0.26145729  0.22993130  0.43390109  1  -1.168009  0  -0.346673  -0.607213  0  2.26639  0
O  O110  1  0.08584428  0.42208432  0.23629970  1  -1.175688  0  -0.35264  -0.605891  0  2.315036  0
O  O111  1  0.73859527  0.75716237  0.57749437  1  -1.168933  0  -0.358879  -0.613219  0  2.320371  0
O  O112  1  0.25760054  0.23402455  0.58642379  1  -1.165465  0  -0.358084  -0.6186  0  2.301918  0
O  O113  1  0.93554625  0.57814347  0.22939920  1  -1.183958  0  -0.349906  -0.610485  0  2.265768  0
O  O114  1  0.73827460  0.76461646  0.42125992  1  -1.171288  0  -0.345052  -0.605328  0  2.244946  0
O  O115  1  0.07926548  0.42714349  0.75855637  1  -1.177059  0  -0.361476  -0.619919  0  2.328148  0
O  O116  1  0.92460685  0.23291323  0.75887866  1  -1.18171  0  -0.350963  -0.618157  0  2.305587  0
O  O117  1  0.25802672  0.58103318  0.42606903  1  -1.170633  0  -0.362613  -0.622845  0  2.323106  0
O  O118  1  0.08218014  0.76256207  0.22860467  1  -1.168487  0  -0.33465  -0.59387  0  2.256287  0
O  O119  1  0.73510502  0.42840072  0.57374588  1  -1.170026  0  -0.343205  -0.597757  0  2.248027  0
O  O120  1  0.08349185  0.23069347  0.42597912  1  -1.170531  0  -0.343664  -0.595984  0  2.252684  0
O  O121  1  0.73376981  0.57806024  0.76087380  1  -1.167598  0  -0.343784  -0.599294  0  2.249468  0
O  O122  1  0.92853393  0.75721850  0.57809729  1  -1.169632  0  -0.357717  -0.616887  0  2.315348  0
O  O123  1  0.26390629  0.42010318  0.23997143  1  -1.166317  0  -0.358056  -0.618088  0  2.311184  0
O  O124  1  0.93617118  0.43226829  0.43149244  1  -1.249484  0  -0.696121  -1.073662  0  2.373399  0
O  O125  1  0.20274271  0.43099775  0.43574035  1  -1.255791  0  -0.694134  -1.073124  0  2.370089  0
O  O126  1  0.93632406  0.70070382  0.42969837  1  -1.237804  0  -0.693895  -1.069646  0  2.37672  0
O  O127  1  0.93265556  0.43304191  0.70141480  1  -1.234639  0  -0.694665  -1.073812  0  2.369777  0
O  O128  1  0.05031405  0.54929525  0.54878704  1  -1.200916  0  -0.790819  -1.15207  0  2.135438  0
O  O129  1  0.85370936  0.54986935  0.54720647  1  -1.197879  0  -0.790963  -1.151626  0  2.130529  0
O  O130  1  0.05300842  0.54739331  0.35138465  1  -1.202129  0  -0.790234  -1.14928  0  2.126169  0
O  O131  1  0.04969444  0.35113466  0.55139582  1  -1.199092  0  -0.791381  -1.15094  0  2.127105  0
O  O132  1  0.17894714  0.70789896  0.99666634  1  -1.098394  0  -0.33213  -0.470287  0  2.191979  0
O  O133  1  0.27797250  0.78764869  0.98859951  1  -1.07873  0  -0.24085  -0.401713  0  2.115013  0
O  O134  1  0.13353719  0.03251848  0.69843924  1  -1.098931  0  -0.335707  -0.472004  0  2.21208  0
O  O135  1  0.27136828  0.93981881  0.76695525  1  -1.087044  0  -0.260321  -0.420961  0  2.086951  0
F  F136  1  0.36933599  0.38822415  0.04489501  1  -0.615397  0  -0.090681  -0.108086  0  1.399757  0
F  F137  1  0.54300568  0.38926481  0.86892527  1  -0.62451  0  -0.083629  -0.109286  0  1.426701  0
F  F138  1  0.86379900  0.88937334  0.68395975  1  -0.622578  0  -0.077637  -0.101158  0  1.436952  0
F  F139  1  0.87099468  0.05666603  0.68780082  1  -0.617482  0  -0.093557  -0.113598  0  1.391367  0
F  F140  1  0.44394581  0.11108536  0.63583952  1  -0.618979  0  -0.081906  -0.105394  0  1.409891  0
F  F141  1  0.62150784  0.93987480  0.62864171  1  -0.615483  0  -0.089238  -0.107277  0  1.389564  0
F  F142  1  0.16493478  0.33379517  0.91288450  1  -0.613271  0  -0.083801  -0.102959  0  1.407981  0
F  F143  1  0.16844240  0.33082434  0.08510420  1  -0.618511  0  -0.081286  -0.10147  0  1.41914  0
F  F144  1  0.40022282  0.68014208  0.34642597  1  -0.622063  0  -0.087125  -0.111701  0  1.413798  0
F  F145  1  0.57741601  0.67698731  0.34031724  1  -0.62187  0  -0.086058  -0.112827  0  1.420518  0
