# generated using pymatgen
data_ZnH13C14NO5
_symmetry_space_group_name_H-M   'P 1'
_cell_length_a   7.86764146
_cell_length_b   18.84866497
_cell_length_c   20.34158380
_cell_angle_alpha   89.99965823
_cell_angle_beta   103.04639386
_cell_angle_gamma   89.99987475
_symmetry_Int_Tables_number   1
_chemical_formula_structural   ZnH13C14NO5
_chemical_formula_sum   'Zn8 H104 C112 N8 O40'
_cell_volume   2938.68147747
_cell_formula_units_Z   8
loop_
 _symmetry_equiv_pos_site_id
 _symmetry_equiv_pos_as_xyz
  1  'x, y, z'
loop_
 _atom_site_type_symbol
 _atom_site_label
 _atom_site_symmetry_multiplicity
 _atom_site_fract_x
 _atom_site_fract_y
 _atom_site_fract_z
 _atom_site_occupancy
 _atom_site_pbe_bader_charge
 _atom_site_pbe_bader_spin_density
 _atom_site_pbe_cm5_charge
 _atom_site_pbe_ddec_charge
 _atom_site_pbe_ddec_spin_density
 _atom_site_pbe_ddec_sum_bond_order
 _atom_site_pbe_magmom
Zn  Zn0  1  0.02007096  0.19902200  0.01298606  1  1.319416  0  0.686507  0.921099  0  2.36692  0
Zn  Zn1  1  0.47992917  0.69902598  0.48701236  1  1.319676  0  0.686513  0.921085  0  2.367067  0
Zn  Zn2  1  0.97992633  0.80097620  0.98701276  1  1.319662  0  0.686515  0.921071  0  2.366984  0
Zn  Zn3  1  0.52007466  0.30097594  0.51298749  1  1.319657  0  0.686471  0.921018  0  2.367009  0
Zn  Zn4  1  0.38411910  0.28715177  0.98100878  1  1.390461  0  0.702732  1.020393  0  2.228597  0
Zn  Zn5  1  0.11587704  0.78715377  0.51899237  1  1.390534  0  0.702754  1.020405  0  2.228416  0
Zn  Zn6  1  0.61588205  0.71284537  0.01898888  1  1.390398  0  0.702743  1.02043  0  2.228541  0
Zn  Zn7  1  0.88411903  0.21284761  0.48100881  1  1.390509  0  0.702691  1.020334  0  2.228598  0
H  H8  1  0.69299510  0.25405251  0.05625364  1  0.639411  0  0.285611  0.382402  0  0.96263  0
H  H9  1  0.80700058  0.75405586  0.44374878  1  0.639489  0  0.285608  0.382364  0  0.962688  0
H  H10  1  0.30700354  0.74594728  0.94374676  1  0.639501  0  0.285588  0.38239  0  0.962653  0
H  H11  1  0.19299549  0.24594765  0.55625240  1  0.639458  0  0.28561  0.382391  0  0.962652  0
H  H12  1  0.71693510  0.28341659  0.98496600  1  0.634432  0  0.296575  0.385666  0  0.94149  0
H  H13  1  0.78306089  0.78341846  0.51503590  1  0.634763  0  0.29661  0.385746  0  0.941406  0
H  H14  1  0.28306743  0.71658267  0.01503374  1  0.634436  0  0.29656  0.38566  0  0.941502  0
H  H15  1  0.21693257  0.21658292  0.48496506  1  0.634426  0  0.296586  0.385688  0  0.94146  0
H  H16  1  0.16973942  0.00070139  0.96711027  1  0.100436  0  0.108111  0.124841  0  1.006028  0
H  H17  1  0.33027353  0.50070257  0.53289141  1  0.100564  0  0.108108  0.124876  0  1.005972  0
H  H18  1  0.83026325  0.99929840  0.03289391  1  0.100671  0  0.108136  0.124842  0  1.005978  0
H  H19  1  0.66972638  0.49929934  0.46710812  1  0.100606  0  0.108108  0.124899  0  1.005958  0
H  H20  1  0.52099219  0.88622207  0.87313527  1  0.083246  0  0.10507  0.114802  0  1.027042  0
H  H21  1  0.97901325  0.38622331  0.62686488  1  0.083178  0  0.105067  0.114751  0  1.027113  0
H  H22  1  0.47899591  0.11377825  0.12686132  1  0.083232  0  0.105085  0.114821  0  1.027049  0
H  H23  1  0.02099462  0.61377701  0.37313875  1  0.08316  0  0.105078  0.114797  0  1.027082  0
H  H24  1  0.56894978  0.11499917  0.89963898  1  0.094336  0  0.106457  0.118667  0  1.032139  0
H  H25  1  0.93105922  0.61500036  0.60035856  1  0.094419  0  0.106437  0.118669  0  1.032152  0
H  H26  1  0.43105025  0.88500115  0.10036400  1  0.094294  0  0.106475  0.118679  0  1.03222  0
H  H27  1  0.06893539  0.38499943  0.39963808  1  0.094413  0  0.106449  0.118702  0  1.032152  0
H  H28  1  0.78290212  0.89107584  0.88315943  1  0.09099  0  0.109314  0.094821  0  1.01457  0
H  H29  1  0.71710440  0.39107738  0.61683536  1  0.090794  0  0.109318  0.094891  0  1.014417  0
H  H30  1  0.21708873  0.10892501  0.11684132  1  0.091126  0  0.10931  0.094807  0  1.014541  0
H  H31  1  0.28290341  0.60892241  0.38316678  1  0.090591  0  0.109325  0.094892  0  1.014434  0
H  H32  1  0.94424951  0.93875350  0.85617901  1  0.070963  0  0.11135  0.093818  0  1.013175  0
H  H33  1  0.55575659  0.43875396  0.64381598  1  0.071091  0  0.111353  0.093807  0  1.013217  0
H  H34  1  0.05574395  0.06124523  0.14382195  1  0.070864  0  0.111338  0.09379  0  1.013213  0
H  H35  1  0.44424857  0.56124530  0.35618497  1  0.071037  0  0.111319  0.093745  0  1.013242  0
H  H36  1  0.89536317  0.81010800  0.79625197  1  0.096273  0  0.101632  0.11167  0  1.021872  0
H  H37  1  0.60463383  0.31010750  0.70374839  1  0.096447  0  0.101627  0.111681  0  1.021819  0
H  H38  1  0.10462907  0.18988914  0.20375135  1  0.0964  0  0.101549  0.111628  0  1.021742  0
H  H39  1  0.39537391  0.68989389  0.29625178  1  0.096343  0  0.101609  0.111668  0  1.02175  0
H  H40  1  0.78358801  0.75825541  0.68190256  1  0.121538  0  0.101355  0.104061  0  1.024001  0
H  H41  1  0.71641468  0.25825779  0.81809857  1  0.121552  0  0.101357  0.104077  0  1.023969  0
H  H42  1  0.21641591  0.24174226  0.31809976  1  0.121577  0  0.101345  0.10404  0  1.023997  0
H  H43  1  0.28359308  0.74174360  0.18190210  1  0.12163  0  0.101361  0.104051  0  1.024044  0
H  H44  1  0.44382591  0.93738779  0.62685634  1  0.085704  0  0.10682  0.113265  0  0.987607  0
H  H45  1  0.05618298  0.43738837  0.87313765  1  0.085683  0  0.106798  0.113224  0  0.987638  0
H  H46  1  0.55618434  0.06261041  0.37314109  1  0.085678  0  0.106859  0.113337  0  0.987604  0
H  H47  1  0.94382867  0.56261195  0.12686284  1  0.085815  0  0.106853  0.113306  0  0.987661  0
H  H48  1  0.56285403  0.99137899  0.74011742  1  0.069915  0  0.094878  0.089642  0  1.068059  0
H  H49  1  0.93714635  0.49137783  0.75987582  1  0.07028  0  0.094876  0.089528  0  1.068107  0
H  H50  1  0.43714327  0.00861815  0.25988189  1  0.070081  0  0.094851  0.089584  0  1.068051  0
H  H51  1  0.06285883  0.50862355  0.24012562  1  0.070319  0  0.094879  0.089608  0  1.068051  0
H  H52  1  0.97614917  0.04450598  0.88376537  1  0.075291  0  0.104676  0.083248  0  1.04075  0
H  H53  1  0.52386324  0.54450691  0.61623775  1  0.075209  0  0.104746  0.083349  0  1.0407  0
H  H54  1  0.02384822  0.95549275  0.11623641  1  0.075271  0  0.104703  0.083292  0  1.040744  0
H  H55  1  0.47613667  0.45548970  0.38376178  1  0.075367  0  0.104732  0.083374  0  1.040691  0
H  H56  1  0.81584252  0.09620141  0.90771857  1  0.092271  0  0.112877  0.109445  0  1.00615  0
H  H57  1  0.68416547  0.59620182  0.59228242  1  0.092348  0  0.11293  0.109554  0  1.006082  0
H  H58  1  0.18415626  0.90379626  0.09228578  1  0.092438  0  0.112833  0.109404  0  1.006165  0
H  H59  1  0.31582904  0.40379320  0.40771125  1  0.092346  0  0.112863  0.109424  0  1.006246  0
H  H60  1  0.53643324  0.10776297  0.78397595  1  0.056994  0  0.099362  0.098981  0  1.026257  0
H  H61  1  0.96357850  0.60777135  0.71602332  1  0.057334  0  0.099379  0.09901  0  1.026312  0
H  H62  1  0.46356160  0.89223099  0.21602709  1  0.057287  0  0.099378  0.099026  0  1.026299  0
H  H63  1  0.03642514  0.39223057  0.28397111  1  0.057765  0  0.099408  0.09903  0  1.026326  0
H  H64  1  0.50152464  0.17263371  0.67496692  1  0.071352  0  0.108526  0.116245  0  0.990417  0
H  H65  1  0.99847876  0.67263871  0.82503327  1  0.07123  0  0.108541  0.116285  0  0.990344  0
H  H66  1  0.49846500  0.82735812  0.32503619  1  0.071322  0  0.108552  0.116225  0  0.990396  0
H  H67  1  0.00151846  0.32735790  0.17496358  1  0.071509  0  0.108543  0.11625  0  0.990303  0
H  H68  1  0.05556559  0.16631298  0.69308727  1  0.117027  0  0.109489  0.116099  0  0.984811  0
H  H69  1  0.44443928  0.66631072  0.80691036  1  0.117139  0  0.109374  0.11592  0  0.984847  0
H  H70  1  0.94442392  0.83368946  0.30691238  1  0.116975  0  0.109497  0.116139  0  0.984938  0
H  H71  1  0.55555911  0.33369067  0.19308265  1  0.117133  0  0.10948  0.116074  0  0.984822  0
H  H72  1  0.09326451  0.10470878  0.80469474  1  0.084063  0  0.098009  0.100213  0  1.01742  0
H  H73  1  0.40675004  0.60470832  0.69530403  1  0.084013  0  0.098003  0.100197  0  1.017638  0
H  H74  1  0.90673292  0.89529950  0.19530802  1  0.084001  0  0.097996  0.100161  0  1.017444  0
H  H75  1  0.59325347  0.39529571  0.30468694  1  0.084204  0  0.098012  0.100189  0  1.017635  0
H  H76  1  0.34856004  0.29404636  0.75810354  1  0.065941  0  0.103302  0.159574  0  1.000343  0
H  H77  1  0.15144799  0.79404372  0.74190445  1  0.065708  0  0.103279  0.159544  0  1.000395  0
H  H78  1  0.65143216  0.70595343  0.24189830  1  0.065786  0  0.103297  0.159593  0  1.000377  0
H  H79  1  0.84855970  0.20595767  0.25809424  1  0.065679  0  0.103298  0.159541  0  1.000362  0
H  H80  1  0.15353707  0.31530517  0.78316962  1  0.11669  0  0.102207  0.159282  0  1.009498  0
H  H81  1  0.34646550  0.81530463  0.71683633  1  0.117062  0  0.102209  0.159264  0  1.009474  0
H  H82  1  0.84645652  0.68469675  0.21683480  1  0.116724  0  0.102243  0.159342  0  1.009464  0
H  H83  1  0.65353960  0.18469782  0.28316264  1  0.117134  0  0.10222  0.159303  0  1.009474  0
H  H84  1  0.30286246  0.25361145  0.83178570  1  0.065997  0  0.100425  0.163326  0  1.008702  0
H  H85  1  0.19714332  0.75360924  0.66822234  1  0.065857  0  0.100391  0.163263  0  1.008708  0
H  H86  1  0.69713243  0.74639047  0.16821882  1  0.066047  0  0.100424  0.163371  0  1.008648  0
H  H87  1  0.80286303  0.24639268  0.33177526  1  0.065825  0  0.100432  0.16337  0  1.008674  0
H  H88  1  0.40757603  0.52765777  0.86208088  1  0.059371  0  0.105688  0.118951  0  0.977686  0
H  H89  1  0.09242625  0.02765717  0.63791977  1  0.059085  0  0.10571  0.118977  0  0.977669  0
H  H90  1  0.59243170  0.47234362  0.13791880  1  0.058895  0  0.105721  0.118992  0  0.977782  0
H  H91  1  0.90756069  0.97234634  0.36208065  1  0.059119  0  0.105731  0.118957  0  0.97776  0
H  H92  1  0.60590088  0.49949288  0.84177340  1  0.07761  0  0.102679  0.117587  0  1.003985  0
H  H93  1  0.89410232  0.99949161  0.65822789  1  0.077856  0  0.10269  0.117604  0  1.003951  0
H  H94  1  0.39410681  0.50050744  0.15822529  1  0.077741  0  0.102672  0.117622  0  1.003967  0
H  H95  1  0.10588994  0.00050712  0.34177592  1  0.077763  0  0.102672  0.117595  0  1.004001  0
H  H96  1  0.54170041  0.46277549  0.91386262  1  0.105045  0  0.116204  0.141064  0  0.991364  0
H  H97  1  0.95830444  0.96277356  0.58613950  1  0.10504  0  0.116231  0.141077  0  0.99142  0
H  H98  1  0.45830860  0.53722536  0.08613667  1  0.104992  0  0.116223  0.141085  0  0.991389  0
H  H99  1  0.04168386  0.03722623  0.41386251  1  0.104883  0  0.116229  0.141115  0  0.991332  0
H  H100  1  0.27539417  0.39750583  0.72077138  1  0.104555  0  0.108969  0.126842  0  1.038254  0
H  H101  1  0.22461024  0.89750765  0.77923328  1  0.104724  0  0.108991  0.126856  0  1.038183  0
H  H102  1  0.72461356  0.60249078  0.27922830  1  0.104451  0  0.108937  0.12687  0  1.038204  0
H  H103  1  0.77538586  0.10249267  0.22076889  1  0.104632  0  0.108993  0.12693  0  1.038236  0
H  H104  1  0.43911409  0.46423035  0.72847376  1  0.056268  0  0.099359  0.107289  0  1.032594  0
H  H105  1  0.06088703  0.96423131  0.77152779  1  0.056293  0  0.099352  0.107224  0  1.032595  0
H  H106  1  0.56089492  0.53576945  0.27152553  1  0.056378  0  0.099387  0.107247  0  1.032709  0
H  H107  1  0.93910775  0.03577060  0.22847377  1  0.056388  0  0.099348  0.107233  0  1.032717  0
H  H108  1  0.23348500  0.48485094  0.74603249  1  0.051733  0  0.099021  0.109416  0  1.005227  0
H  H109  1  0.26651597  0.98485236  0.75396992  1  0.051623  0  0.099013  0.10941  0  1.005207  0
H  H110  1  0.76652006  0.51514726  0.25396550  1  0.05138  0  0.099009  0.109422  0  1.005188  0
H  H111  1  0.73348149  0.01514849  0.24603383  1  0.051602  0  0.099002  0.109418  0  1.005213  0
C  C112  1  0.29867711  0.13299880  0.95502681  1  1.547597  0  0.223485  0.602407  0  4.168256  0
C  C113  1  0.20133210  0.63299843  0.54497481  1  1.547805  0  0.223504  0.602547  0  4.168572  0
C  C114  1  0.70132557  0.86699993  0.04497737  1  1.547934  0  0.22357  0.602583  0  4.168097  0
C  C115  1  0.79866521  0.36700242  0.45502451  1  1.548312  0  0.223386  0.602376  0  4.168592  0
C  C116  1  0.24779397  0.86899003  0.92744313  1  1.547741  0  0.210772  0.57636  0  4.200418  0
C  C117  1  0.25220531  0.36898811  0.57255634  1  1.547712  0  0.210838  0.576367  0  4.200489  0
C  C118  1  0.75220075  0.13100976  0.07255646  1  1.547605  0  0.210744  0.576304  0  4.2004  0
C  C119  1  0.74779584  0.63101327  0.42744132  1  1.547794  0  0.210825  0.576287  0  4.200561  0
C  C120  1  0.27742145  0.00099481  0.94179948  1  -0.010398  0  -0.097527  -0.150541  0  3.978673  0
C  C121  1  0.22258890  0.50099540  0.55820199  1  -0.01043  0  -0.097596  -0.150638  0  3.978794  0
C  C122  1  0.72257862  0.99900392  0.05820448  1  -0.010468  0  -0.097577  -0.150506  0  3.978514  0
C  C123  1  0.77741231  0.49900599  0.44179716  1  -0.010401  0  -0.097573  -0.150694  0  3.978715  0
C  C124  1  0.33666039  0.93777155  0.91896992  1  -0.04523  0  -0.024921  -0.027775  0  4.020296  0
C  C125  1  0.16334871  0.43777072  0.58102998  1  -0.044281  0  -0.024936  -0.027789  0  4.020346  0
C  C126  1  0.66333828  0.06222931  0.08103098  1  -0.045241  0  -0.024995  -0.027865  0  4.020232  0
C  C127  1  0.83665379  0.56223067  0.41896927  1  -0.045058  0  -0.024974  -0.027756  0  4.020326  0
C  C128  1  0.48140373  0.93715031  0.88993453  1  -0.054605  0  -0.092929  -0.195663  0  3.927879  0
C  C129  1  0.01860542  0.43715049  0.61006686  1  -0.055496  0  -0.092954  -0.19556  0  3.92778  0
C  C130  1  0.51859098  0.06285002  0.11006507  1  -0.054556  0  -0.092948  -0.19572  0  3.927928  0
C  C131  1  0.98140108  0.56285037  0.38993518  1  -0.05474  0  -0.09295  -0.195645  0  3.92781  0
C  C132  1  0.57568505  0.00003829  0.88507116  1  0.406826  0  0.101849  0.185917  0  4.054281  0
C  C133  1  0.92432245  0.50003886  0.61492935  1  0.406702  0  0.101881  0.185894  0  4.05424  0
C  C134  1  0.42430968  0.99996044  0.11492893  1  0.406852  0  0.101945  0.18601  0  4.054402  0
C  C135  1  0.07568010  0.49996146  0.38507138  1  0.406608  0  0.101867  0.18595  0  4.05424  0
C  C136  1  0.50710205  0.06418869  0.90401170  1  -0.029137  0  -0.097157  -0.206431  0  3.945488  0
C  C137  1  0.99291008  0.56419038  0.59598834  1  -0.028958  0  -0.097093  -0.206349  0  3.945462  0
C  C138  1  0.49289797  0.93581004  0.09599079  1  -0.028989  0  -0.097171  -0.206393  0  3.945643  0
C  C139  1  0.00709110  0.43580994  0.40401031  1  -0.028954  0  -0.097097  -0.206416  0  3.945498  0
C  C140  1  0.36135695  0.06434624  0.93241300  1  -0.019094  0  -0.025384  -0.032769  0  4.035231  0
C  C141  1  0.13865540  0.56434897  0.56758729  1  -0.019291  0  -0.02535  -0.032843  0  4.035477  0
C  C142  1  0.63864574  0.93565196  0.06759167  1  -0.019258  0  -0.0254  -0.032882  0  4.035273  0
C  C143  1  0.86134450  0.43565242  0.43241174  1  -0.019249  0  -0.02538  -0.032811  0  4.035518  0
C  C144  1  0.80206960  0.93207249  0.84687835  1  0.308361  0  -0.052328  -0.114311  0  3.931907  0
C  C145  1  0.69793658  0.43207222  0.65311718  1  0.308969  0  -0.052319  -0.114526  0  3.931799  0
C  C146  1  0.19792384  0.06792678  0.15312212  1  0.308378  0  -0.052323  -0.114263  0  3.931881  0
C  C147  1  0.30206725  0.56792704  0.34688267  1  0.308696  0  -0.052266  -0.114409  0  3.931931  0
C  C148  1  0.73453686  0.90393812  0.77593568  1  -0.094106  0  -0.006234  0.103537  0  3.94377  0
C  C149  1  0.76547219  0.40393629  0.72406024  1  -0.094539  0  -0.00623  0.103823  0  3.943396  0
C  C150  1  0.26546440  0.09605902  0.22406494  1  -0.094165  0  -0.006178  0.103572  0  3.94387  0
C  C151  1  0.23453954  0.59606457  0.27594223  1  -0.094151  0  -0.006153  0.103799  0  3.943518  0
C  C152  1  0.79871237  0.83873512  0.75861907  1  -0.105442  0  -0.093949  -0.144139  0  3.961167  0
C  C153  1  0.70129210  0.33873429  0.74137880  1  -0.105685  0  -0.093929  -0.144238  0  3.961168  0
C  C154  1  0.20128634  0.16126308  0.24138331  1  -0.105347  0  -0.093921  -0.144115  0  3.961166  0
C  C155  1  0.29871691  0.66126762  0.25862050  1  -0.105544  0  -0.093918  -0.144135  0  3.961043  0
C  C156  1  0.73655512  0.80955239  0.69492379  1  -0.031368  0  -0.083687  -0.081538  0  3.975828  0
C  C157  1  0.76345222  0.30955269  0.80507448  1  -0.030909  0  -0.083711  -0.081636  0  3.975895  0
C  C158  1  0.26345134  0.19044528  0.30507677  1  -0.0311  0  -0.083679  -0.081627  0  3.975805  0
C  C159  1  0.23655809  0.69044870  0.19492492  1  -0.031246  0  -0.083725  -0.081632  0  3.976074  0
C  C160  1  0.60616797  0.84442085  0.64751471  1  0.071575  0  -0.025007  -0.055839  0  3.991308  0
C  C161  1  0.89384031  0.34442285  0.85248197  1  0.071967  0  -0.025045  -0.055921  0  3.991404  0
C  C162  1  0.39384624  0.15557629  0.35248452  1  0.07219  0  -0.025034  -0.055795  0  3.991104  0
C  C163  1  0.10616873  0.65557907  0.14751831  1  0.071611  0  -0.024993  -0.055837  0  3.991281  0
C  C164  1  0.54484259  0.91039844  0.66397889  1  -0.176097  0  -0.082003  -0.08499  0  3.97916  0
C  C165  1  0.95516770  0.41039784  0.83601709  1  -0.176802  0  -0.081989  -0.084904  0  3.979388  0
C  C166  1  0.45516903  0.08960082  0.33602061  1  -0.176984  0  -0.082044  -0.085136  0  3.97923  0
C  C167  1  0.04484265  0.58960408  0.16398330  1  -0.176194  0  -0.082052  -0.085051  0  3.979458  0
C  C168  1  0.60988843  0.93998280  0.72747291  1  0.014097  0  -0.098655  -0.148551  0  3.998638  0
C  C169  1  0.89011896  0.43998107  0.77252168  1  0.013652  0  -0.098647  -0.14846  0  3.998757  0
C  C170  1  0.39011276  0.06001593  0.27252573  1  0.013861  0  -0.098624  -0.148422  0  3.998574  0
C  C171  1  0.10989277  0.56002138  0.22748079  1  0.013501  0  -0.098798  -0.148682  0  3.998756  0
C  C172  1  0.52133371  0.80826363  0.58341883  1  1.548275  0  0.222656  0.60749  0  4.155831  0
C  C173  1  0.97866584  0.30826036  0.91657930  1  1.548324  0  0.222641  0.607507  0  4.155687  0
C  C174  1  0.47867659  0.19173723  0.41658008  1  1.548578  0  0.222713  0.60769  0  4.155586  0
C  C175  1  0.02133928  0.69173731  0.08342016  1  1.548297  0  0.222685  0.607577  0  4.155382  0
C  C176  1  0.83974473  0.06155027  0.86730233  1  0.30339  0  -0.057361  -0.120514  0  3.919846  0
C  C177  1  0.66026609  0.56155097  0.63269664  1  0.303418  0  -0.057443  -0.120729  0  3.919914  0
C  C178  1  0.16025267  0.93844952  0.13269994  1  0.302939  0  -0.057353  -0.120572  0  3.919851  0
C  C179  1  0.33973755  0.43844776  0.36729779  1  0.30312  0  -0.057377  -0.120625  0  3.919925  0
C  C180  1  0.81755559  0.10167853  0.80161859  1  -0.050028  0  -0.006178  0.104662  0  3.953415  0
C  C181  1  0.68246018  0.60168038  0.69838301  1  -0.049958  0  -0.006137  0.10478  0  3.953453  0
C  C182  1  0.18244582  0.89832338  0.19838647  1  -0.050081  0  -0.006176  0.10473  0  3.953529  0
C  C183  1  0.31753951  0.39832259  0.30161011  1  -0.050032  0  -0.006126  0.104703  0  3.953666  0
C  C184  1  0.65100160  0.12109018  0.76463273  1  0.006473  0  -0.093826  -0.143975  0  3.996817  0
C  C185  1  0.84900871  0.62109483  0.73536635  1  0.006326  0  -0.093834  -0.144057  0  3.997022  0
C  C186  1  0.34899318  0.87890696  0.23536884  1  0.006321  0  -0.093823  -0.144006  0  3.996964  0
C  C187  1  0.15099364  0.37890868  0.26462846  1  0.005805  0  -0.093833  -0.143959  0  3.997049  0
C  C188  1  0.63040589  0.15675127  0.70354629  1  -0.122348  0  -0.082388  -0.089023  0  3.980122  0
C  C189  1  0.86959765  0.65675603  0.79645400  1  -0.122682  0  -0.08246  -0.089058  0  3.980097  0
C  C190  1  0.36957980  0.84324481  0.29645551  1  -0.122699  0  -0.082435  -0.089076  0  3.980064  0
C  C191  1  0.13040343  0.34324535  0.20354169  1  -0.123123  0  -0.082473  -0.089045  0  3.979859  0
C  C192  1  0.77663745  0.17238528  0.67744558  1  0.020028  0  -0.019415  -0.044876  0  3.988732  0
C  C193  1  0.72336588  0.67238683  0.82255264  1  0.020031  0  -0.019515  -0.045145  0  3.988913  0
C  C194  1  0.22334693  0.82761239  0.32255611  1  0.02054  0  -0.019476  -0.044709  0  3.988478  0
C  C195  1  0.27663513  0.32761243  0.17744108  1  0.020649  0  -0.019446  -0.045006  0  3.988975  0
C  C196  1  0.94325896  0.15356147  0.71402009  1  -0.006248  0  -0.080792  -0.085364  0  3.982073  0
C  C197  1  0.55674450  0.65356023  0.78597727  1  -0.006288  0  -0.080654  -0.084975  0  3.981938  0
C  C198  1  0.05672667  0.84644150  0.28598023  1  -0.006482  0  -0.080823  -0.085528  0  3.982214  0
C  C199  1  0.44325519  0.34644169  0.21401585  1  -0.006601  0  -0.08083  -0.085289  0  3.982174  0
C  C200  1  0.96317738  0.11919225  0.77600948  1  -0.134739  0  -0.094599  -0.14433  0  3.98268  0
C  C201  1  0.53683169  0.61919142  0.72399099  1  -0.13459  0  -0.094595  -0.144414  0  3.982994  0
C  C202  1  0.03681878  0.88081284  0.22399417  1  -0.134609  0  -0.094576  -0.144235  0  3.982715  0
C  C203  1  0.46316798  0.38081155  0.27600164  1  -0.134504  0  -0.094647  -0.144363  0  3.983091  0
C  C204  1  0.75279926  0.20917007  0.61103122  1  1.572263  0  0.227813  0.612291  0  4.169478  0
C  C205  1  0.74720118  0.70917224  0.88896803  1  1.572436  0  0.227861  0.612368  0  4.169321  0
C  C206  1  0.24718639  0.79082760  0.38896959  1  1.572391  0  0.227723  0.611873  0  4.16949  0
C  C207  1  0.25279604  0.29082437  0.11102882  1  1.57229  0  0.228014  0.612342  0  4.169536  0
C  C208  1  0.38497108  0.36083752  0.84698494  1  1.375803  0  0.250794  0.524247  0  4.032611  0
C  C209  1  0.11502980  0.86083548  0.65302110  1  1.375672  0  0.25064  0.524059  0  4.033034  0
C  C210  1  0.61502892  0.63916386  0.15301705  1  1.375669  0  0.250766  0.524234  0  4.032681  0
C  C211  1  0.88497534  0.13916802  0.34697886  1  1.375752  0  0.250666  0.524019  0  4.033252  0
C  C212  1  0.29210238  0.30251634  0.80216158  1  -0.113296  0  -0.240015  -0.51884  0  3.894753  0
C  C213  1  0.20790168  0.80251499  0.69784653  1  -0.113374  0  -0.239851  -0.518567  0  3.894937  0
C  C214  1  0.70789512  0.69748558  0.19784316  1  -0.113211  0  -0.240022  -0.51894  0  3.894792  0
C  C215  1  0.79210737  0.19748799  0.30215375  1  -0.113447  0  -0.239926  -0.51872  0  3.895015  0
C  C216  1  0.49498842  0.48205556  0.86231975  1  0.241024  0  -0.13214  -0.263812  0  3.889861  0
C  C217  1  0.00501646  0.98205213  0.63768202  1  0.241086  0  -0.132276  -0.263944  0  3.89022  0
C  C218  1  0.50502056  0.51794423  0.13767856  1  0.241457  0  -0.13222  -0.263906  0  3.890044  0
C  C219  1  0.99497450  0.01794661  0.36232169  1  0.241397  0  -0.132287  -0.263953  0  3.890038  0
C  C220  1  0.33360196  0.44333707  0.75018689  1  0.250257  0  -0.13548  -0.275607  0  3.926565  0
C  C221  1  0.16640067  0.94333702  0.74981540  1  0.25012  0  -0.135507  -0.275541  0  3.926541  0
C  C222  1  0.66640190  0.55666272  0.24981394  1  0.250601  0  -0.135453  -0.275543  0  3.926529  0
C  C223  1  0.83359798  0.05666437  0.25018501  1  0.250197  0  -0.135492  -0.275667  0  3.926622  0
N  N224  1  0.72983634  0.99869840  0.86340383  1  -1.15249  0  -0.291462  -0.075482  0  3.626799  0
N  N225  1  0.77017073  0.49869871  0.63659631  1  -1.15261  0  -0.291454  -0.075372  0  3.627017  0
N  N226  1  0.27015576  0.00130192  0.13659555  1  -1.152348  0  -0.291425  -0.075453  0  3.626815  0
N  N227  1  0.22983310  0.50130161  0.36340354  1  -1.152492  0  -0.291481  -0.075444  0  3.626986  0
N  N228  1  0.40234705  0.42511112  0.82049251  1  -1.203315  0  -0.27771  -0.025206  0  3.665122  0
N  N229  1  0.09765837  0.92510999  0.67951060  1  -1.203266  0  -0.277586  -0.025102  0  3.665494  0
N  N230  1  0.59766071  0.57488920  0.17950816  1  -1.203291  0  -0.277676  -0.025277  0  3.665232  0
N  N231  1  0.90234031  0.07489246  0.32049079  1  -1.203372  0  -0.277581  -0.025003  0  3.665203  0
O  O232  1  0.17865412  0.12888016  0.98786705  1  -1.172515  0  -0.312533  -0.550217  0  2.408949  0
O  O233  1  0.32137229  0.62888042  0.51214190  1  -1.172167  0  -0.312582  -0.550311  0  2.408946  0
O  O234  1  0.82136178  0.87111804  0.01214313  1  -1.172669  0  -0.312602  -0.550261  0  2.40899  0
O  O235  1  0.67863956  0.37112149  0.48786402  1  -1.17265  0  -0.312515  -0.55021  0  2.408961  0
O  O236  1  0.65264182  0.29134282  0.02048700  1  -1.239582  0  -0.579048  -0.753474  0  2.119525  0
O  O237  1  0.84735092  0.79134537  0.47951497  1  -1.239994  0  -0.579059  -0.753513  0  2.119479  0
O  O238  1  0.34735677  0.70865645  0.97951192  1  -1.23969  0  -0.579026  -0.753481  0  2.119559  0
O  O239  1  0.15264123  0.20865761  0.52048589  1  -1.239594  0  -0.579061  -0.753512  0  2.119521  0
O  O240  1  0.36809114  0.19015088  0.94002802  1  -1.186506  0  -0.315968  -0.577645  0  2.379914  0
O  O241  1  0.13190816  0.69014835  0.55996508  1  -1.187107  0  -0.316022  -0.577709  0  2.3801  0
O  O242  1  0.63189825  0.80984786  0.05996818  1  -1.186665  0  -0.316052  -0.577789  0  2.379769  0
O  O243  1  0.86807725  0.30985091  0.44002882  1  -1.18709  0  -0.315875  -0.577561  0  2.379989  0
O  O244  1  0.14989301  0.87093862  0.97060201  1  -1.175364  0  -0.331234  -0.563813  0  2.36051  0
O  O245  1  0.35010098  0.37093688  0.52939554  1  -1.175298  0  -0.331238  -0.563824  0  2.360573  0
O  O246  1  0.85009774  0.12906118  0.02939578  1  -1.175017  0  -0.331167  -0.563746  0  2.360488  0
O  O247  1  0.64989495  0.62906450  0.47060169  1  -1.175286  0  -0.331206  -0.563763  0  2.360559  0
O  O248  1  0.27354012  0.81532479  0.89405491  1  -1.186417  0  -0.321894  -0.54853  0  2.153662  0
O  O249  1  0.22645699  0.31532427  0.60594371  1  -1.18648  0  -0.321893  -0.548487  0  2.153705  0
O  O250  1  0.72645851  0.18467501  0.10594501  1  -1.186372  0  -0.321906  -0.548526  0  2.15362  0
O  O251  1  0.77354028  0.68467658  0.39405462  1  -1.186567  0  -0.321941  -0.548516  0  2.153755  0
O  O252  1  0.60656358  0.75638942  0.56396606  1  -1.172918  0  -0.319271  -0.564749  0  2.336207  0
O  O253  1  0.89343892  0.25638505  0.93602916  1  -1.173011  0  -0.319241  -0.564676  0  2.336188  0
O  O254  1  0.39344930  0.24361250  0.43603208  1  -1.17318  0  -0.319248  -0.564771  0  2.336153  0
O  O255  1  0.10656347  0.74361209  0.06396664  1  -1.172927  0  -0.319272  -0.564728  0  2.33611  0
O  O256  1  0.37112188  0.82806042  0.55269910  1  -1.198624  0  -0.316102  -0.582761  0  2.336376  0
O  O257  1  0.12888040  0.32805940  0.94730184  1  -1.198561  0  -0.316109  -0.582842  0  2.336286  0
O  O258  1  0.62888843  0.17193831  0.44730030  1  -1.198689  0  -0.316114  -0.582843  0  2.336277  0
O  O259  1  0.87112345  0.67193827  0.05269850  1  -1.1986  0  -0.316087  -0.582814  0  2.33613  0
O  O260  1  0.61479771  0.24716864  0.59431963  1  -1.180163  0  -0.318607  -0.568456  0  2.423031  0
O  O261  1  0.88519587  0.74717269  0.90567884  1  -1.180284  0  -0.318568  -0.56848  0  2.422992  0
O  O262  1  0.38519052  0.75283009  0.40568041  1  -1.180124  0  -0.318592  -0.568353  0  2.422973  0
O  O263  1  0.11479748  0.25282657  0.09431917  1  -1.180171  0  -0.318686  -0.568534  0  2.423169  0
O  O264  1  0.86927206  0.20048198  0.57773751  1  -1.166832  0  -0.310043  -0.55068  0  2.353144  0
O  O265  1  0.63072584  0.70048138  0.92226109  1  -1.166738  0  -0.310059  -0.550684  0  2.353033  0
O  O266  1  0.13071485  0.79951357  0.42226193  1  -1.167015  0  -0.309895  -0.550426  0  2.35314  0
O  O267  1  0.36927535  0.29950886  0.07773756  1  -1.166859  0  -0.310069  -0.550655  0  2.353067  0
O  O268  1  0.44982954  0.35032249  0.90906295  1  -1.184525  0  -0.308735  -0.529651  0  2.343507  0
O  O269  1  0.05017015  0.85031826  0.59094404  1  -1.184344  0  -0.308685  -0.529659  0  2.343544  0
O  O270  1  0.55017044  0.64968101  0.09093855  1  -1.184463  0  -0.30873  -0.529651  0  2.343529  0
O  O271  1  0.94984147  0.14968684  0.40905547  1  -1.184412  0  -0.308704  -0.52967  0  2.343652  0
