# generated using pymatgen
data_CuH7C9N2
_symmetry_space_group_name_H-M   'P 1'
_cell_length_a   31.86165346
_cell_length_b   35.03217592
_cell_length_c   35.10715407
_cell_angle_alpha   94.78132588
_cell_angle_beta   90.49880832
_cell_angle_gamma   90.73551392
_symmetry_Int_Tables_number   1
_chemical_formula_structural   CuH7C9N2
_chemical_formula_sum   'Cu12 H84 C108 N24'
_cell_volume   39044.54943031
_cell_formula_units_Z   12
loop_
 _symmetry_equiv_pos_site_id
 _symmetry_equiv_pos_as_xyz
  1  'x, y, z'
loop_
 _atom_site_type_symbol
 _atom_site_label
 _atom_site_symmetry_multiplicity
 _atom_site_fract_x
 _atom_site_fract_y
 _atom_site_fract_z
 _atom_site_occupancy
 _atom_site_pbe_bader_charge
 _atom_site_pbe_bader_spin_density
 _atom_site_pbe_cm5_charge
 _atom_site_pbe_ddec_charge
 _atom_site_pbe_ddec_spin_density
 _atom_site_pbe_ddec_sum_bond_order
 _atom_site_pbe_magmom
Cu  Cu0  1  0.87089066  0.10049501  0.13907448  1  0.545526  0  0.489274  0.206869  0  2.129819  0
Cu  Cu1  1  0.84036641  0.12582183  0.05937360  1  0.54319  0  0.48389  0.202743  0  2.117503  0
Cu  Cu2  1  0.91872073  0.16816996  0.10271128  1  0.542174  0  0.483194  0.204522  0  2.105533  0
Cu  Cu3  1  0.12904248  0.41094869  0.65978026  1  0.543004  0  0.486536  0.204145  0  2.124772  0
Cu  Cu4  1  0.15952259  0.37823055  0.57794650  1  0.544461  0  0.484964  0.204077  0  2.113562  0
Cu  Cu5  1  0.09171804  0.33205763  0.62322080  1  0.543823  0  0.485952  0.204794  0  2.117871  0
Cu  Cu6  1  0.37139069  0.90612991  0.36059122  1  0.540433  0  0.487524  0.205731  0  2.125907  0
Cu  Cu7  1  0.33614905  0.87210281  0.43464434  1  0.542318  0  0.485283  0.204881  0  2.116598  0
Cu  Cu8  1  0.41367810  0.83261957  0.39069545  1  0.539875  0  0.483443  0.20279  0  2.114211  0
Cu  Cu9  1  0.62538764  0.58639805  0.84484189  1  0.54354  0  0.487399  0.205092  0  2.129834  0
Cu  Cu10  1  0.66389616  0.62294568  0.92345188  1  0.544135  0  0.483548  0.202201  0  2.114611  0
Cu  Cu11  1  0.58999083  0.66452287  0.88182541  1  0.544324  0  0.485739  0.205332  0  2.115336  0
H  H12  1  0.37597160  0.58595558  0.67324834  1  0.038134  0  0.096761  0.095756  0  1.019796  0
H  H13  1  0.43303400  0.68584053  0.63066126  1  0.035805  0  0.097299  0.09759  0  1.01539  0
H  H14  1  0.32340165  0.63367121  0.57460299  1  0.059451  0  0.09721  0.097766  0  1.017109  0
H  H15  1  0.62087178  0.92468312  0.19292862  1  0.044139  0  0.096876  0.096755  0  1.017624  0
H  H16  1  0.56806596  0.82174538  0.13495205  1  0.05082  0  0.097331  0.098341  0  1.016127  0
H  H17  1  0.67443520  0.87734275  0.08744825  1  0.059686  0  0.097514  0.098783  0  1.014758  0
H  H18  1  0.82313750  0.37129001  0.92488866  1  0.021215  0  0.097107  0.098983  0  1.006255  0
H  H19  1  0.93180059  0.32000657  0.87061616  1  0.020925  0  0.097164  0.096655  0  1.026317  0
H  H20  1  0.87617458  0.41871906  0.82639828  1  0.031212  0  0.097031  0.097624  0  1.015364  0
H  H21  1  0.12341549  0.07872579  0.30553232  1  0.044904  0  0.096954  0.097212  0  1.016569  0
H  H22  1  0.07863851  0.18462436  0.36076403  1  0.040436  0  0.097361  0.098834  0  1.013373  0
H  H23  1  0.17392033  0.12162792  0.41528361  1  0.048613  0  0.097878  0.099811  0  1.011912  0
H  H24  1  0.80667984  0.03289711  0.15061665  1  0.062316  0  0.120428  0.1114  0  0.990903  0
H  H25  1  0.77432111  0.05826115  0.03535790  1  0.090228  0  0.120779  0.113319  0  0.988316  0
H  H26  1  0.99670857  0.18081550  0.16088605  1  0.078778  0  0.120449  0.112779  0  0.986945  0
H  H27  1  0.92805235  0.09017648  0.21098459  1  0.083259  0  0.120604  0.110366  0  0.991847  0
H  H28  1  0.82759389  0.17898925  0.99145083  1  0.10259  0  0.120675  0.113048  0  0.987281  0
H  H29  1  0.93555142  0.23482645  0.04893240  1  0.088989  0  0.120446  0.110257  0  0.991834  0
H  H30  1  0.18809063  0.48368789  0.67444143  1  0.1134  0  0.120265  0.110331  0  0.992326  0
H  H31  1  0.23027928  0.44030825  0.56222376  1  0.106615  0  0.120693  0.112984  0  0.988176  0
H  H32  1  0.02629440  0.31255495  0.68673705  1  0.091157  0  0.120558  0.11081  0  0.991396  0
H  H33  1  0.07513544  0.42207160  0.73553404  1  0.073964  0  0.120523  0.112624  0  0.987139  0
H  H34  1  0.16441938  0.32473472  0.50097370  1  0.105747  0  0.120397  0.110399  0  0.99181  0
H  H35  1  0.07686719  0.25931697  0.56431683  1  0.097745  0  0.120541  0.112949  0  0.986248  0
H  H36  1  0.30947733  0.97524540  0.35299891  1  0.096579  0  0.120191  0.111056  0  0.990879  0
H  H37  1  0.26734794  0.93459183  0.45962628  1  0.107088  0  0.120477  0.113306  0  0.987276  0
H  H38  1  0.48768097  0.81944125  0.33048465  1  0.079939  0  0.120806  0.113602  0  0.987925  0
H  H39  1  0.43016673  0.92078899  0.29137353  1  0.089304  0  0.120407  0.110201  0  0.992347  0
H  H40  1  0.32156340  0.81500839  0.49843990  1  0.08892  0  0.120252  0.110457  0  0.99156  0
H  H41  1  0.42897179  0.76273823  0.44113856  1  0.083035  0  0.120482  0.112698  0  0.987977  0
H  H42  1  0.68263581  0.51423819  0.82944606  1  0.108613  0  0.120478  0.110099  0  0.992122  0
H  H43  1  0.73857672  0.56490613  0.93507261  1  0.098431  0  0.120497  0.112994  0  0.987274  0
H  H44  1  0.52782666  0.68624662  0.81573162  1  0.107502  0  0.120721  0.111156  0  0.991886  0
H  H45  1  0.56949349  0.57480475  0.76920536  1  0.100322  0  0.120566  0.112561  0  0.986615  0
H  H46  1  0.67421043  0.67851690  0.99930964  1  0.093651  0  0.120587  0.112828  0  0.987533  0
H  H47  1  0.57114780  0.73250977  0.94411715  1  0.093527  0  0.120283  0.110051  0  0.991046  0
H  H48  1  0.69650501  0.93800278  0.08415382  1  0.028962  0  0.098903  0.096275  0  0.994729  0
H  H49  1  0.73765275  0.99489380  0.14676640  1  0.039036  0  0.09731  0.095362  0  0.991207  0
H  H50  1  0.68492931  0.95225782  0.17118651  1  0.064545  0  0.09596  0.094945  0  0.99936  0
H  H51  1  0.73933988  0.98880704  0.05870573  1  0.041393  0  0.099123  0.099486  0  0.992017  0
H  H52  1  0.31058740  0.56770588  0.67968278  1  0.037081  0  0.09612  0.090876  0  1.00276  0
H  H53  1  0.25044124  0.52488065  0.67710303  1  0.047834  0  0.09482  0.091568  0  0.998576  0
H  H54  1  0.29572707  0.57277562  0.59370234  1  0.060288  0  0.09714  0.09729  0  1.001652  0
H  H55  1  0.27212415  0.50726768  0.59238883  1  0.042646  0  0.099716  0.100177  0  0.994696  0
H  H56  1  0.19375019  0.06007516  0.41726636  1  0.040462  0  0.098932  0.095962  0  0.994601  0
H  H57  1  0.23616935  0.00686597  0.35387160  1  0.054084  0  0.097393  0.095723  0  0.991244  0
H  H58  1  0.18456902  0.04934089  0.32961574  1  0.046673  0  0.096187  0.09513  0  0.998246  0
H  H59  1  0.23499322  0.00747908  0.44166473  1  0.043031  0  0.098761  0.098954  0  0.992208  0
H  H60  1  0.80902107  0.43542313  0.81874352  1  0.057801  0  0.096709  0.092822  0  0.999453  0
H  H61  1  0.74728345  0.47605042  0.82245085  1  0.044357  0  0.095253  0.092309  0  0.996474  0
H  H62  1  0.79640589  0.43158898  0.90495593  1  0.055886  0  0.096712  0.095736  0  1.004674  0
H  H63  1  0.77694524  0.49747474  0.90511335  1  0.056769  0  0.099389  0.0993  0  0.996015  0
H  H64  1  0.05529662  0.07502745  0.28730982  1  0.027772  0  0.096688  0.091792  0  0.999573  0
H  H65  1  0.99441466  0.07961425  0.24582494  1  0.053719  0  0.095244  0.092789  0  0.99665  0
H  H66  1  0.05334186  0.16294112  0.29599375  1  0.05533  0  0.096957  0.096907  0  1.00277  0
H  H67  1  0.03241650  0.15746502  0.22901925  1  0.062295  0  0.099308  0.099541  0  0.995578  0
H  H68  1  0.46100252  0.69346483  0.68803777  1  0.060929  0  0.096545  0.092159  0  1.001933  0
H  H69  1  0.50112247  0.69306523  0.74764378  1  0.028503  0  0.095336  0.092557  0  0.99734  0
H  H70  1  0.43720370  0.61096534  0.70357139  1  0.016272  0  0.095773  0.093813  0  1.00773  0
H  H71  1  0.50526821  0.60617330  0.72716248  1  0.057333  0  0.098658  0.097757  0  0.997105  0
H  H72  1  0.95064560  0.30895869  0.80947895  1  0.036887  0  0.096614  0.09288  0  1.000172  0
H  H73  1  0.99070063  0.30832868  0.75032055  1  0.040506  0  0.095053  0.092101  0  0.996755  0
H  H74  1  0.93995797  0.39441637  0.79889455  1  0.03475  0  0.096452  0.095553  0  1.005076  0
H  H75  1  0.00981720  0.39272600  0.77642146  1  0.044825  0  0.098946  0.098658  0  0.996504  0
H  H76  1  0.55499247  0.93102529  0.21237837  1  0.05852  0  0.096565  0.092073  0  1.000492  0
H  H77  1  0.49489167  0.92793639  0.25445749  1  0.044132  0  0.094719  0.091409  0  0.997704  0
H  H78  1  0.54267363  0.84388314  0.19828947  1  0.034655  0  0.096793  0.096193  0  1.003863  0
H  H79  1  0.52450844  0.84627511  0.26488132  1  0.05764  0  0.09943  0.099433  0  0.994697  0
H  H80  1  0.94405368  0.30613577  0.93193392  1  0.044138  0  0.097015  0.093946  0  0.998177  0
H  H81  1  0.94359410  0.26881309  0.98810824  1  0.042868  0  0.09524  0.092345  0  0.997057  0
H  H82  1  0.84918554  0.31125293  0.94555612  1  0.021795  0  0.09622  0.094733  0  1.004926  0
H  H83  1  0.85467126  0.24532439  0.95986249  1  0.027648  0  0.098811  0.098408  0  0.997249  0
H  H84  1  0.31285217  0.69546977  0.56353952  1  0.045785  0  0.096811  0.09259  0  0.999322  0
H  H85  1  0.31387308  0.75251545  0.52806550  1  0.040807  0  0.095205  0.0929  0  0.997331  0
H  H86  1  0.40802845  0.70917765  0.57106442  1  0.08494  0  0.09661  0.095938  0  1.003926  0
H  H87  1  0.40314453  0.72744189  0.50615569  1  0.057712  0  0.099088  0.099034  0  0.995394  0
H  H88  1  0.55609121  0.80556995  0.07146021  1  0.036964  0  0.097004  0.093048  0  0.998687  0
H  H89  1  0.55845056  0.76567571  0.01035530  1  0.064857  0  0.095452  0.093469  0  0.995703  0
H  H90  1  0.65082651  0.81479390  0.05905113  1  0.055818  0  0.096537  0.096086  0  1.00422  0
H  H91  1  0.64706618  0.74710870  0.03801997  1  0.039119  0  0.098836  0.098236  0  0.99605  0
H  H92  1  0.11871566  0.23370950  0.39088913  1  0.053617  0  0.096392  0.092213  0  1.000058  0
H  H93  1  0.13639914  0.28294576  0.44309683  1  0.053104  0  0.095597  0.092957  0  0.995732  0
H  H94  1  0.14149768  0.17778286  0.45042427  1  0.07381  0  0.096682  0.096265  0  1.003489  0
H  H95  1  0.10198913  0.22256139  0.49372977  1  0.055717  0  0.099009  0.098834  0  0.996546  0
C  C96  1  0.34490835  0.60695713  0.62423597  1  0.029371  0  -0.016914  0.115567  0  4.092856  0
C  C97  1  0.37592869  0.60806779  0.65310784  1  -0.044552  0  -0.092117  -0.183528  0  3.905514  0
C  C98  1  0.40747809  0.63655282  0.65641710  1  -0.064021  0  -0.017872  0.113649  0  4.094039  0
C  C99  1  0.40822763  0.66397613  0.62929237  1  -0.003425  0  -0.091667  -0.182468  0  3.897725  0
C  C100  1  0.37751397  0.66405639  0.60037894  1  0.026672  0  -0.017334  0.114539  0  4.089323  0
C  C101  1  0.34655964  0.63485176  0.59777608  1  -0.062223  0  -0.0924  -0.185209  0  3.905411  0
C  C102  1  0.65046769  0.90553750  0.13991267  1  -0.018619  0  -0.01797  0.116554  0  4.093033  0
C  C103  1  0.62022706  0.90323622  0.16852533  1  -0.017815  0  -0.092052  -0.184779  0  3.90333  0
C  C104  1  0.58969760  0.87372562  0.16675362  1  -0.032053  0  -0.017183  0.115602  0  4.091874  0
C  C105  1  0.59067692  0.84548162  0.13595276  1  -0.037105  0  -0.092818  -0.186664  0  3.907694  0
C  C106  1  0.62048602  0.84692764  0.10673071  1  0.003239  0  -0.017661  0.114433  0  4.09258  0
C  C107  1  0.65045857  0.87678706  0.10942060  1  -0.072501  0  -0.091956  -0.183862  0  3.902047  0
C  C108  1  0.84505595  0.39802186  0.87537232  1  -0.034082  0  -0.017686  0.115156  0  4.093345  0
C  C109  1  0.84663638  0.37062007  0.90237130  1  -0.04204  0  -0.092185  -0.186386  0  3.912567  0
C  C110  1  0.87795688  0.34261606  0.90142235  1  0.018139  0  -0.017042  0.113687  0  4.091527  0
C  C111  1  0.90759501  0.34178052  0.87197477  1  -0.052913  0  -0.092536  -0.182779  0  3.898656  0
C  C112  1  0.90686535  0.36866102  0.84436261  1  0.049419  0  -0.017219  0.113917  0  4.091646  0
C  C113  1  0.87604661  0.39708195  0.84704318  1  -0.036288  0  -0.092145  -0.184077  0  3.902833  0
C  C114  1  0.15147215  0.09576165  0.36052897  1  0.003182  0  -0.01694  0.11678  0  4.090324  0
C  C115  1  0.12379763  0.10022241  0.32990330  1  -0.055214  0  -0.092224  -0.18646  0  3.906486  0
C  C116  1  0.09660971  0.13156384  0.32992875  1  -0.031378  0  -0.017111  0.115597  0  4.093844  0
C  C117  1  0.09946926  0.16010890  0.36042375  1  -0.044505  0  -0.09275  -0.186748  0  3.907413  0
C  C118  1  0.12705662  0.15671823  0.39145792  1  0.010878  0  -0.017196  0.11559  0  4.090951  0
C  C119  1  0.15195189  0.12394649  0.39158500  1  -0.035647  0  -0.0924  -0.18474  0  3.899083  0
C  C120  1  0.80294853  0.04457071  0.12313327  1  0.407883  0  0.007557  -0.053916  0  3.941388  0
C  C121  1  0.77741854  0.03161700  0.09161154  1  0.046223  0  -0.039837  0.016922  0  4.136957  0
C  C122  1  0.78712358  0.05715823  0.06398761  1  0.400388  0  0.005969  -0.059839  0  3.953612  0
C  C123  1  0.97484800  0.15866489  0.16831386  1  0.387749  0  0.006801  -0.057638  0  3.949096  0
C  C124  1  0.97687570  0.13481031  0.19861150  1  0.056784  0  -0.040011  0.011169  0  4.135417  0
C  C125  1  0.94006986  0.11215056  0.19379949  1  0.417116  0  0.008197  -0.050746  0  3.940567  0
C  C126  1  0.85388076  0.18814306  0.01004252  1  0.398997  0  0.005676  -0.05927  0  3.952237  0
C  C127  1  0.88217334  0.21899118  0.00748832  1  0.040211  0  -0.039559  0.013489  0  4.132128  0
C  C128  1  0.90926847  0.21649462  0.03909754  1  0.378056  0  0.008385  -0.050936  0  3.935388  0
C  C129  1  0.19377173  0.46807289  0.64701750  1  0.405284  0  0.008351  -0.052006  0  3.937664  0
C  C130  1  0.22304276  0.47547174  0.61859090  1  0.054522  0  -0.03881  0.013342  0  4.135273  0
C  C131  1  0.21502605  0.44597677  0.58960290  1  0.365406  0  0.006065  -0.059174  0  3.953075  0
C  C132  1  0.04302104  0.33940423  0.69385921  1  0.401525  0  0.007651  -0.052168  0  3.937735  0
C  C133  1  0.03859036  0.36648273  0.72552755  1  0.029695  0  -0.039123  0.012918  0  4.13576  0
C  C134  1  0.06778542  0.39549872  0.71849652  1  0.398153  0  0.006779  -0.057382  0  3.952119  0
C  C135  1  0.14288384  0.31367153  0.52128345  1  0.396103  0  0.008137  -0.05227  0  3.941288  0
C  C136  1  0.11912944  0.27934924  0.51853242  1  0.057981  0  -0.039423  0.013472  0  4.136534  0
C  C137  1  0.09862092  0.28007370  0.55390273  1  0.371823  0  0.006399  -0.057524  0  3.952568  0
C  C138  1  0.30337916  0.95994467  0.37804867  1  0.417026  0  0.007839  -0.052821  0  3.940676  0
C  C139  1  0.27487329  0.96818107  0.40795868  1  0.024044  0  -0.040002  0.015629  0  4.134278  0
C  C140  1  0.28256212  0.93961152  0.43292218  1  0.381034  0  0.005455  -0.059952  0  3.954917  0
C  C141  1  0.46864164  0.84410698  0.32571391  1  0.386044  0  0.006692  -0.059055  0  3.951882  0
C  C142  1  0.47291231  0.87065975  0.29798599  1  0.099698  0  -0.03969  0.01299  0  4.137413  0
C  C143  1  0.43956919  0.89604947  0.30586195  1  0.378905  0  0.008145  -0.051445  0  3.941675  0
C  C144  1  0.34756571  0.80664172  0.47994941  1  0.42915  0  0.007754  -0.052632  0  3.939667  0
C  C145  1  0.37499447  0.77553300  0.48120599  1  0.006915  0  -0.039071  0.013799  0  4.133316  0
C  C146  1  0.40267051  0.78025106  0.45087219  1  0.404095  0  0.006373  -0.057839  0  3.953145  0
C  C147  1  0.69160879  0.53150653  0.85539821  1  0.377595  0  0.008137  -0.049746  0  3.938619  0
C  C148  1  0.72471155  0.52667836  0.88134477  1  0.015616  0  -0.040273  0.010246  0  4.137119  0
C  C149  1  0.71992403  0.55734566  0.90946183  1  0.403829  0  0.007006  -0.057359  0  3.95142  0
C  C150  1  0.54288387  0.65889554  0.80928529  1  0.399169  0  0.008268  -0.052598  0  3.939836  0
C  C151  1  0.53730459  0.63185848  0.77756032  1  0.027618  0  -0.039714  0.012873  0  4.135157  0
C  C152  1  0.56376570  0.60171932  0.78585775  1  0.384297  0  0.006563  -0.057098  0  3.952024  0
C  C153  1  0.64925917  0.68703385  0.98067159  1  0.372456  0  0.005816  -0.058327  0  3.953091  0
C  C154  1  0.62145754  0.71785636  0.98610072  1  0.052208  0  -0.039339  0.01224  0  4.135428  0
C  C155  1  0.59630567  0.71441114  0.95276906  1  0.400865  0  0.008351  -0.050199  0  3.937176  0
C  C156  1  0.68060120  0.93732836  0.14271302  1  -0.041112  0  -0.097412  -0.145274  0  3.997716  0
C  C157  1  0.70186882  0.95101566  0.11327522  1  -0.071312  0  -0.101652  -0.091952  0  4.088318  0
C  C158  1  0.73055518  0.98298390  0.11753023  1  -0.013899  0  -0.104888  -0.100104  0  4.092579  0
C  C159  1  0.74811765  0.99971927  0.08786441  1  -0.03227  0  -0.097024  -0.128794  0  4.044235  0
C  C160  1  0.31140832  0.57801554  0.62155696  1  -0.002171  0  -0.098052  -0.146287  0  3.989102  0
C  C161  1  0.29749260  0.55908882  0.65130497  1  -0.084852  0  -0.101213  -0.087303  0  4.070583  0
C  C162  1  0.26578516  0.52914709  0.64997684  1  -0.057628  0  -0.107162  -0.10497  0  4.073447  0
C  C163  1  0.25489822  0.50517706  0.61897500  1  -0.065389  0  -0.094748  -0.119658  0  4.0355  0
C  C164  1  0.17959686  0.06316208  0.35835662  1  0.002562  0  -0.097464  -0.144705  0  3.999037  0
C  C165  1  0.19951689  0.04824409  0.38794666  1  -0.081298  0  -0.101769  -0.090815  0  4.087438  0
C  C166  1  0.22802658  0.01685529  0.38326549  1  -0.046212  0  -0.105335  -0.102617  0  4.09382  0
C  C167  1  0.24482901  0.99877337  0.41244456  1  -0.058942  0  -0.096608  -0.127055  0  4.040388  0
C  C168  1  0.81159137  0.42614141  0.87721821  1  0.009434  0  -0.097716  -0.144823  0  3.996339  0
C  C169  1  0.79689769  0.44415856  0.84717602  1  -0.106182  0  -0.101421  -0.089974  0  4.070171  0
C  C170  1  0.76510116  0.47329624  0.84885699  1  0.001426  0  -0.107635  -0.104619  0  4.068908  0
C  C171  1  0.75694516  0.49803043  0.87967759  1  -0.100667  0  -0.094162  -0.11919  0  4.036895  0
C  C172  1  0.06481173  0.13424234  0.30011633  1  -0.045206  0  -0.097276  -0.144743  0  3.989579  0
C  C173  1  0.04673743  0.10362735  0.27978425  1  -0.053556  0  -0.101011  -0.087251  0  4.065687  0
C  C174  1  0.01506724  0.10484848  0.25019104  1  -0.043168  0  -0.106649  -0.105069  0  4.071283  0
C  C175  1  0.00973578  0.13364784  0.22708523  1  -0.061424  0  -0.094764  -0.11996  0  4.035888  0
C  C176  1  0.43749614  0.63677311  0.68799902  1  -0.003578  0  -0.096937  -0.141796  0  3.996116  0
C  C177  1  0.46327071  0.66623495  0.70102269  1  -0.10961  0  -0.102044  -0.089425  0  4.065083  0
C  C178  1  0.49265499  0.66538645  0.73256374  1  0.028411  0  -0.107717  -0.106639  0  4.071729  0
C  C179  1  0.51067401  0.63339253  0.74426668  1  -0.09211  0  -0.094633  -0.11885  0  4.03658  0
C  C180  1  0.93648206  0.36774231  0.81280840  1  -0.03756  0  -0.097146  -0.143931  0  3.993204  0
C  C181  1  0.95750782  0.33651616  0.79816048  1  -0.063362  0  -0.101737  -0.08977  0  4.065374  0
C  C182  1  0.98710962  0.33585233  0.76708212  1  -0.054643  0  -0.107172  -0.104197  0  4.068695  0
C  C183  1  0.01087819  0.36609827  0.75781408  1  0.010137  0  -0.095674  -0.121337  0  4.040852  0
C  C184  1  0.55741034  0.87195739  0.19581892  1  -0.003078  0  -0.097046  -0.144204  0  3.991582  0
C  C185  1  0.54325754  0.90256581  0.21803221  1  -0.107266  0  -0.101887  -0.088896  0  4.069563  0
C  C186  1  0.51243721  0.90157342  0.24790177  1  -0.042878  0  -0.106716  -0.104419  0  4.071289  0
C  C187  1  0.50471687  0.87154809  0.26902776  1  -0.066408  0  -0.094977  -0.11997  0  4.03483  0
C  C188  1  0.87894919  0.31580880  0.93114582  1  -0.053496  0  -0.097752  -0.143548  0  3.993211  0
C  C189  1  0.91361812  0.29816481  0.94338043  1  -0.005461  0  -0.101143  -0.090269  0  4.065544  0
C  C190  1  0.91433158  0.27049317  0.97179093  1  -0.031103  0  -0.107078  -0.103957  0  4.067134  0
C  C191  1  0.88244355  0.24592355  0.97848417  1  -0.038  0  -0.095514  -0.121564  0  4.038022  0
C  C192  1  0.37789037  0.69454093  0.57442485  1  -0.077229  0  -0.096937  -0.144285  0  3.991315  0
C  C193  1  0.34352700  0.70732239  0.55655807  1  -0.070112  0  -0.10191  -0.089583  0  4.068015  0
C  C194  1  0.34315188  0.73674644  0.53000449  1  -0.090728  0  -0.10758  -0.106117  0  4.072045  0
C  C195  1  0.37515766  0.74526564  0.50674346  1  0.004172  0  -0.095172  -0.120655  0  4.035649  0
C  C196  1  0.62085692  0.81853179  0.07383470  1  -0.070096  0  -0.097963  -0.146161  0  3.996618  0
C  C197  1  0.58681866  0.79852862  0.05928307  1  -0.037497  0  -0.10121  -0.088462  0  4.066983  0
C  C198  1  0.58725011  0.76937619  0.02757659  1  -0.051697  0  -0.107189  -0.106513  0  4.070841  0
C  C199  1  0.61985095  0.74581420  0.01868813  1  -0.023685  0  -0.095335  -0.119843  0  4.037936  0
C  C200  1  0.13089416  0.18674137  0.42282874  1  -0.049115  0  -0.097182  -0.145546  0  3.994321  0
C  C201  1  0.12455330  0.22452232  0.41948955  1  -0.117743  0  -0.100855  -0.08838  0  4.068939  0
C  C202  1  0.12654395  0.25445373  0.45047517  1  0.012416  0  -0.107316  -0.104697  0  4.067949  0
C  C203  1  0.11564040  0.25004612  0.48714326  1  -0.10251  0  -0.095512  -0.121885  0  4.039112  0
N  N204  1  0.81583176  0.08333574  0.07808161  1  -0.788136  0  -0.338727  -0.140478  0  3.773256  0
N  N205  1  0.82583623  0.07529800  0.11474092  1  -0.764096  0  -0.339624  -0.141056  0  3.777927  0
N  N206  1  0.91833937  0.12166716  0.16301475  1  -0.77901  0  -0.338742  -0.139604  0  3.779895  0
N  N207  1  0.93995268  0.15049901  0.14700546  1  -0.757663  0  -0.336978  -0.140344  0  3.763472  0
N  N208  1  0.89798144  0.18649201  0.05856348  1  -0.779179  0  -0.335773  -0.138847  0  3.767415  0
N  N209  1  0.86359862  0.16875761  0.04044349  1  -0.764439  0  -0.33807  -0.14012  0  3.771893  0
N  N210  1  0.18381427  0.42282999  0.60011035  1  -0.772745  0  -0.337972  -0.140646  0  3.769881  0
N  N211  1  0.17064754  0.43666040  0.63579614  1  -0.792401  0  -0.33765  -0.137195  0  3.77631  0
N  N212  1  0.08797896  0.38632053  0.68550476  1  -0.768136  0  -0.340797  -0.143222  0  3.776484  0
N  N213  1  0.07251971  0.35146004  0.67020439  1  -0.77888  0  -0.335543  -0.136213  0  3.773148  0
N  N214  1  0.10903461  0.31235745  0.57571361  1  -0.767769  0  -0.339929  -0.143817  0  3.776242  0
N  N215  1  0.13666730  0.33316374  0.55543588  1  -0.79201  0  -0.336295  -0.136648  0  3.772485  0
N  N216  1  0.31286129  0.91608950  0.41877616  1  -0.785541  0  -0.339108  -0.141825  0  3.775141  0
N  N217  1  0.32599370  0.92895476  0.38482986  1  -0.778068  0  -0.338336  -0.140278  0  3.779217  0
N  N218  1  0.41763998  0.88545570  0.33592455  1  -0.774371  0  -0.33732  -0.137777  0  3.780225  0
N  N219  1  0.43570916  0.85322066  0.34839984  1  -0.777723  0  -0.338768  -0.141501  0  3.771276  0
N  N220  1  0.39227906  0.81137673  0.43289070  1  -0.766202  0  -0.338506  -0.141763  0  3.772594  0
N  N221  1  0.35808708  0.82781934  0.45110046  1  -0.784646  0  -0.336544  -0.137797  0  3.773968  0
N  N222  1  0.68693672  0.57880156  0.90071135  1  -0.785882  0  -0.338268  -0.140386  0  3.771901  0
N  N223  1  0.66934779  0.56261887  0.86714265  1  -0.775667  0  -0.338032  -0.139364  0  3.780242  0
N  N224  1  0.58364997  0.61030658  0.81956811  1  -0.788263  0  -0.340707  -0.143358  0  3.779622  0
N  N225  1  0.57054574  0.64580022  0.83416539  1  -0.775618  0  -0.335739  -0.136769  0  3.770441  0
N  N226  1  0.60819404  0.68391226  0.92966238  1  -0.782421  0  -0.336666  -0.139394  0  3.771986  0
N  N227  1  0.64104359  0.66676856  0.94704108  1  -0.783885  0  -0.338102  -0.14016  0  3.771811  0
