# generated using pymatgen
data_Zn2H35C51N7O8
_symmetry_space_group_name_H-M   'P 1'
_cell_length_a   8.53992101
_cell_length_b   15.86363819
_cell_length_c   17.86731919
_cell_angle_alpha   94.16170628
_cell_angle_beta   89.99996762
_cell_angle_gamma   89.99990129
_symmetry_Int_Tables_number   1
_chemical_formula_structural   Zn2H35C51N7O8
_chemical_formula_sum   'Zn4 H70 C102 N14 O16'
_cell_volume   2414.17855183
_cell_formula_units_Z   2
loop_
 _symmetry_equiv_pos_site_id
 _symmetry_equiv_pos_as_xyz
  1  'x, y, z'
loop_
 _atom_site_type_symbol
 _atom_site_label
 _atom_site_symmetry_multiplicity
 _atom_site_fract_x
 _atom_site_fract_y
 _atom_site_fract_z
 _atom_site_occupancy
 _atom_site_pbe_bader_charge
 _atom_site_pbe_bader_spin_density
 _atom_site_pbe_cm5_charge
 _atom_site_pbe_ddec_charge
 _atom_site_pbe_ddec_spin_density
 _atom_site_pbe_ddec_sum_bond_order
 _atom_site_pbe_magmom
Zn  Zn0  1  0.61564711  0.54203474  0.95634010  1  1.305494  0  0.672237  0.850867  0  2.385562  0
Zn  Zn1  1  0.61564552  0.95796607  0.54365842  1  1.305588  0  0.672219  0.850765  0  2.385607  0
Zn  Zn2  1  0.38435174  0.45796529  0.04365997  1  1.305652  0  0.672212  0.850821  0  2.385528  0
Zn  Zn3  1  0.38435450  0.04203460  0.45634002  1  1.305552  0  0.672246  0.850857  0  2.385526  0
H  H4  1  0.38985991  0.96740008  0.77371048  1  0.085945  0  0.102001  0.103178  0  1.033476  0
H  H5  1  0.38986415  0.53260224  0.72628485  1  0.085865  0  0.102012  0.10318  0  1.033379  0
H  H6  1  0.61013426  0.03259808  0.22628611  1  0.085893  0  0.101966  0.103144  0  1.033409  0
H  H7  1  0.61013822  0.46740033  0.27371316  1  0.085942  0  0.102007  0.103199  0  1.033379  0
H  H8  1  0.19663438  0.98527261  0.87954945  1  0.070471  0  0.105273  0.11537  0  0.995831  0
H  H9  1  0.19663529  0.51472608  0.62044792  1  0.070399  0  0.105286  0.11538  0  0.9958  0
H  H10  1  0.80336331  0.01472427  0.12044873  1  0.070287  0  0.105293  0.115402  0  0.995799  0
H  H11  1  0.80336474  0.48527522  0.37955112  1  0.070386  0  0.105293  0.115395  0  0.995795  0
H  H12  1  0.84809982  0.06453661  0.72495842  1  0.065431  0  0.111108  0.12441  0  0.99275  0
H  H13  1  0.84810388  0.43546845  0.77504344  1  0.065451  0  0.11114  0.124491  0  0.992654  0
H  H14  1  0.15189670  0.93546846  0.27504480  1  0.065399  0  0.11113  0.124486  0  0.992642  0
H  H15  1  0.15189849  0.56453410  0.22495737  1  0.065369  0  0.111116  0.124442  0  0.992696  0
H  H16  1  0.03934419  0.04396322  0.62055038  1  0.084571  0  0.104793  0.106973  0  1.027138  0
H  H17  1  0.03935391  0.45604387  0.87945073  1  0.084095  0  0.104746  0.106822  0  1.027154  0
H  H18  1  0.96064530  0.95604185  0.37945229  1  0.084319  0  0.104754  0.106895  0  1.02714  0
H  H19  1  0.96065197  0.54395994  0.12055017  1  0.08421  0  0.104775  0.106913  0  1.027107  0
H  H20  1  0.59074728  0.74976614  0.90795593  1  0.09885  0  0.103172  0.108454  0  1.02151  0
H  H21  1  0.59075450  0.75023282  0.59203967  1  0.098629  0  0.103175  0.108492  0  1.021548  0
H  H22  1  0.40924923  0.25023264  0.09204126  1  0.098503  0  0.103191  0.108511  0  1.021514  0
H  H23  1  0.40925373  0.24976659  0.40795756  1  0.098879  0  0.103168  0.108457  0  1.021522  0
H  H24  1  0.80101725  0.79779899  0.99705678  1  0.097006  0  0.10356  0.102512  0  1.002566  0
H  H25  1  0.80102238  0.70219597  0.50293961  1  0.096954  0  0.103547  0.102489  0  1.002611  0
H  H26  1  0.19898044  0.20219537  0.00294066  1  0.097007  0  0.103549  0.102514  0  1.00259  0
H  H27  1  0.19898467  0.29780091  0.49705801  1  0.096993  0  0.103568  0.10253  0  1.002577  0
H  H28  1  0.52233557  0.83526133  0.80115451  1  0.088944  0  0.095471  0.092009  0  1.05886  0
H  H29  1  0.52234059  0.66474211  0.69884310  1  0.089084  0  0.095469  0.091998  0  1.05891  0
H  H30  1  0.47766094  0.16473997  0.19884454  1  0.089055  0  0.095497  0.092055  0  1.058894  0
H  H31  1  0.47766647  0.33526109  0.30115552  1  0.088998  0  0.095476  0.092026  0  1.058879  0
H  H32  1  0.94740599  0.93082834  0.97887636  1  0.090416  0  0.10199  0.107659  0  1.027683  0
H  H33  1  0.94740801  0.56916773  0.52112287  1  0.090335  0  0.101974  0.107613  0  1.027724  0
H  H34  1  0.05259521  0.06916789  0.02112401  1  0.090384  0  0.101976  0.107645  0  1.027649  0
H  H35  1  0.05259553  0.43083041  0.47887652  1  0.090415  0  0.101984  0.107629  0  1.027664  0
H  H36  1  0.66414347  0.97108568  0.78529479  1  0.07871  0  0.107171  0.116757  0  1.004717  0
H  H37  1  0.66414773  0.52891759  0.71470670  1  0.079166  0  0.107184  0.116764  0  1.004659  0
H  H38  1  0.33585422  0.02891623  0.21470710  1  0.07912  0  0.107154  0.116732  0  1.00471  0
H  H39  1  0.33585815  0.47108559  0.28529472  1  0.079226  0  0.107196  0.116798  0  1.004688  0
H  H40  1  0.64565167  0.06230816  0.95405573  1  0.078541  0  0.097472  0.108683  0  1.019993  0
H  H41  1  0.64565249  0.43769266  0.54594590  1  0.078545  0  0.097481  0.108701  0  1.01999  0
H  H42  1  0.35434484  0.93769249  0.04594663  1  0.078571  0  0.097468  0.10864  0  1.019958  0
H  H43  1  0.35434637  0.56230797  0.45405702  1  0.078551  0  0.097452  0.108673  0  1.019995  0
H  H44  1  0.00086924  0.18511503  0.82785831  1  0.06727  0  0.101499  0.114445  0  1.009975  0
H  H45  1  0.00087147  0.31488515  0.67214233  1  0.06723  0  0.101547  0.114529  0  1.009905  0
H  H46  1  0.99913196  0.81488370  0.17214560  1  0.067266  0  0.101509  0.1145  0  1.009935  0
H  H47  1  0.99913207  0.68511488  0.32785775  1  0.067269  0  0.101504  0.11446  0  1.009987  0
H  H48  1  0.52738921  0.20157859  0.98914187  1  0.09769  0  0.096518  0.097148  0  1.057941  0
H  H49  1  0.52738934  0.29842171  0.51085919  1  0.097742  0  0.096518  0.097152  0  1.057873  0
H  H50  1  0.47261082  0.79842143  0.01085876  1  0.097774  0  0.096533  0.097206  0  1.057896  0
H  H51  1  0.47261186  0.70157894  0.48914149  1  0.097695  0  0.096516  0.097162  0  1.057944  0
H  H52  1  0.87661598  0.32308271  0.86235953  1  0.07424  0  0.100424  0.100439  0  1.029559  0
H  H53  1  0.87661869  0.17691791  0.63764035  1  0.074409  0  0.100433  0.100447  0  1.029567  0
H  H54  1  0.12338522  0.67691731  0.13764167  1  0.074226  0  0.100424  0.100439  0  1.029535  0
H  H55  1  0.12338485  0.82308276  0.36235922  1  0.074244  0  0.100431  0.100448  0  1.02951  0
H  H56  1  0.92421247  0.61353316  0.03189491  1  0.144157  0  0.123238  0.119843  0  1.02991  0
H  H57  1  0.92421060  0.88646425  0.46810502  1  0.144184  0  0.123241  0.119797  0  1.029905  0
H  H58  1  0.07577937  0.38646939  0.96810646  1  0.144177  0  0.123257  0.119875  0  1.029862  0
H  H59  1  0.07578475  0.11353261  0.53189540  1  0.144151  0  0.123224  0.119857  0  1.029918  0
H  H60  1  0.77596939  0.62582291  0.80816656  1  0.143551  0  0.138053  0.104614  0  1.01772  0
H  H61  1  0.77596438  0.87417522  0.69183285  1  0.143575  0  0.138055  0.104643  0  1.017707  0
H  H62  1  0.22403180  0.37417397  0.19183217  1  0.143483  0  0.138039  0.104617  0  1.017734  0
H  H63  1  0.22403213  0.12582354  0.30816826  1  0.143611  0  0.138048  0.104616  0  1.017705  0
H  H64  1  0.14822450  0.70168796  0.95578282  1  0.121732  0  0.124538  0.123659  0  1.044478  0
H  H65  1  0.14822459  0.79831201  0.54421856  1  0.121768  0  0.124551  0.123676  0  1.04447  0
H  H66  1  0.85177084  0.29831143  0.04421777  1  0.121756  0  0.124555  0.123665  0  1.044458  0
H  H67  1  0.85177075  0.20168548  0.45578190  1  0.121757  0  0.124559  0.123678  0  1.044528  0
H  H68  1  0.85223340  0.74999902  0.75000081  1  0.113005  0  0.117748  0.128782  0  1.018994  0
H  H69  1  0.14776663  0.24999847  0.25000020  1  0.113014  0  0.117742  0.128791  0  1.018934  0
H  H70  1  0.29713581  0.68366584  0.84569485  1  0.117962  0  0.122502  0.106998  0  0.996214  0
H  H71  1  0.29713337  0.81633274  0.65430472  1  0.117986  0  0.122528  0.107063  0  0.996198  0
H  H72  1  0.70286539  0.31633229  0.15430453  1  0.117967  0  0.122523  0.107061  0  0.996156  0
H  H73  1  0.70286431  0.18366476  0.34569518  1  0.117815  0  0.122507  0.106993  0  0.996196  0
C  C74  1  0.34208550  0.99691731  0.62723057  1  1.568301  0  0.207076  0.580899  0  4.197127  0
C  C75  1  0.34209435  0.50308630  0.87276655  1  1.568771  0  0.207288  0.581287  0  4.19683  0
C  C76  1  0.65790516  0.00308336  0.37276732  1  1.568171  0  0.207206  0.581044  0  4.196985  0
C  C77  1  0.65791271  0.49691753  0.12723212  1  1.567849  0  0.207068  0.580818  0  4.197092  0
C  C78  1  0.22750402  0.00622401  0.69097554  1  0.00554  0  -0.021896  -0.044981  0  3.972362  0
C  C79  1  0.22751137  0.49378292  0.80902271  1  0.005511  0  -0.021891  -0.044912  0  3.972376  0
C  C80  1  0.77248898  0.99377792  0.30902355  1  0.0056  0  -0.021818  -0.044772  0  3.972278  0
C  C81  1  0.77249217  0.50622343  0.19097669  1  0.005427  0  -0.021911  -0.044895  0  3.972352  0
C  C82  1  0.27090562  0.98846395  0.76376480  1  -0.077413  0  -0.084243  -0.079485  0  3.980092  0
C  C83  1  0.27090991  0.51153973  0.73623290  1  -0.077594  0  -0.08425  -0.07947  0  3.98015  0
C  C84  1  0.72908972  0.01153482  0.23623407  1  -0.077612  0  -0.084209  -0.079489  0  3.980032  0
C  C85  1  0.72909363  0.48846600  0.26376590  1  -0.077332  0  -0.084231  -0.079501  0  3.980017  0
C  C86  1  0.16363877  0.99837014  0.82256734  1  0.00301  0  -0.091655  -0.163973  0  3.973595  0
C  C87  1  0.16364082  0.50163173  0.67743193  1  0.003194  0  -0.091636  -0.163968  0  3.973743  0
C  C88  1  0.83635892  0.00162989  0.17743217  1  0.003384  0  -0.091629  -0.163943  0  3.973619  0
C  C89  1  0.83636272  0.49837145  0.32256892  1  0.003062  0  -0.091647  -0.164  0  3.973582  0
C  C90  1  0.01174900  0.02620398  0.80866847  1  0.303539  0  0.089267  0.180994  0  4.033376  0
C  C91  1  0.01175304  0.47379873  0.69133178  1  0.303552  0  0.089238  0.180913  0  4.033438  0
C  C92  1  0.98824986  0.97379604  0.19133273  1  0.303327  0  0.089172  0.180808  0  4.033528  0
C  C93  1  0.98825050  0.52620509  0.30866856  1  0.303431  0  0.089181  0.180901  0  4.033391  0
C  C94  1  0.96700727  0.04345148  0.73585465  1  0.026531  0  -0.091209  -0.177091  0  3.992367  0
C  C95  1  0.96701361  0.45655284  0.76414434  1  0.0263  0  -0.091264  -0.177234  0  3.992239  0
C  C96  1  0.03298808  0.95655044  0.26414612  1  0.026453  0  -0.091194  -0.177062  0  3.992308  0
C  C97  1  0.03298993  0.54345035  0.23585484  1  0.026436  0  -0.091198  -0.177088  0  3.992411  0
C  C98  1  0.07441592  0.03319982  0.67759840  1  -0.07488  0  -0.08415  -0.079502  0  3.983964  0
C  C99  1  0.07442451  0.46680726  0.82240046  1  -0.074027  0  -0.084132  -0.079364  0  3.983727  0
C  C100  1  0.92557591  0.96680400  0.32240194  1  -0.074313  0  -0.084183  -0.079583  0  3.983946  0
C  C101  1  0.92558137  0.53319847  0.17759890  1  -0.074196  0  -0.084182  -0.079518  0  3.983839  0
C  C102  1  0.65380281  0.80816058  0.89981493  1  -0.091704  0  -0.094117  -0.093904  0  3.995429  0
C  C103  1  0.65381020  0.69183958  0.60018130  1  -0.091865  0  -0.094115  -0.093976  0  3.995342  0
C  C104  1  0.34619253  0.19183882  0.10018398  1  -0.091354  0  -0.094135  -0.094004  0  3.995337  0
C  C105  1  0.34619919  0.30816173  0.39981718  1  -0.091729  0  -0.094193  -0.094014  0  3.995366  0
C  C106  1  0.77199704  0.83516943  0.95011790  1  -0.074335  0  -0.090453  -0.064298  0  3.998403  0
C  C107  1  0.77200224  0.66482872  0.54987872  1  -0.074471  0  -0.090515  -0.064366  0  3.998672  0
C  C108  1  0.22799830  0.16482808  0.04988088  1  -0.074764  0  -0.090448  -0.06431  0  3.998499  0
C  C109  1  0.22800248  0.33517069  0.45011964  1  -0.07439  0  -0.090452  -0.064338  0  3.998524  0
C  C110  1  0.61525089  0.85659188  0.84006170  1  -0.076177  0  -0.098676  -0.081819  0  4.016225  0
C  C111  1  0.61525602  0.64341209  0.65993704  1  -0.076622  0  -0.098661  -0.081789  0  4.015909  0
C  C112  1  0.38474679  0.14341004  0.15993850  1  -0.076304  0  -0.098653  -0.081797  0  4.016083  0
C  C113  1  0.38475220  0.35659237  0.34006223  1  -0.076225  0  -0.098638  -0.081736  0  4.016158  0
C  C114  1  0.85388176  0.90988497  0.94029960  1  0.033378  0  -0.091514  -0.166029  0  3.970467  0
C  C115  1  0.85388367  0.59011309  0.55969810  1  0.033835  0  -0.091451  -0.165903  0  3.970405  0
C  C116  1  0.14611710  0.09011252  0.05970029  1  0.033857  0  -0.091544  -0.166013  0  3.970386  0
C  C117  1  0.14611987  0.40988569  0.44029965  1  0.033447  0  -0.091476  -0.16592  0  3.970501  0
C  C118  1  0.69516955  0.93188737  0.83085823  1  -0.078255  0  -0.09409  -0.177673  0  3.98417  0
C  C119  1  0.69517608  0.56811398  0.66914199  1  -0.078236  0  -0.094076  -0.177586  0  3.98406  0
C  C120  1  0.30482579  0.06811264  0.16914297  1  -0.078622  0  -0.094095  -0.177615  0  3.984067  0
C  C121  1  0.30483331  0.43188856  0.33085938  1  -0.078756  0  -0.094123  -0.177805  0  3.984198  0
C  C122  1  0.81535794  0.95825997  0.88063983  1  0.260076  0  0.08307  0.172445  0  4.038328  0
C  C123  1  0.81536228  0.54173937  0.61936078  1  0.260064  0  0.08304  0.172398  0  4.038182  0
C  C124  1  0.18463857  0.04173877  0.11936296  1  0.260014  0  0.083125  0.172436  0  4.038171  0
C  C125  1  0.18464126  0.45826065  0.38063985  1  0.260082  0  0.083085  0.172488  0  4.038285  0
C  C126  1  0.83161120  0.11297294  0.88782471  1  0.301368  0  0.101412  0.211676  0  4.044  0
C  C127  1  0.83161561  0.38702643  0.61217733  1  0.301307  0  0.101338  0.211597  0  4.044047  0
C  C128  1  0.16838766  0.88702641  0.11218036  1  0.301535  0  0.101353  0.211611  0  4.044094  0
C  C129  1  0.16838676  0.61297422  0.38782391  1  0.30147  0  0.101368  0.211608  0  4.044016  0
C  C130  1  0.69747877  0.11926091  0.93407936  1  -0.09113  0  -0.113842  -0.206699  0  4.01008  0
C  C131  1  0.69748326  0.38073923  0.56592221  1  -0.091058  0  -0.113817  -0.20674  0  4.010022  0
C  C132  1  0.30252008  0.88073719  0.06592394  1  -0.091179  0  -0.11384  -0.20667  0  4.010085  0
C  C133  1  0.30251911  0.61926205  0.43408020  1  -0.091095  0  -0.113829  -0.206703  0  4.010046  0
C  C134  1  0.89657305  0.18810398  0.86303574  1  0.016053  0  -0.109653  -0.203188  0  3.991983  0
C  C135  1  0.89657650  0.31189535  0.63696460  1  0.016071  0  -0.109652  -0.203122  0  3.992  0
C  C136  1  0.10342932  0.81189475  0.13696872  1  0.016044  0  -0.109675  -0.203198  0  3.992012  0
C  C137  1  0.10342704  0.68810467  0.36303604  1  0.016089  0  -0.109639  -0.203178  0  3.992038  0
C  C138  1  0.63076607  0.19745219  0.95361104  1  -0.020006  0  -0.091983  -0.076228  0  4.021533  0
C  C139  1  0.63076966  0.30254801  0.54639055  1  -0.019953  0  -0.092014  -0.076226  0  4.02146  0
C  C140  1  0.36923278  0.80254719  0.04639179  1  -0.019929  0  -0.091971  -0.076277  0  4.021714  0
C  C141  1  0.36923388  0.69745264  0.45361013  1  -0.019988  0  -0.091986  -0.076257  0  4.021615  0
C  C142  1  0.82693527  0.26562737  0.88240652  1  -0.021788  0  -0.086607  -0.068852  0  4.007124  0
C  C143  1  0.82693899  0.23437267  0.61759165  1  -0.022021  0  -0.086555  -0.068817  0  4.007024  0
C  C144  1  0.17306593  0.73437265  0.11759412  1  -0.022708  0  -0.086588  -0.068837  0  4.007089  0
C  C145  1  0.17306455  0.76562800  0.38240791  1  -0.021841  0  -0.086597  -0.068815  0  4.007108  0
C  C146  1  0.69323025  0.27198528  0.92815842  1  -0.034407  0  -0.042651  -0.086689  0  4.024393  0
C  C147  1  0.69323170  0.22801423  0.57184310  1  -0.034379  0  -0.042705  -0.086804  0  4.024423  0
C  C148  1  0.30676861  0.72801282  0.07184544  1  -0.033634  0  -0.042667  -0.08673  0  4.024464  0
C  C149  1  0.30677067  0.77198643  0.42815646  1  -0.034383  0  -0.04265  -0.086706  0  4.024373  0
C  C150  1  0.62315685  0.35557930  0.95207661  1  1.514231  0  0.205225  0.583936  0  4.193769  0
C  C151  1  0.62316094  0.14442029  0.54792326  1  1.514615  0  0.205192  0.583923  0  4.193939  0
C  C152  1  0.37684435  0.64442008  0.04792566  1  1.514208  0  0.205234  0.584063  0  4.193769  0
C  C153  1  0.37684845  0.85557975  0.45207402  1  1.51382  0  0.205314  0.584097  0  4.193764  0
C  C154  1  0.92904096  0.62872733  0.97394230  1  0.438507  0  0.012953  -0.00816  0  3.941636  0
C  C155  1  0.92903733  0.87126938  0.52605753  1  0.437939  0  0.012937  -0.008166  0  3.941655  0
C  C156  1  0.07095789  0.37127269  0.02605945  1  0.438572  0  0.012957  -0.008133  0  3.94166  0
C  C157  1  0.07095567  0.12872685  0.47394228  1  0.438538  0  0.013002  -0.008212  0  3.941645  0
C  C158  1  0.84431542  0.63447786  0.85922720  1  0.973436  0  0.154504  0.107754  0  3.893166  0
C  C159  1  0.84431166  0.86552020  0.64077219  1  0.97327  0  0.154445  0.107656  0  3.893197  0
C  C160  1  0.15568578  0.36551901  0.14077210  1  0.973272  0  0.154478  0.107785  0  3.893116  0
C  C161  1  0.15568485  0.13447793  0.35922831  1  0.973263  0  0.154497  0.107786  0  3.893189  0
C  C162  1  0.04049991  0.67134984  0.93675870  1  0.298496  0  0.010574  -0.091853  0  3.901146  0
C  C163  1  0.04049754  0.82864771  0.56324143  1  0.298576  0  0.01056  -0.09184  0  3.901179  0
C  C164  1  0.95949777  0.32864891  0.06324241  1  0.298426  0  0.010567  -0.091854  0  3.901151  0
C  C165  1  0.95949546  0.17134852  0.43675783  1  0.298422  0  0.010605  -0.09178  0  3.901176  0
C  C166  1  0.06423199  0.71338636  0.80592326  1  0.300512  0  0.108475  0.151665  0  4.017186  0
C  C167  1  0.06422960  0.78661180  0.69407690  1  0.300129  0  0.108411  0.151654  0  4.017207  0
C  C168  1  0.93576803  0.28661177  0.19407612  1  0.299758  0  0.1084  0.151639  0  4.017133  0
C  C169  1  0.93576926  0.21338507  0.30592239  1  0.300529  0  0.108426  0.15163  0  4.017241  0
C  C170  1  0.97977674  0.74999896  0.75000023  1  0.00337  0  -0.066269  -0.203981  0  3.911041  0
C  C171  1  0.02022212  0.24999791  0.24999906  1  0.003787  0  -0.066253  -0.203986  0  3.911041  0
C  C172  1  0.22828035  0.71413063  0.80376005  1  0.611546  0  0.050264  -0.004553  0  3.942898  0
C  C173  1  0.22827796  0.78586738  0.69623950  1  0.611347  0  0.050285  -0.004637  0  3.942786  0
C  C174  1  0.77171734  0.28586624  0.19623924  1  0.611345  0  0.050274  -0.004641  0  3.942776  0
C  C175  1  0.77171856  0.21413139  0.30375937  1  0.611712  0  0.050339  -0.004433  0  3.942838  0
N  N176  1  0.90036958  0.03470599  0.86889220  1  -1.210699  0  -0.269278  -0.200963  0  3.655481  0
N  N177  1  0.90037138  0.46529333  0.63110869  1  -1.210755  0  -0.269286  -0.200973  0  3.655456  0
N  N178  1  0.09962927  0.96529276  0.13110946  1  -1.210836  0  -0.269282  -0.200937  0  3.655586  0
N  N179  1  0.09963216  0.53470732  0.36889255  1  -1.210823  0  -0.269207  -0.200864  0  3.655394  0
N  N180  1  0.80836661  0.60593416  0.92500161  1  -1.215335  0  -0.343026  -0.255221  0  3.536837  0
N  N181  1  0.80836168  0.89406330  0.57499775  1  -1.214869  0  -0.342935  -0.255024  0  3.536708  0
N  N182  1  0.19163107  0.39406397  0.07499778  1  -1.21532  0  -0.342974  -0.255244  0  3.536931  0
N  N183  1  0.19163367  0.10593483  0.42500219  1  -1.215351  0  -0.343074  -0.255247  0  3.536891  0
N  N184  1  0.98567731  0.67485886  0.86398834  1  -1.26446  0  -0.224249  0.00057  0  3.827928  0
N  N185  1  0.98567486  0.82513906  0.63601156  1  -1.264299  0  -0.224205  0.000561  0  3.827967  0
N  N186  1  0.01432155  0.32513865  0.13601044  1  -1.264248  0  -0.224227  0.000548  0  3.828048  0
N  N187  1  0.01432048  0.17485780  0.36398830  1  -1.264311  0  -0.224283  0.000491  0  3.828024  0
N  N188  1  0.30781502  0.74999865  0.74999974  1  -1.221206  0  -0.303502  -0.207786  0  3.38683  0
N  N189  1  0.69218501  0.24999759  0.24999951  1  -1.221289  0  -0.303514  -0.207826  0  3.386998  0
O  O190  1  0.29979513  0.02654529  0.56615595  1  -1.184185  0  -0.313207  -0.562146  0  2.356412  0
O  O191  1  0.29980708  0.47345842  0.93384149  1  -1.184742  0  -0.313267  -0.562344  0  2.356282  0
O  O192  1  0.70019553  0.97345475  0.43384189  1  -1.18426  0  -0.313258  -0.562249  0  2.356346  0
O  O193  1  0.70020349  0.52654352  0.06615648  1  -1.184111  0  -0.313162  -0.562112  0  2.356337  0
O  O194  1  0.47200596  0.96005146  0.63858594  1  -1.166552  0  -0.324111  -0.54638  0  2.26194  0
O  O195  1  0.47201236  0.53995519  0.86141079  1  -1.166432  0  -0.324215  -0.546579  0  2.262028  0
O  O196  1  0.52798821  0.03995176  0.36140988  1  -1.166368  0  -0.324192  -0.546474  0  2.262057  0
O  O197  1  0.52799353  0.46004864  0.13858731  1  -1.166158  0  -0.32414  -0.54637  0  2.261939  0
O  O198  1  0.51153518  0.35611824  0.99982471  1  -1.15797  0  -0.324143  -0.562162  0  2.347941  0
O  O199  1  0.51153816  0.14388145  0.50017631  1  -1.158316  0  -0.32414  -0.562174  0  2.348121  0
O  O200  1  0.48846602  0.64388176  0.00017816  1  -1.157921  0  -0.324161  -0.562282  0  2.348118  0
O  O201  1  0.48847123  0.85611734  0.49982088  1  -1.157978  0  -0.324186  -0.562329  0  2.348139  0
O  O202  1  0.68160578  0.42083161  0.92473551  1  -1.173555  0  -0.32309  -0.55059  0  2.324813  0
O  O203  1  0.68161122  0.07916793  0.57526377  1  -1.173724  0  -0.32303  -0.550502  0  2.324826  0
O  O204  1  0.31839190  0.57916778  0.07526508  1  -1.173722  0  -0.323053  -0.550574  0  2.324755  0
O  O205  1  0.31840052  0.92083149  0.42473290  1  -1.173157  0  -0.323128  -0.550575  0  2.324763  0
