# generated using pymatgen
data_CdH8C4SBrN4
_symmetry_space_group_name_H-M   'P 1'
_cell_length_a   6.77931135
_cell_length_b   7.46461140
_cell_length_c   12.14479833
_cell_angle_alpha   69.89875710
_cell_angle_beta   84.21973607
_cell_angle_gamma   76.25411814
_symmetry_Int_Tables_number   1
_chemical_formula_structural   CdH8C4SBrN4
_chemical_formula_sum   'Cd2 H16 C8 S2 Br2 N8'
_cell_volume   560.49783426
_cell_formula_units_Z   2
loop_
 _symmetry_equiv_pos_site_id
 _symmetry_equiv_pos_as_xyz
  1  'x, y, z'
loop_
 _atom_site_type_symbol
 _atom_site_label
 _atom_site_symmetry_multiplicity
 _atom_site_fract_x
 _atom_site_fract_y
 _atom_site_fract_z
 _atom_site_occupancy
 _atom_site_hle17_bader_spin_density
 _atom_site_hle17_ddec_charge
 _atom_site_hle17_ddec_spin_density
 _atom_site_hle17_ddec_sum_bond_order
 _atom_site_hle17_magmom
 _atom_site_hse06_10hf_bader_spin_density
 _atom_site_hse06_10hf_ddec_charge
 _atom_site_hse06_10hf_ddec_spin_density
 _atom_site_hse06_10hf_ddec_sum_bond_order
 _atom_site_hse06_10hf_magmom
 _atom_site_hse06_bader_spin_density
 _atom_site_hse06_ddec_charge
 _atom_site_hse06_ddec_spin_density
 _atom_site_hse06_ddec_sum_bond_order
 _atom_site_hse06_magmom
 _atom_site_pbe_bader_spin_density
 _atom_site_pbe_cm5_charge
 _atom_site_pbe_ddec_charge
 _atom_site_pbe_ddec_spin_density
 _atom_site_pbe_ddec_sum_bond_order
 _atom_site_pbe_magmom
Cd  Cd0  1  0.32460971  0.30035359  0.58986791  1  0  0.859748  0  1.988943  0  0  0.685009  0  2.450803  0  0  0.730533  0  2.416259  0  0  0.610588  0.65363  0  2.473586  0
Cd  Cd1  1  0.67539022  0.69966842  0.41012477  1  0  0.859775  0  1.989039  0  0  0.685023  0  2.450898  0  0  0.730545  0  2.416361  0  0  0.610576  0.653643  0  2.473688  0
H  H2  1  0.69441143  0.34756513  0.96959384  1  0  0.108613  0  0.921136  0  0  0.132818  0  0.975387  0  0  0.133704  0  0.974985  0  0  0.113293  0.13207  0  0.975748  0
H  H3  1  0.30556815  0.65240560  0.03040772  1  0  0.108403  0  0.921239  0  0  0.132627  0  0.975465  0  0  0.133513  0  0.975065  0  0  0.113211  0.13188  0  0.975825  0
H  H4  1  0.50621619  0.29049799  0.90156304  1  0  0.111995  0  0.937063  0  0  0.12856  0  1.004703  0  0  0.129686  0  1.003953  0  0  0.101806  0.127201  0  1.00613  0
H  H5  1  0.49378717  0.70947100  0.09842639  1  0  0.111662  0  0.937122  0  0  0.128251  0  1.004748  0  0  0.129378  0  1.003993  0  0  0.101672  0.126893  0  1.006172  0
H  H6  1  0.50580339  0.54165774  0.88026498  1  0  0.109989  0  0.945064  0  0  0.127245  0  1.012884  0  0  0.128471  0  1.012109  0  0  0.102577  0.126141  0  1.013669  0
H  H7  1  0.49417378  0.45830498  0.11974123  1  0  0.109771  0  0.945059  0  0  0.127082  0  1.012843  0  0  0.128305  0  1.012072  0  0  0.102494  0.125979  0  1.013626  0
H  H8  1  0.03357115  0.26435763  0.85900378  1  0  0.106459  0  0.91435  0  0  0.118718  0  0.971453  0  0  0.121824  0  0.967495  0  0  0.145099  0.116256  0  0.974512  0
H  H9  1  0.96643242  0.73563677  0.14099270  1  0  0.106452  0  0.914665  0  0  0.118706  0  0.971756  0  0  0.121847  0  0.967745  0  0  0.145109  0.116242  0  0.974814  0
H  H10  1  0.97694189  0.03725394  0.61813693  1  0  0.061999  0  0.925917  0  0  0.078535  0  0.988081  0  0  0.078942  0  0.988096  0  0  0.094702  0.078116  0  0.988256  0
H  H11  1  0.02307411  0.96274083  0.38187856  1  0  0.061929  0  0.925946  0  0  0.078454  0  0.988157  0  0  0.078862  0  0.988168  0  0  0.094639  0.078038  0  0.988324  0
H  H12  1  0.93781056  0.22107088  0.48010494  1  0  0.067117  0  0.942661  0  0  0.08565  0  1.004462  0  0  0.08557  0  1.005239  0  0  0.094344  0.085662  0  1.003897  0
H  H13  1  0.06218448  0.77892485  0.51991265  1  0  0.066998  0  0.942758  0  0  0.085549  0  1.004601  0  0  0.085466  0  1.005376  0  0  0.094298  0.085518  0  1.004086  0
H  H14  1  0.29122063  0.09916042  0.42952230  1  0  0.278075  0  0.925916  0  0  0.268746  0  0.985379  0  0  0.274497  0  0.982049  0  0  0.267564  0.264496  0  0.988032  0
H  H15  1  0.70877586  0.90084634  0.57048280  1  0  0.278122  0  0.925794  0  0  0.268766  0  0.985309  0  0  0.274521  0  0.981968  0  0  0.267571  0.264516  0  0.987961  0
H  H16  1  0.32317318  0.94196588  0.56291255  1  0  0.266153  0  0.966387  0  0  0.257551  0  1.02636  0  0  0.262874  0  1.024127  0  0  0.2588  0.253674  0  1.028112  0
H  H17  1  0.67683831  0.05804658  0.43709236  1  0  0.266137  0  0.966312  0  0  0.257556  0  1.026271  0  0  0.262878  0  1.024041  0  0  0.258797  0.253679  0  1.028024  0
C  C18  1  0.66988754  0.48761298  0.67477552  1  0  0.288852  0  3.827668  0  0  0.252886  0  4.114753  0  0  0.269876  0  4.129136  0  0  0.199888  0.241456  0  4.105061  0
C  C19  1  0.33011208  0.51239831  0.32522124  1  0  0.288707  0  3.827753  0  0  0.252628  0  4.11504  0  0  0.269618  0  4.129425  0  0  0.199752  0.241201  0  4.105344  0
C  C20  1  0.60110912  0.39563033  0.89193994  1  0  -0.160482  0  3.643455  0  0  -0.265354  0  3.890754  0  0  -0.261711  0  3.899405  0  0  -0.127503  -0.267404  0  3.885048  0
C  C21  1  0.39888045  0.60434143  0.10805665  1  0  -0.159738  0  3.643485  0  0  -0.264636  0  3.890668  0  0  -0.260998  0  3.899333  0  0  -0.12717  -0.266696  0  3.884983  0
C  C22  1  0.93693397  0.33837203  0.78347412  1  0  0.149748  0  3.667972  0  0  0.081972  0  3.936244  0  0  0.095994  0  3.94728  0  0  0.154255  0.073043  0  3.928352  0
C  C23  1  0.06305076  0.66164304  0.21650402  1  0  0.149581  0  3.667079  0  0  0.081833  0  3.935325  0  0  0.095833  0  3.946342  0  0  0.154214  0.072915  0  3.927429  0
C  C24  1  0.02416669  0.07294986  0.52517245  1  0  0.051726  0  3.630636  0  0  -0.002818  0  3.891462  0  0  0.001479  0  3.903553  0  0  -0.08509  -0.00568  0  3.882991  0
C  C25  1  0.97584040  0.92705094  0.47484110  1  0  0.052287  0  3.630376  0  0  -0.002341  0  3.8912  0  0  0.00196  0  3.903291  0  0  -0.084859  -0.005175  0  3.882732  0
S  S26  1  0.42640042  0.59602762  0.62806244  1  0  -0.469289  0  2.204065  0  0  -0.431969  0  2.563494  0  0  -0.450824  0  2.554986  0  0  -0.193743  -0.418536  0  2.568825  0
S  S27  1  0.57360076  0.40399010  0.37193742  1  0  -0.46923  0  2.20404  0  0  -0.431892  0  2.563549  0  0  -0.450749  0  2.555037  0  0  -0.193714  -0.418463  0  2.568893  0
Br  Br28  1  0.54581684  0.00497659  0.75875597  1  0  -0.617329  0  0.752855  0  0  -0.566681  0  0.980542  0  0  -0.582905  0  0.961271  0  0  -0.375983  -0.554659  0  0.99475  0
Br  Br29  1  0.45418428  0.99504789  0.24124539  1  0  -0.617329  0  0.752904  0  0  -0.566683  0  0.980607  0  0  -0.582895  0  0.961315  0  0  -0.375976  -0.554663  0  0.994824  0
N  N30  1  0.73280379  0.40647895  0.78905814  1  0  -0.078925  0  3.550884  0  0  0.020683  0  3.775587  0  0  0.004123  0  3.798858  0  0  -0.235976  0.031388  0  3.759901  0
N  N31  1  0.26720802  0.59351773  0.21093413  1  0  -0.07865  0  3.550346  0  0  0.020927  0  3.775129  0  0  0.004359  0  3.798421  0  0  -0.235856  0.031629  0  3.759438  0
N  N32  1  0.83200128  0.47093604  0.60388166  1  0  -0.29828  0  3.05027  0  0  -0.254832  0  3.334142  0  0  -0.269587  0  3.351736  0  0  -0.24523  -0.24494  0  3.322186  0
N  N33  1  0.16800349  0.52908442  0.39611175  1  0  -0.298314  0  3.050626  0  0  -0.254859  0  3.334579  0  0  -0.26959  0  3.352109  0  0  -0.245238  -0.244965  0  3.322618  0
N  N34  1  0.99888259  0.37645878  0.67277967  1  0  -0.22882  0  3.198925  0  0  -0.170519  0  3.494479  0  0  -0.184889  0  3.512039  0  0  -0.242254  -0.16091  0  3.482004  0
N  N35  1  0.00111527  0.62355377  0.32721785  1  0  -0.22878  0  3.198449  0  0  -0.170469  0  3.493969  0  0  -0.184842  0  3.511552  0  0  -0.242252  -0.160863  0  3.481494  0
N  N36  1  0.24159530  0.07714199  0.51513827  1  0  -0.607493  0  3.124678  0  0  -0.5463  0  3.354348  0  0  -0.567773  0  3.357852  0  0  -0.637189  -0.531098  0  3.351651  0
N  N37  1  0.75840844  0.92286581  0.48486867  1  0  -0.607642  0  3.124469  0  0  -0.546422  0  3.354079  0  0  -0.567893  0  3.357585  0  0  -0.637219  -0.531214  0  3.351365  0
