# generated using pymatgen
data_ZnH16C14(NO3)2
_symmetry_space_group_name_H-M   'P 1'
_cell_length_a   8.63094751
_cell_length_b   9.16466885
_cell_length_c   9.49502505
_cell_angle_alpha   107.00416775
_cell_angle_beta   90.00001041
_cell_angle_gamma   90.00006440
_symmetry_Int_Tables_number   1
_chemical_formula_structural   ZnH16C14(NO3)2
_chemical_formula_sum   'Zn2 H32 C28 N4 O12'
_cell_volume   718.22087501
_cell_formula_units_Z   2
loop_
 _symmetry_equiv_pos_site_id
 _symmetry_equiv_pos_as_xyz
  1  'x, y, z'
loop_
 _atom_site_type_symbol
 _atom_site_label
 _atom_site_symmetry_multiplicity
 _atom_site_fract_x
 _atom_site_fract_y
 _atom_site_fract_z
 _atom_site_occupancy
 _atom_site_hle17_bader_spin_density
 _atom_site_hle17_ddec_charge
 _atom_site_hle17_ddec_spin_density
 _atom_site_hle17_ddec_sum_bond_order
 _atom_site_hle17_magmom
 _atom_site_hse06_10hf_bader_spin_density
 _atom_site_hse06_10hf_ddec_charge
 _atom_site_hse06_10hf_ddec_spin_density
 _atom_site_hse06_10hf_ddec_sum_bond_order
 _atom_site_hse06_10hf_magmom
 _atom_site_hse06_bader_spin_density
 _atom_site_hse06_ddec_charge
 _atom_site_hse06_ddec_spin_density
 _atom_site_hse06_ddec_sum_bond_order
 _atom_site_hse06_magmom
 _atom_site_pbe_bader_spin_density
 _atom_site_pbe_cm5_charge
 _atom_site_pbe_ddec_charge
 _atom_site_pbe_ddec_spin_density
 _atom_site_pbe_ddec_sum_bond_order
 _atom_site_pbe_magmom
Zn  Zn0  1  0.49999986  0.49999882  0.99999989  1  0  1.055724  0  1.81023  0  0  0.883946  0  2.25058  0  0  0.929828  0  2.198848  0  0  0.670329  0.852376  0  2.285662  0
Zn  Zn1  1  0.00000005  0.00000080  0.50000075  1  0  1.055717  0  1.810267  0  0  0.883926  0  2.25063  0  0  0.929805  0  2.198897  0  0  0.67031  0.852352  0  2.28571  0
H  H2  1  0.34887737  0.31627180  0.79666122  1  0  0.412053  0  0.892421  0  0  0.377612  0  0.965523  0  0  0.389183  0  0.9485  0  0  0.287803  0.369517  0  0.977365  0
H  H3  1  0.84887685  0.18372641  0.70333807  1  0  0.41205  0  0.892467  0  0  0.377602  0  0.965546  0  0  0.389173  0  0.948525  0  0  0.287772  0.369505  0  0.977391  0
H  H4  1  0.65112245  0.68372629  0.20333765  1  0  0.412058  0  0.892463  0  0  0.377608  0  0.965542  0  0  0.389179  0  0.94852  0  0  0.287772  0.369512  0  0.977384  0
H  H5  1  0.15112297  0.81627397  0.29666248  1  0  0.412056  0  0.892456  0  0  0.3776  0  0.965551  0  0  0.389173  0  0.948525  0  0  0.287764  0.369504  0  0.977394  0
H  H6  1  0.51949246  0.30183066  0.71416898  1  0  0.42676  0  0.875006  0  0  0.392275  0  0.944096  0  0  0.403785  0  0.927463  0  0  0.287588  0.384088  0  0.955864  0
H  H7  1  0.01949168  0.19816829  0.78583150  1  0  0.426749  0  0.875025  0  0  0.392269  0  0.944102  0  0  0.403775  0  0.927477  0  0  0.287593  0.384082  0  0.95587  0
H  H8  1  0.48050852  0.69816742  0.28582989  1  0  0.426786  0  0.874969  0  0  0.392296  0  0.944065  0  0  0.403807  0  0.927431  0  0  0.287601  0.38411  0  0.955833  0
H  H9  1  0.98050814  0.80183323  0.21416935  1  0  0.426797  0  0.874957  0  0  0.392311  0  0.944041  0  0  0.403819  0  0.927411  0  0  0.287611  0.384125  0  0.955807  0
H  H10  1  0.52671434  0.62380371  0.73413591  1  0  0.085283  0  0.954398  0  0  0.093557  0  1.021685  0  0  0.09586  0  1.020278  0  0  0.113543  0.091848  0  1.02317  0
H  H11  1  0.02671261  0.87619569  0.76586293  1  0  0.085266  0  0.954471  0  0  0.093545  0  1.021754  0  0  0.095848  0  1.020346  0  0  0.113536  0.091836  0  1.023239  0
H  H12  1  0.47328780  0.37619438  0.26586296  1  0  0.085283  0  0.95445  0  0  0.093562  0  1.021731  0  0  0.095868  0  1.02032  0  0  0.113524  0.091853  0  1.023215  0
H  H13  1  0.97328605  0.12380581  0.23413687  1  0  0.085279  0  0.954437  0  0  0.093525  0  1.021747  0  0  0.095829  0  1.020342  0  0  0.113531  0.091817  0  1.02323  0
H  H14  1  0.32359416  0.79592551  0.14336067  1  0  0.076979  0  0.987777  0  0  0.084354  0  1.055857  0  0  0.087406  0  1.052567  0  0  0.114465  0.081866  0  1.058467  0
H  H15  1  0.82359601  0.70407266  0.35663787  1  0  0.076999  0  0.987732  0  0  0.084375  0  1.055804  0  0  0.087427  0  1.052518  0  0  0.114473  0.081887  0  1.058415  0
H  H16  1  0.67640798  0.20407487  0.85664094  1  0  0.076992  0  0.987704  0  0  0.084279  0  1.055909  0  0  0.08733  0  1.052622  0  0  0.114411  0.08179  0  1.058521  0
H  H17  1  0.17640497  0.29592772  0.64336268  1  0  0.077016  0  0.987687  0  0  0.084386  0  1.055778  0  0  0.087439  0  1.052487  0  0  0.114473  0.0819  0  1.058387  0
H  H18  1  0.53737153  0.95768789  0.62951338  1  0  0.124424  0  0.92567  0  0  0.14116  0  0.981854  0  0  0.142761  0  0.981686  0  0  0.108803  0.140406  0  0.981547  0
H  H19  1  0.03736942  0.54231269  0.87048789  1  0  0.124387  0  0.925686  0  0  0.141112  0  0.981887  0  0  0.142711  0  0.981721  0  0  0.108769  0.140357  0  0.981579  0
H  H20  1  0.46263061  0.04231363  0.37048748  1  0  0.124383  0  0.925656  0  0  0.141091  0  0.981872  0  0  0.142691  0  0.981705  0  0  0.10877  0.140341  0  0.981558  0
H  H21  1  0.96262924  0.45768653  0.12951129  1  0  0.124381  0  0.925639  0  0  0.141098  0  0.98185  0  0  0.142697  0  0.981684  0  0  0.108763  0.140342  0  0.981543  0
H  H22  1  0.53412726  0.75699842  0.55596862  1  0  0.106238  0  0.951321  0  0  0.118724  0  1.014887  0  0  0.120705  0  1.014553  0  0  0.098807  0.117324  0  1.015295  0
H  H23  1  0.03412541  0.74300327  0.94403084  1  0  0.10622  0  0.951307  0  0  0.1187  0  1.014885  0  0  0.120681  0  1.014551  0  0  0.098796  0.117299  0  1.015293  0
H  H24  1  0.46587372  0.24300310  0.44403224  1  0  0.106216  0  0.951314  0  0  0.118696  0  1.014884  0  0  0.120676  0  1.01455  0  0  0.098801  0.117294  0  1.015295  0
H  H25  1  0.96587326  0.25699594  0.05596728  1  0  0.106203  0  0.95133  0  0  0.118686  0  1.014897  0  0  0.120665  0  1.014564  0  0  0.098794  0.117283  0  1.015305  0
H  H26  1  0.23089588  0.02826518  0.08331655  1  0  0.101756  0  0.954341  0  0  0.112917  0  1.012372  0  0  0.115363  0  1.01294  0  0  0.104679  0.111039  0  1.012643  0
H  H27  1  0.73089690  0.47173356  0.41668179  1  0  0.101775  0  0.954352  0  0  0.112935  0  1.012383  0  0  0.115381  0  1.01295  0  0  0.104674  0.11106  0  1.012653  0
H  H28  1  0.76910510  0.97173405  0.91668369  1  0  0.101768  0  0.954333  0  0  0.112929  0  1.012365  0  0  0.115377  0  1.01293  0  0  0.104677  0.111054  0  1.012635  0
H  H29  1  0.26910408  0.52826681  0.58331770  1  0  0.10176  0  0.954298  0  0  0.11292  0  1.012333  0  0  0.115366  0  1.0129  0  0  0.104667  0.111045  0  1.012602  0
H  H30  1  0.29606958  0.06030675  0.83651663  1  0  0.114395  0  0.969747  0  0  0.121224  0  1.033974  0  0  0.125017  0  1.030797  0  0  0.105828  0.118403  0  1.036539  0
H  H31  1  0.79606704  0.43969367  0.66348326  1  0  0.114378  0  0.969785  0  0  0.121223  0  1.033998  0  0  0.12502  0  1.030813  0  0  0.105827  0.118401  0  1.036564  0
H  H32  1  0.70393140  0.93969363  0.16348392  1  0  0.114383  0  0.969777  0  0  0.121224  0  1.033979  0  0  0.125014  0  1.030801  0  0  0.105829  0.118401  0  1.036544  0
H  H33  1  0.20393163  0.56030783  0.33651655  1  0  0.114371  0  0.969784  0  0  0.12121  0  1.033991  0  0  0.125003  0  1.030816  0  0  0.105818  0.118389  0  1.036556  0
C  C34  1  0.32773284  0.87375936  0.51786417  1  0  0.711219  0  3.827134  0  0  0.657698  0  4.136137  0  0  0.690813  0  4.129366  0  0  0.21732  0.635693  0  4.139275  0
C  C35  1  0.82773114  0.62624384  0.98213681  1  0  0.711097  0  3.827268  0  0  0.657571  0  4.136279  0  0  0.690692  0  4.129513  0  0  0.217301  0.635567  0  4.139416  0
C  C36  1  0.67226814  0.12624100  0.48213532  1  0  0.71111  0  3.827262  0  0  0.657579  0  4.136276  0  0  0.690696  0  4.129509  0  0  0.217289  0.635574  0  4.139414  0
C  C37  1  0.17226868  0.37375767  0.01786299  1  0  0.711057  0  3.827272  0  0  0.657549  0  4.136259  0  0  0.690665  0  4.129493  0  0  0.217295  0.635544  0  4.139397  0
C  C38  1  0.46416861  0.85574697  0.61505947  1  0  -0.309011  0  3.68193  0  0  -0.353101  0  3.925676  0  0  -0.357933  0  3.933722  0  0  -0.161851  -0.349656  0  3.919311  0
C  C39  1  0.96416808  0.64425413  0.88494307  1  0  -0.308909  0  3.681916  0  0  -0.352988  0  3.925665  0  0  -0.357825  0  3.933717  0  0  -0.161813  -0.349533  0  3.919287  0
C  C40  1  0.53583237  0.14425454  0.38494139  1  0  -0.308896  0  3.681894  0  0  -0.352946  0  3.925635  0  0  -0.357779  0  3.933684  0  0  -0.16182  -0.349499  0  3.919266  0
C  C41  1  0.03583175  0.35574511  0.11505822  1  0  -0.308887  0  3.68189  0  0  -0.352959  0  3.925629  0  0  -0.357789  0  3.933678  0  0  -0.161794  -0.349504  0  3.919251  0
C  C42  1  0.41808098  0.84450693  0.76441980  1  0  0.072181  0  3.739085  0  0  0.096755  0  3.977213  0  0  0.092312  0  4.002956  0  0  -0.003928  0.099341  0  3.960416  0
C  C43  1  0.91808159  0.65549066  0.73557862  1  0  0.072146  0  3.739122  0  0  0.09673  0  3.977249  0  0  0.092288  0  4.002994  0  0  -0.003938  0.099312  0  3.960451  0
C  C44  1  0.58192000  0.15549344  0.23558075  1  0  0.072161  0  3.739062  0  0  0.096693  0  3.977223  0  0  0.092249  0  4.002967  0  0  -0.003932  0.099277  0  3.960425  0
C  C45  1  0.08191939  0.34450743  0.26442130  1  0  0.072184  0  3.739136  0  0  0.096753  0  3.977243  0  0  0.09231  0  4.002986  0  0  -0.003923  0.099334  0  3.960444  0
C  C46  1  0.46176209  0.71736113  0.80791018  1  0  0.061243  0  3.678567  0  0  0.024211  0  3.927854  0  0  0.029848  0  3.946487  0  0  0.039605  0.020138  0  3.915738  0
C  C47  1  0.96176284  0.78263538  0.69208901  1  0  0.061226  0  3.678718  0  0  0.024181  0  3.927994  0  0  0.029818  0  3.946627  0  0  0.039612  0.020109  0  3.915877  0
C  C48  1  0.53823889  0.28263582  0.19208944  1  0  0.061192  0  3.678726  0  0  0.024152  0  3.928022  0  0  0.029789  0  3.946656  0  0  0.039585  0.020083  0  3.915902  0
C  C49  1  0.03823698  0.21736385  0.30791123  1  0  0.061275  0  3.678618  0  0  0.02426  0  3.927903  0  0  0.029895  0  3.946536  0  0  0.039637  0.02019  0  3.915783  0
C  C50  1  0.34741773  0.81225993  0.03663527  1  0  0.116686  0  3.718979  0  0  0.082456  0  3.974077  0  0  0.089361  0  3.99149  0  0  0.04039  0.078298  0  3.962131  0
C  C51  1  0.84741842  0.68774055  0.46336390  1  0  0.116664  0  3.719017  0  0  0.082437  0  3.974096  0  0  0.089338  0  3.991515  0  0  0.040369  0.078276  0  3.962154  0
C  C52  1  0.65258209  0.18773930  0.96336497  1  0  0.116773  0  3.718992  0  0  0.082601  0  3.974071  0  0  0.089506  0  3.991488  0  0  0.040456  0.078442  0  3.96213  0
C  C53  1  0.15258140  0.31226097  0.53663696  1  0  0.116591  0  3.718951  0  0  0.082362  0  3.974038  0  0  0.089266  0  3.991451  0  0  0.040344  0.078201  0  3.962096  0
C  C54  1  0.29686716  0.94203948  0.00218885  1  0  -0.118963  0  3.758479  0  0  -0.129234  0  4.013022  0  0  -0.136269  0  4.035008  0  0  -0.088153  -0.125233  0  3.998999  0
C  C55  1  0.79686538  0.55796096  0.49781241  1  0  -0.119068  0  3.758493  0  0  -0.129339  0  4.013042  0  0  -0.136373  0  4.035028  0  0  -0.08816  -0.125341  0  3.999021  0
C  C56  1  0.70313151  0.05795974  0.99781033  1  0  -0.119016  0  3.758576  0  0  -0.129299  0  4.013089  0  0  -0.136334  0  4.035074  0  0  -0.088137  -0.125301  0  3.999067  0
C  C57  1  0.20313212  0.44204055  0.50218845  1  0  -0.118961  0  3.758484  0  0  -0.129245  0  4.013026  0  0  -0.13628  0  4.035011  0  0  -0.088134  -0.125247  0  3.999005  0
C  C58  1  0.33362104  0.95942290  0.86541932  1  0  -0.060543  0  3.689967  0  0  -0.089715  0  3.942544  0  0  -0.086857  0  3.960593  0  0  -0.071779  -0.091627  0  3.931008  0
C  C59  1  0.83362149  0.54057689  0.63458073  1  0  -0.060488  0  3.690001  0  0  -0.089675  0  3.942572  0  0  -0.086818  0  3.960624  0  0  -0.071782  -0.091589  0  3.931038  0
C  C60  1  0.66637879  0.04057517  0.13457849  1  0  -0.060516  0  3.689989  0  0  -0.089647  0  3.942516  0  0  -0.086786  0  3.960563  0  0  -0.071774  -0.091564  0  3.93099  0
C  C61  1  0.16637949  0.45942234  0.36541845  1  0  -0.060549  0  3.690055  0  0  -0.089707  0  3.942606  0  0  -0.086853  0  3.960664  0  0  -0.071792  -0.091619  0  3.93107  0
N  N62  1  0.42834861  0.70154970  0.94120291  1  0  -0.318737  0  3.291709  0  0  -0.242067  0  3.558065  0  0  -0.259884  0  3.575986  0  0  -0.323638  -0.229855  0  3.545631  0
N  N63  1  0.92834936  0.79844790  0.55879551  1  0  -0.318647  0  3.291835  0  0  -0.24196  0  3.558171  0  0  -0.259775  0  3.576094  0  0  -0.323592  -0.229747  0  3.545735  0
N  N64  1  0.57165353  0.29844953  0.05879732  1  0  -0.318744  0  3.29179  0  0  -0.24205  0  3.558093  0  0  -0.259868  0  3.576016  0  0  -0.323614  -0.229839  0  3.545661  0
N  N65  1  0.07165047  0.20155019  0.44120441  1  0  -0.318701  0  3.291705  0  0  -0.242012  0  3.558033  0  0  -0.259826  0  3.575952  0  0  -0.323612  -0.2298  0  3.545598  0
O  O66  1  0.22588777  0.97182642  0.57724633  1  0  -0.632824  0  2.045208  0  0  -0.565198  0  2.306465  0  0  -0.593268  0  2.297153  0  0  -0.312099  -0.545219  0  2.311656  0
O  O67  1  0.72588595  0.52817553  0.92275535  1  0  -0.632732  0  2.045345  0  0  -0.56512  0  2.306622  0  0  -0.593183  0  2.297293  0  0  -0.312051  -0.54514  0  2.311818  0
O  O68  1  0.77411321  0.02817282  0.42275391  1  0  -0.632757  0  2.045289  0  0  -0.565151  0  2.306578  0  0  -0.593211  0  2.297245  0  0  -0.312073  -0.545171  0  2.311768  0
O  O69  1  0.27411388  0.47182370  0.07724489  1  0  -0.632714  0  2.045369  0  0  -0.565109  0  2.306652  0  0  -0.593163  0  2.297302  0  0  -0.312045  -0.54513  0  2.311845  0
O  O70  1  0.44235382  0.37158795  0.77866199  1  0  -0.836685  0  1.92684  0  0  -0.778803  0  2.144762  0  0  -0.79966  0  2.108997  0  0  -0.581346  -0.763765  0  2.169371  0
O  O71  1  0.94235439  0.12841151  0.72133872  1  0  -0.836664  0  1.926905  0  0  -0.778766  0  2.144784  0  0  -0.79962  0  2.109023  0  0  -0.581314  -0.763729  0  2.169396  0
O  O72  1  0.55764485  0.62841126  0.22133614  1  0  -0.836712  0  1.926899  0  0  -0.778822  0  2.144793  0  0  -0.799681  0  2.109024  0  0  -0.581327  -0.763785  0  2.1694  0
O  O73  1  0.05764543  0.87158888  0.27866394  1  0  -0.836722  0  1.926874  0  0  -0.778825  0  2.144775  0  0  -0.799681  0  2.109006  0  0  -0.581331  -0.763789  0  2.169384  0
O  O74  1  0.32688930  0.79166324  0.38345167  1  0  -0.660333  0  2.004534  0  0  -0.586795  0  2.220976  0  0  -0.613461  0  2.210465  0  0  -0.311197  -0.568789  0  2.228147  0
O  O75  1  0.82688995  0.70833837  0.11654887  1  0  -0.660317  0  2.004502  0  0  -0.586788  0  2.220955  0  0  -0.613453  0  2.210441  0  0  -0.311229  -0.568781  0  2.228118  0
O  O76  1  0.67311052  0.20833712  0.61654783  1  0  -0.660318  0  2.004553  0  0  -0.586768  0  2.220996  0  0  -0.613436  0  2.210488  0  0  -0.311199  -0.568763  0  2.228167  0
O  O77  1  0.17311103  0.29166085  0.88345031  1  0  -0.660278  0  2.00449  0  0  -0.586777  0  2.220959  0  0  -0.613443  0  2.21045  0  0  -0.311227  -0.568769  0  2.228123  0
