# generated using pymatgen
data_Zn2H11C12NO10
_symmetry_space_group_name_H-M   'P 1'
_cell_length_a   9.00887438
_cell_length_b   8.90229533
_cell_length_c   9.89611456
_cell_angle_alpha   94.19849992
_cell_angle_beta   107.33087853
_cell_angle_gamma   97.23105248
_symmetry_Int_Tables_number   1
_chemical_formula_structural   Zn2H11C12NO10
_chemical_formula_sum   'Zn4 H22 C24 N2 O20'
_cell_volume   746.45373250
_cell_formula_units_Z   2
loop_
 _symmetry_equiv_pos_site_id
 _symmetry_equiv_pos_as_xyz
  1  'x, y, z'
loop_
 _atom_site_type_symbol
 _atom_site_label
 _atom_site_symmetry_multiplicity
 _atom_site_fract_x
 _atom_site_fract_y
 _atom_site_fract_z
 _atom_site_occupancy
 _atom_site_hle17_bader_spin_density
 _atom_site_hle17_ddec_charge
 _atom_site_hle17_ddec_spin_density
 _atom_site_hle17_ddec_sum_bond_order
 _atom_site_hle17_magmom
 _atom_site_hse06_10hf_bader_spin_density
 _atom_site_hse06_10hf_ddec_charge
 _atom_site_hse06_10hf_ddec_spin_density
 _atom_site_hse06_10hf_ddec_sum_bond_order
 _atom_site_hse06_10hf_magmom
 _atom_site_hse06_bader_spin_density
 _atom_site_hse06_ddec_charge
 _atom_site_hse06_ddec_spin_density
 _atom_site_hse06_ddec_sum_bond_order
 _atom_site_hse06_magmom
 _atom_site_pbe_bader_spin_density
 _atom_site_pbe_cm5_charge
 _atom_site_pbe_ddec_charge
 _atom_site_pbe_ddec_spin_density
 _atom_site_pbe_ddec_sum_bond_order
 _atom_site_pbe_magmom
Zn  Zn0  1  0.75645793  0.13652542  0.96674607  1  0  1.198133  0  1.630097  0  0  1.032438  0  2.073235  0  0  1.083138  0  2.011041  0  0  0.67648  0.996403  0  2.116773  0
Zn  Zn1  1  0.24354257  0.86347555  0.03325445  1  0  1.198161  0  1.630071  0  0  1.032458  0  2.07322  0  0  1.083149  0  2.011026  0  0  0.676494  0.996414  0  2.116748  0
Zn  Zn2  1  0.29125145  0.45732874  0.97957041  1  0  1.132108  0  1.742208  0  0  0.959138  0  2.189726  0  0  1.008429  0  2.132741  0  0  0.694878  0.925358  0  2.227979  0
Zn  Zn3  1  0.70874773  0.54267110  0.02043071  1  0  1.132052  0  1.742223  0  0  0.959115  0  2.189737  0  0  1.008414  0  2.132758  0  0  0.694891  0.925345  0  2.22799  0
H  H4  1  0.37219712  0.82954212  0.61546451  1  0  0.113497  0  0.931919  0  0  0.12395  0  0.986418  0  0  0.127983  0  0.983615  0  0  0.11219  0.120208  0  0.989731  0
H  H5  1  0.62780779  0.17045768  0.38453601  1  0  0.11348  0  0.931923  0  0  0.123936  0  0.986423  0  0  0.127969  0  0.98362  0  0  0.112213  0.120191  0  0.989739  0
H  H6  1  0.38034763  0.71247577  0.38025940  1  0  0.121549  0  0.942785  0  0  0.128695  0  1.005611  0  0  0.132475  0  1.003638  0  0  0.109823  0.12582  0  1.007402  0
H  H7  1  0.61965113  0.28752180  0.61974045  1  0  0.121551  0  0.942741  0  0  0.128704  0  1.005561  0  0  0.132486  0  1.003589  0  0  0.109833  0.12585  0  1.007336  0
H  H8  1  0.21577094  0.27445253  0.47727462  1  0  0.1165  0  0.950615  0  0  0.126481  0  1.010317  0  0  0.130794  0  1.006833  0  0  0.110815  0.122893  0  1.01338  0
H  H9  1  0.78422495  0.72554848  0.52272577  1  0  0.116511  0  0.950612  0  0  0.126484  0  1.010321  0  0  0.1308  0  1.006833  0  0  0.110807  0.122894  0  1.013378  0
H  H10  1  0.97518914  0.23560809  0.61455885  1  0  0.097886  0  0.910404  0  0  0.112667  0  0.96734  0  0  0.114611  0  0.966233  0  0  0.107658  0.110987  0  0.968561  0
H  H11  1  0.02481020  0.76439289  0.38544139  1  0  0.097862  0  0.910431  0  0  0.112647  0  0.967365  0  0  0.114593  0  0.966255  0  0  0.107652  0.110969  0  0.968589  0
H  H12  1  0.98014976  0.42672023  0.68341064  1  0  0.113684  0  0.931792  0  0  0.126197  0  0.993966  0  0  0.127313  0  0.99509  0  0  0.117534  0.124862  0  0.992856  0
H  H13  1  0.01984826  0.57327962  0.31659020  1  0  0.113696  0  0.931806  0  0  0.126212  0  0.993977  0  0  0.127327  0  0.995099  0  0  0.117541  0.124879  0  0.992862  0
H  H14  1  0.27774198  0.16505681  0.64416687  1  0  0.105275  0  0.922903  0  0  0.119658  0  0.97814  0  0  0.12238  0  0.975682  0  0  0.112864  0.11733  0  0.980609  0
H  H15  1  0.72225867  0.83494531  0.35583276  1  0  0.105308  0  0.922932  0  0  0.119705  0  0.978145  0  0  0.122425  0  0.975686  0  0  0.112892  0.117378  0  0.980607  0
H  H16  1  0.21266352  0.13413855  0.79280671  1  0  0.127604  0  0.918157  0  0  0.142728  0  0.976191  0  0  0.144726  0  0.975473  0  0  0.123679  0.140894  0  0.977135  0
H  H17  1  0.78733836  0.86586355  0.20719525  1  0  0.127635  0  0.918084  0  0  0.142785  0  0.976083  0  0  0.144784  0  0.975364  0  0  0.123693  0.140947  0  0.97704  0
H  H18  1  0.05244360  0.17441913  0.16407693  1  0  0.439733  0  0.854332  0  0  0.40856  0  0.917588  0  0  0.418851  0  0.902637  0  0  0.298684  0.401087  0  0.928518  0
H  H19  1  0.94755238  0.82557503  0.83592603  1  0  0.439692  0  0.854371  0  0  0.408526  0  0.917616  0  0  0.418817  0  0.902666  0  0  0.298678  0.401052  0  0.928545  0
H  H20  1  0.00651100  0.99797379  0.12977957  1  0  0.414797  0  0.870742  0  0  0.388546  0  0.93907  0  0  0.397222  0  0.926267  0  0  0.300888  0.382035  0  0.948828  0
H  H21  1  0.99348484  0.00202268  0.87020633  1  0  0.414801  0  0.870739  0  0  0.388546  0  0.939073  0  0  0.397221  0  0.92627  0  0  0.300905  0.382034  0  0.948833  0
H  H22  1  0.55160797  0.89450345  0.89092738  1  0  0.433719  0  0.860231  0  0  0.403156  0  0.924839  0  0  0.413253  0  0.910409  0  0  0.299331  0.395979  0  0.935062  0
H  H23  1  0.44839228  0.10549639  0.10907097  1  0  0.433766  0  0.860191  0  0  0.403201  0  0.924779  0  0  0.413298  0  0.91035  0  0  0.299361  0.396025  0  0.935004  0
H  H24  1  0.70235942  0.83836143  0.86245252  1  0  0.425774  0  0.883218  0  0  0.391231  0  0.952654  0  0  0.403219  0  0.935366  0  0  0.288622  0.382492  0  0.96529  0
H  H25  1  0.29763967  0.16163842  0.13754555  1  0  0.42576  0  0.883242  0  0  0.391197  0  0.952693  0  0  0.403186  0  0.935404  0  0  0.288616  0.382459  0  0.96533  0
C  C26  1  0.28016182  0.70696007  0.81146257  1  0  0.662237  0  3.861847  0  0  0.605511  0  4.154883  0  0  0.640629  0  4.146827  0  0  0.211991  0.582813  0  4.158038  0
C  C27  1  0.71984119  0.29304203  0.18853865  1  0  0.662102  0  3.862134  0  0  0.605414  0  4.155112  0  0  0.640534  0  4.147054  0  0  0.211935  0.582736  0  4.158253  0
C  C28  1  0.28794882  0.61936141  0.67971117  1  0  -0.12918  0  3.685415  0  0  -0.116394  0  3.93017  0  0  -0.124372  0  3.951381  0  0  -0.014069  -0.112315  0  3.916141  0
C  C29  1  0.71205496  0.38063840  0.32029009  1  0  -0.129124  0  3.685471  0  0  -0.116344  0  3.930232  0  0  -0.124322  0  3.951442  0  0  -0.014054  -0.112283  0  3.916214  0
C  C30  1  0.33834723  0.70713551  0.58411774  1  0  -0.048813  0  3.705684  0  0  -0.07262  0  3.959395  0  0  -0.072764  0  3.978556  0  0  -0.074982  -0.071764  0  3.947629  0
C  C31  1  0.66165772  0.29286429  0.41588380  1  0  -0.048792  0  3.705695  0  0  -0.072607  0  3.959424  0  0  -0.072748  0  3.97858  0  0  -0.07502  -0.071739  0  3.947664  0
C  C32  1  0.34388904  0.64254538  0.45405084  1  0  -0.06333  0  3.706805  0  0  -0.091781  0  3.964899  0  0  -0.09286  0  3.984467  0  0  -0.078707  -0.091569  0  3.952362  0
C  C33  1  0.65611030  0.35745561  0.54594939  1  0  -0.063395  0  3.706787  0  0  -0.09185  0  3.964863  0  0  -0.092934  0  3.984437  0  0  -0.078751  -0.091657  0  3.952326  0
C  C34  1  0.29638247  0.48539984  0.41602530  1  0  -0.045664  0  3.760452  0  0  -0.023539  0  3.999085  0  0  -0.028761  0  4.020992  0  0  -0.012028  -0.020721  0  3.984203  0
C  C35  1  0.70361532  0.51459887  0.58397439  1  0  -0.045693  0  3.760572  0  0  -0.023523  0  3.999116  0  0  -0.028735  0  4.021006  0  0  -0.011998  -0.020716  0  3.984245  0
C  C36  1  0.29154781  0.40950994  0.27370798  1  0  0.675741  0  3.864415  0  0  0.617989  0  4.162684  0  0  0.651982  0  4.155509  0  0  0.22313  0.595502  0  4.166159  0
C  C37  1  0.70845214  0.59048761  0.72629318  1  0  0.675613  0  3.864364  0  0  0.617905  0  4.162617  0  0  0.651897  0  4.155445  0  0  0.223056  0.59543  0  4.166075  0
C  C38  1  0.25023430  0.39632131  0.51115201  1  0  -0.148071  0  3.704141  0  0  -0.183161  0  3.957962  0  0  -0.186685  0  3.978511  0  0  -0.085212  -0.179674  0  3.943374  0
C  C39  1  0.74976371  0.60367854  0.48884883  1  0  -0.148019  0  3.704095  0  0  -0.183104  0  3.95791  0  0  -0.186625  0  3.978454  0  0  -0.085163  -0.179611  0  3.943306  0
C  C40  1  0.24678447  0.45934775  0.64329154  1  0  0.181876  0  3.685648  0  0  0.176926  0  3.934144  0  0  0.182285  0  3.957508  0  0  0.092918  0.17273  0  3.9179  0
C  C41  1  0.75321603  0.54065323  0.35670899  1  0  0.181848  0  3.685497  0  0  0.176827  0  3.934038  0  0  0.182186  0  3.957404  0  0  0.09288  0.172641  0  3.917785  0
C  C42  1  0.03092157  0.32217507  0.70736875  1  0  -0.16686  0  3.65091  0  0  -0.224866  0  3.908077  0  0  -0.226236  0  3.916007  0  0  -0.068774  -0.222949  0  3.901888  0
C  C43  1  0.96907679  0.67782706  0.29263133  1  0  -0.166804  0  3.650907  0  0  -0.224864  0  3.908087  0  0  -0.226231  0  3.916013  0  0  -0.068751  -0.222946  0  3.901899  0
C  C44  1  0.98919059  0.27157086  0.83759382  1  0  0.690293  0  3.831432  0  0  0.640765  0  4.130875  0  0  0.673872  0  4.124824  0  0  0.219063  0.618172  0  4.134322  0
C  C45  1  0.01081049  0.72842669  0.16240661  1  0  0.690299  0  3.831351  0  0  0.640774  0  4.130796  0  0  0.673884  0  4.124739  0  0  0.219045  0.618174  0  4.134251  0
C  C46  1  0.27726644  0.21930683  0.74725957  1  0  -0.185576  0  3.638761  0  0  -0.241001  0  3.888101  0  0  -0.242816  0  3.894755  0  0  -0.070719  -0.239461  0  3.883863  0
C  C47  1  0.72273425  0.78069529  0.25274109  1  0  -0.185715  0  3.638757  0  0  -0.241141  0  3.888105  0  0  -0.242955  0  3.894758  0  0  -0.07075  -0.239606  0  3.883884  0
C  C48  1  0.44444147  0.25094350  0.84948225  1  0  0.727314  0  3.796959  0  0  0.670895  0  4.099889  0  0  0.70619  0  4.091146  0  0  0.225079  0.646968  0  4.10469  0
C  C49  1  0.55556058  0.74905975  0.15051882  1  0  0.727568  0  3.796484  0  0  0.670978  0  4.099684  0  0  0.706275  0  4.090938  0  0  0.225119  0.64706  0  4.10447  0
N  N50  1  0.20255655  0.35802650  0.73840733  1  0  -0.226768  0  3.337427  0  0  -0.145935  0  3.579322  0  0  -0.161812  0  3.598615  0  0  -0.316698  -0.135446  0  3.565588  0
N  N51  1  0.79744320  0.64197676  0.26159418  1  0  -0.226854  0  3.337527  0  0  -0.145888  0  3.57927  0  0  -0.161782  0  3.598611  0  0  -0.316724  -0.135404  0  3.565538  0
O  O52  1  0.34384835  0.84483903  0.84337306  1  0  -0.606729  0  2.021221  0  0  -0.540085  0  2.250582  0  0  -0.566819  0  2.241738  0  0  -0.290666  -0.520836  0  2.255652  0
O  O53  1  0.65615331  0.15516193  0.15662775  1  0  -0.606693  0  2.021233  0  0  -0.540059  0  2.250575  0  0  -0.566801  0  2.241741  0  0  -0.29064  -0.520814  0  2.255641  0
O  O54  1  0.07747985  0.32782815  0.96013318  1  0  -0.608322  0  2.070891  0  0  -0.54223  0  2.327945  0  0  -0.569146  0  2.316119  0  0  -0.300193  -0.522614  0  2.33536  0
O  O55  1  0.92252123  0.67216940  0.03986725  1  0  -0.608388  0  2.070911  0  0  -0.542261  0  2.32792  0  0  -0.56918  0  2.316093  0  0  -0.300205  -0.522641  0  2.335334  0
O  O56  1  0.20314401  0.64453010  0.89062228  1  0  -0.665669  0  2.083945  0  0  -0.586312  0  2.358921  0  0  -0.615427  0  2.341889  0  0  -0.315272  -0.566242  0  2.368946  0
O  O57  1  0.79686017  0.35547199  0.10937923  1  0  -0.66556  0  2.083964  0  0  -0.586229  0  2.358942  0  0  -0.615342  0  2.341909  0  0  -0.315242  -0.566176  0  2.368975  0
O  O58  1  0.47330316  0.35531047  0.95427743  1  0  -0.67384  0  2.171852  0  0  -0.595016  0  2.453175  0  0  -0.62574  0  2.439042  0  0  -0.309615  -0.572865  0  2.461257  0
O  O59  1  0.52669750  0.64469165  0.04572220  1  0  -0.673876  0  2.171617  0  0  -0.595031  0  2.453076  0  0  -0.625744  0  2.438912  0  0  -0.309603  -0.572884  0  2.461155  0
O  O60  1  0.54133478  0.17008095  0.82716819  1  0  -0.616596  0  2.031164  0  0  -0.553039  0  2.292246  0  0  -0.580081  0  2.277401  0  0  -0.300624  -0.534232  0  2.302035  0
O  O61  1  0.45866739  0.82992344  0.17283097  1  0  -0.616706  0  2.031022  0  0  -0.553081  0  2.292193  0  0  -0.580125  0  2.277346  0  0  -0.300671  -0.534279  0  2.301976  0
O  O62  1  0.86484550  0.17358388  0.81387953  1  0  -0.650451  0  2.019586  0  0  -0.579381  0  2.27408  0  0  -0.607296  0  2.258941  0  0  -0.313258  -0.559714  0  2.284206  0
O  O63  1  0.13515461  0.82641482  0.18612074  1  0  -0.650427  0  2.019548  0  0  -0.579379  0  2.274062  0  0  -0.607292  0  2.258919  0  0  -0.313241  -0.559706  0  2.284182  0
O  O64  1  0.33407953  0.49645712  0.19074202  1  0  -0.62442  0  2.076253  0  0  -0.552322  0  2.347531  0  0  -0.581626  0  2.336115  0  0  -0.310568  -0.533689  0  2.35504  0
O  O65  1  0.66591926  0.50354044  0.80925885  1  0  -0.624169  0  2.075978  0  0  -0.552234  0  2.347369  0  0  -0.58154  0  2.335961  0  0  -0.310522  -0.533617  0  2.354896  0
O  O66  1  0.24677869  0.26639343  0.24799240  1  0  -0.642686  0  2.034545  0  0  -0.578264  0  2.252177  0  0  -0.602673  0  2.240211  0  0  -0.310959  -0.560423  0  2.259707  0
O  O67  1  0.75321929  0.73360643  0.75200742  1  0  -0.64268  0  2.034587  0  0  -0.57826  0  2.252204  0  0  -0.602669  0  2.240239  0  0  -0.310948  -0.560419  0  2.259722  0
O  O68  1  0.96038288  0.09185168  0.13014864  1  0  -0.83298  0  1.907452  0  0  -0.776082  0  2.111409  0  0  -0.796484  0  2.078716  0  0  -0.576944  -0.761715  0  2.135493  0
O  O69  1  0.03961301  0.90814248  0.86985127  1  0  -0.832963  0  1.907489  0  0  -0.776038  0  2.111389  0  0  -0.79644  0  2.078694  0  0  -0.576967  -0.761676  0  2.135474  0
O  O70  1  0.66813869  0.90926591  0.92814244  1  0  -0.841793  0  1.920712  0  0  -0.773515  0  2.137807  0  0  -0.797767  0  2.102769  0  0  -0.57634  -0.756304  0  2.162897  0
O  O71  1  0.33186175  0.09073507  0.07185605  1  0  -0.841819  0  1.920667  0  0  -0.773513  0  2.137796  0  0  -0.797763  0  2.102756  0  0  -0.576359  -0.756303  0  2.162883  0
