# generated using pymatgen
data_CuH16C11(N3Cl)2
_symmetry_space_group_name_H-M   'P 1'
_cell_length_a   8.78035207
_cell_length_b   12.02785520
_cell_length_c   14.07500000
_cell_angle_alpha   90.00000000
_cell_angle_beta   90.00000000
_cell_angle_gamma   98.80893027
_symmetry_Int_Tables_number   1
_chemical_formula_structural   CuH16C11(N3Cl)2
_chemical_formula_sum   'Cu4 H64 C44 N24 Cl8'
_cell_volume   1468.91059476
_cell_formula_units_Z   4
loop_
 _symmetry_equiv_pos_site_id
 _symmetry_equiv_pos_as_xyz
  1  'x, y, z'
loop_
 _atom_site_type_symbol
 _atom_site_label
 _atom_site_symmetry_multiplicity
 _atom_site_fract_x
 _atom_site_fract_y
 _atom_site_fract_z
 _atom_site_occupancy
 _atom_site_pbe_bader_charge
 _atom_site_pbe_bader_spin_density
 _atom_site_pbe_cm5_charge
 _atom_site_pbe_ddec_charge
 _atom_site_pbe_ddec_spin_density
 _atom_site_pbe_ddec_sum_bond_order
 _atom_site_pbe_magmom
Cu  Cu0  1  0.37074960  0.11860948  0.23056980  1  0.922961  -0.001138  0.640759  0.619102  -0.001461  2.535177  -0.001
Cu  Cu1  1  0.62999741  0.38155286  0.73063588  1  0.949048  -0.459286  0.653277  0.64268  -0.599107  2.519144  -0.458
Cu  Cu2  1  0.63000998  0.88155198  0.76936554  1  0.949206  0.45931  0.653227  0.642488  0.599126  2.519306  0.458
Cu  Cu3  1  0.37073853  0.61861533  0.26943659  1  0.922874  0.001143  0.640507  0.618784  0.001459  2.53488  0.001
H  H4  1  0.45081669  0.13582892  0.40469982  1  0.480532  -2e-06  0.277117  0.243494  -3e-06  1.056231  0.0
H  H5  1  0.54927061  0.36420721  0.90505506  1  0.479672  0.000276  0.278005  0.243505  0.000431  1.053789  0.0
H  H6  1  0.54928636  0.86422148  0.59494849  1  0.479692  -0.000276  0.278032  0.243583  -0.000431  1.053797  0.0
H  H7  1  0.45081219  0.63582804  0.09529734  1  0.480534  2e-06  0.2771  0.243441  3e-06  1.056231  0.0
H  H8  1  0.82370292  0.35849713  0.33083623  1  0.492995  0.0  0.338952  0.29131  2e-06  0.902181  0.0
H  H9  1  0.17670452  0.14149610  0.83091794  1  0.451128  -2.1e-05  0.338997  0.290623  -2.6e-05  0.903417  0.0
H  H10  1  0.17671537  0.64150869  0.66907069  1  0.451405  2e-05  0.339015  0.290622  2.5e-05  0.903342  0.0
H  H11  1  0.82369763  0.85849793  0.16916519  1  0.492966  -0.0  0.338929  0.291308  -2e-06  0.902206  0.0
H  H12  1  0.71854571  0.45580336  0.48223233  1  0.49683  2e-05  0.273466  0.254985  1e-06  1.029374  0.0
H  H13  1  0.28065307  0.04423194  0.98179396  1  0.498919  0.000686  0.273462  0.254753  0.000383  1.030489  0.001
H  H14  1  0.28065076  0.54423611  0.51820746  1  0.499283  -0.000685  0.273439  0.254701  -0.000383  1.030525  -0.001
H  H15  1  0.71853366  0.95579911  0.01776767  1  0.496748  -2.2e-05  0.273441  0.254995  -1e-06  1.029368  0.0
H  H16  1  0.23126090  0.35028325  0.19660959  1  0.174753  1.2e-05  0.121778  0.098534  1.3e-05  1.015215  0.0
H  H17  1  0.76801415  0.15013738  0.69661954  1  0.180147  -0.000241  0.121539  0.098084  -0.000199  1.016293  0.0
H  H18  1  0.76802243  0.65013229  0.80337833  1  0.180099  0.000241  0.121524  0.098086  0.000199  1.016318  0.0
H  H19  1  0.23125875  0.85027732  0.30339751  1  0.175079  -1.3e-05  0.1218  0.098577  -1.3e-05  1.015262  0.0
H  H20  1  0.59307206  0.98839129  0.42012647  1  0.054854  1.8e-05  0.112045  0.094439  1.2e-05  0.969594  0.0
H  H21  1  0.40681011  0.51172890  0.92013854  1  0.054496  5.4e-05  0.112149  0.094356  4.2e-05  0.969989  0.0
H  H22  1  0.40682919  0.01174493  0.57986714  1  0.054354  -5.5e-05  0.112074  0.094371  -4.2e-05  0.97  0.0
H  H23  1  0.59307087  0.48839217  0.07986785  1  0.054784  -1.8e-05  0.112046  0.094455  -1.1e-05  0.969552  0.0
H  H24  1  0.67827741  0.07592221  0.51358863  1  0.107782  0.000165  0.098853  0.085811  0.000138  1.006289  0.0
H  H25  1  0.32166005  0.42409457  0.01365187  1  0.105822  0.000101  0.098934  0.085549  5.3e-05  1.006723  0.0
H  H26  1  0.32167993  0.92411220  0.48634813  1  0.105926  -0.0001  0.098892  0.085578  -5.3e-05  1.006658  0.0
H  H27  1  0.67827720  0.57592554  0.98640710  1  0.107657  -0.000166  0.098819  0.085731  -0.000139  1.006363  0.0
H  H28  1  0.79879422  0.06392405  0.30967460  1  0.048283  1.1e-05  0.093524  0.09541  -2.3e-05  0.986597  0.0
H  H29  1  0.20113064  0.43598926  0.80967744  1  0.048103  4.4e-05  0.093579  0.095633  5.2e-05  0.986147  0.0
H  H30  1  0.20114227  0.93600016  0.69032398  1  0.048074  -4.4e-05  0.093584  0.095539  -5.2e-05  0.986195  0.0
H  H31  1  0.79878701  0.56392653  0.19032256  1  0.048302  -1e-05  0.093502  0.095359  2.4e-05  0.986604  0.0
H  H32  1  0.89144434  0.03304397  0.41672185  1  0.077622  0.000555  0.09817  0.114987  0.000447  0.994158  0.0
H  H33  1  0.10851235  0.46676585  0.91671972  1  0.076501  -0.000531  0.097911  0.114802  -0.000474  0.994841  0.0
H  H34  1  0.10852627  0.96678769  0.58328099  1  0.079779  0.000529  0.097849  0.114654  0.000473  0.994764  0.0
H  H35  1  0.89144264  0.53304561  0.08327744  1  0.077283  -0.000556  0.098169  0.114947  -0.000448  0.994244  0.0
H  H36  1  0.91864837  0.23097126  0.46780178  1  0.097218  -7e-05  0.102076  0.094135  -7.8e-05  1.013843  0.0
H  H37  1  0.08117017  0.26890755  0.96780817  1  0.097493  -1.5e-05  0.102151  0.093955  -1.2e-05  1.014296  0.0
H  H38  1  0.08119171  0.76892770  0.53218828  1  0.097513  1.5e-05  0.102145  0.093956  1.2e-05  1.014296  0.0
H  H39  1  0.91864895  0.73097290  0.03219609  1  0.09713  6.9e-05  0.102086  0.094199  7.7e-05  1.013756  0.0
H  H40  1  0.99594596  0.22549338  0.35046110  1  0.104455  -6e-06  0.110647  0.100203  -8e-06  0.976635  0.0
H  H41  1  0.00423472  0.27430382  0.85029130  1  0.104811  2.4e-05  0.110677  0.100481  5.4e-05  0.975796  0.0
H  H42  1  0.00424705  0.77431809  0.64970089  1  0.104939  -2.5e-05  0.110678  0.100507  -5.5e-05  0.975731  0.0
H  H43  1  0.99594102  0.72549586  0.14953890  1  0.104539  7e-06  0.110657  0.100242  9e-06  0.976596  0.0
H  H44  1  0.91784650  0.60965772  0.50340959  1  0.067366  2e-06  0.095964  0.081378  1e-06  1.013273  0.0
H  H45  1  0.08207087  0.89027738  0.00368952  1  0.067505  -0.000104  0.09616  0.081768  -5e-05  1.012921  0.0
H  H46  1  0.08206513  0.39027826  0.49631616  1  0.067691  0.000104  0.096169  0.08174  5e-05  1.01287  0.0
H  H47  1  0.91783803  0.10965103  0.99658899  1  0.067466  -3e-06  0.095981  0.081414  -1e-06  1.013141  0.0
H  H48  1  0.75209879  0.64876682  0.55975986  1  0.049957  -2.7e-05  0.094666  0.072635  -4.4e-05  1.004381  0.0
H  H49  1  0.24831662  0.85144676  0.05977975  1  0.050152  -0.000132  0.0945  0.072648  -7.4e-05  1.004759  0.0
H  H50  1  0.24831439  0.35145353  0.44022522  1  0.050271  0.000132  0.094525  0.072637  7.4e-05  1.004751  0.0
H  H51  1  0.75208858  0.14876265  0.94023872  1  0.049963  2.6e-05  0.094663  0.072599  4.4e-05  1.0044  0.0
H  H52  1  0.88324931  0.71916403  0.36337549  1  0.03469  4e-05  0.087645  0.097001  4e-06  0.991987  0.0
H  H53  1  0.11684946  0.78091914  0.86345861  1  0.036379  -7e-05  0.087531  0.096677  -6.6e-05  0.992396  0.0
H  H54  1  0.11685414  0.28092086  0.63654423  1  0.035859  7e-05  0.087543  0.096706  6.6e-05  0.992409  0.0
H  H55  1  0.88324497  0.21916071  0.13662380  1  0.034786  -3.9e-05  0.087616  0.096958  -4e-06  0.991885  0.0
H  H56  1  0.85637654  0.80743357  0.46161279  1  0.058227  0.000621  0.090217  0.101205  0.00056  1.012695  0.0
H  H57  1  0.14310556  0.69264708  0.96169663  1  0.05603  0.00143  0.090104  0.100848  0.000705  1.013286  0.001
H  H58  1  0.14310850  0.19265133  0.53830764  1  0.055764  -0.00143  0.090063  0.100843  -0.000705  1.013261  -0.001
H  H59  1  0.85636781  0.30743108  0.03838224  1  0.058289  -0.000623  0.090192  0.101208  -0.000561  1.0126  0.0
H  H60  1  0.57343374  0.76118497  0.44908490  1  0.039559  -8e-06  0.09451  0.072391  6e-06  0.999283  0.0
H  H61  1  0.42584821  0.73771362  0.94967531  1  0.045628  0.000184  0.094351  0.072232  3.2e-05  0.99888  0.0
H  H62  1  0.42585343  0.23771786  0.55033179  1  0.045729  -0.000184  0.094336  0.07222  -3.1e-05  0.998858  0.0
H  H63  1  0.57342826  0.26118164  0.05091297  1  0.039516  8e-06  0.094597  0.072466  -6e-06  0.999318  0.0
H  H64  1  0.64843318  0.80785928  0.33730373  1  -0.001783  1e-05  0.093733  0.064202  -3e-06  1.01654  0.0
H  H65  1  0.35140428  0.69212378  0.83741883  1  -0.003774  0.001612  0.093667  0.064496  0.000736  1.015279  0.001
H  H66  1  0.35140372  0.19213307  0.66258615  1  -0.003833  -0.001612  0.093636  0.064418  -0.000735  1.015294  -0.001
H  H67  1  0.64842524  0.30785511  0.16269272  1  -0.00173  -9e-06  0.093698  0.064189  4e-06  1.016697  0.0
C  C68  1  0.32913218  0.36144766  0.24448242  1  0.97992  2.6e-05  0.136029  0.168612  2.4e-05  3.962249  0.0
C  C69  1  0.67031545  0.13867177  0.74461243  1  0.946617  0.000524  0.135286  0.171097  0.000759  3.961854  0.001
C  C70  1  0.67032058  0.63867341  0.75538544  1  0.94658  -0.000525  0.135308  0.171051  -0.00076  3.962045  -0.001
C  C71  1  0.32912765  0.86143584  0.25552114  1  0.97942  -2.4e-05  0.136017  0.16844  -2.2e-05  3.962265  0.0
C  C72  1  0.51819739  0.43997294  0.33563055  1  0.38477  1.3e-05  0.080094  0.022354  1.3e-05  4.023156  0.0
C  C73  1  0.48147379  0.05978976  0.83544583  1  0.386172  -6e-05  0.079388  0.022491  4.2e-05  4.021172  0.0
C  C74  1  0.48146885  0.55979225  0.66455702  1  0.386129  6.1e-05  0.079432  0.022482  -4.1e-05  4.02109  0.0
C  C75  1  0.51819954  0.93997122  0.16436377  1  0.384709  -9e-06  0.080015  0.022271  -1e-05  4.023041  0.0
C  C76  1  0.52587760  0.32540099  0.32865933  1  0.419462  1.1e-05  0.072511  -0.022059  1.1e-05  4.033776  0.0
C  C77  1  0.47434804  0.17463767  0.82908490  1  0.421082  -0.001567  0.072147  -0.020561  -0.00142  4.034856  -0.002
C  C78  1  0.47435634  0.67464352  0.67091794  1  0.421466  0.001564  0.07208  -0.02069  0.00142  4.034905  0.002
C  C79  1  0.52586337  0.82540264  0.17134281  1  0.419752  -9e-06  0.072462  -0.022052  -9e-06  4.034119  0.0
C  C80  1  0.63091534  0.25355753  0.36719432  1  1.196422  2.6e-05  0.275236  0.3655  1e-05  4.068556  0.0
C  C81  1  0.36931811  0.24637176  0.86764050  1  1.200144  0.000106  0.275068  0.364404  0.000173  4.070189  0.0
C  C82  1  0.36932974  0.74638265  0.63235950  1  1.198966  -0.000105  0.275031  0.364482  -0.000172  4.069947  0.0
C  C83  1  0.63091040  0.75356002  0.13280284  1  1.196402  -2.4e-05  0.275354  0.36547  -8e-06  4.06864  0.0
C  C84  1  0.66082945  0.07072702  0.43617762  1  0.274549  0.000274  -0.059064  -0.007917  0.000301  3.880196  0.0
C  C85  1  0.33914833  0.42935707  0.93627567  1  0.277329  9e-06  -0.059034  -0.007889  3.7e-05  3.879784  0.0
C  C86  1  0.33917023  0.92937891  0.56373073  1  0.277453  -9e-06  -0.058944  -0.00817  -3.7e-05  3.879696  0.0
C  C87  1  0.66082661  0.57072866  0.06381741  1  0.274588  -0.000275  -0.059035  -0.007902  -0.000302  3.88002  0.0
C  C88  1  0.81520579  0.08695370  0.38501456  1  -0.029323  0.000334  -0.159534  -0.194697  0.000341  3.922289  0.0
C  C89  1  0.18479857  0.41292595  0.88502877  1  -0.027715  -0.000434  -0.159458  -0.19428  -0.000328  3.920271  0.0
C  C90  1  0.18481792  0.91294106  0.61497194  1  -0.031212  0.000434  -0.159239  -0.193681  0.000327  3.920053  0.0
C  C91  1  0.81520391  0.58695450  0.11498188  1  -0.028888  -0.000334  -0.159473  -0.194535  -0.000341  3.922233  0.0
C  C92  1  0.89054052  0.20939795  0.39324192  1  0.264362  -9.4e-05  -0.058033  -0.011491  -8.9e-05  3.862995  0.0
C  C93  1  0.10944189  0.29045310  0.89326892  1  0.264086  -4e-06  -0.058067  -0.011471  -4.1e-05  3.860315  0.0
C  C94  1  0.10945967  0.79047157  0.60672824  1  0.263792  5e-06  -0.058168  -0.011731  4.1e-05  3.860574  0.0
C  C95  1  0.89053654  0.70939959  0.10675595  1  0.264415  9.3e-05  -0.058107  -0.011637  8.9e-05  3.86304  0.0
C  C96  1  0.60562269  0.53998404  0.38024298  1  1.174096  2.1e-05  0.234205  0.321947  2e-05  4.13883  0.0
C  C97  1  0.39437330  0.95985347  0.88037513  1  1.170072  0.000325  0.234843  0.323343  0.001322  4.138198  0.0
C  C98  1  0.39436740  0.45986444  0.61962842  1  1.169941  -0.000329  0.234882  0.323491  -0.001324  4.13825  0.0
C  C99  1  0.60561053  0.03997062  0.11975346  1  1.173572  -1.9e-05  0.234311  0.322052  -1.8e-05  4.138585  0.0
C  C100  1  0.80193466  0.63009440  0.49076661  1  0.30539  -5e-06  -0.066357  -0.001622  -2.5e-05  3.904951  0.0
C  C101  1  0.19798573  0.86992568  0.99089094  1  0.303799  -5.6e-05  -0.066572  -0.002424  -6.4e-05  3.905293  0.0
C  C102  1  0.19798639  0.36992992  0.50911332  1  0.303509  5.6e-05  -0.066572  -0.002289  6.3e-05  3.905119  0.0
C  C103  1  0.80192260  0.13008687  0.00923268  1  0.305281  3e-06  -0.066443  -0.001705  2.4e-05  3.905206  0.0
C  C104  1  0.80782929  0.73009035  0.42403410  1  -0.031536  0.000669  -0.168669  -0.209306  0.00045  3.93867  0.001
C  C105  1  0.19211855  0.76988681  0.92417407  1  -0.031281  0.005596  -0.168931  -0.208883  0.003913  3.939197  0.004
C  C106  1  0.19212017  0.26989022  0.57583020  1  -0.030487  -0.005597  -0.168897  -0.20892  -0.003915  3.939198  -0.004
C  C107  1  0.80781705  0.23008198  0.07596306  1  -0.031359  -0.00067  -0.168606  -0.209276  -0.00045  3.938548  -0.001
C  C108  1  0.64548397  0.73979254  0.38962131  1  0.345536  1.7e-05  -0.073733  0.004419  1e-05  3.948525  0.0
C  C109  1  0.35453137  0.75986577  0.89009591  1  0.340648  0.003328  -0.073938  0.004807  0.002932  3.94782  0.002
C  C110  1  0.35453545  0.25987001  0.60990906  1  0.340476  -0.003329  -0.073901  0.004987  -0.002933  3.947618  -0.002
C  C111  1  0.64547596  0.23980436  0.11037229  1  0.345301  -1.7e-05  -0.07375  0.004482  -1e-05  3.948206  0.0
N  N112  1  0.40542396  0.27803511  0.27072327  1  -1.159063  -9.9e-05  -0.373259  -0.295136  -6.4e-05  3.634087  0.0
N  N113  1  0.59479313  0.22231569  0.77148348  1  -1.141159  -0.055314  -0.377089  -0.305289  -0.037881  3.641625  -0.048
N  N114  1  0.59480448  0.72231985  0.72851439  1  -1.14136  0.055306  -0.377067  -0.305198  0.037872  3.641749  0.048
N  N115  1  0.40543068  0.77804432  0.22927389  1  -1.159525  9.5e-05  -0.373243  -0.294913  6.2e-05  3.634636  0.0
N  N116  1  0.39331814  0.45988463  0.28255560  1  -1.164463  0.000179  -0.377743  -0.302976  0.000122  3.643909  0.0
N  N117  1  0.60590212  0.03993276  0.78209449  1  -1.17346  0.06699  -0.3814  -0.311308  0.045394  3.651157  0.058
N  N118  1  0.60589867  0.53993693  0.71790622  1  -1.173279  -0.067004  -0.38144  -0.311345  -0.045405  3.651242  -0.058
N  N119  1  0.39330656  0.95989890  0.21744654  1  -1.164182  -0.000182  -0.377768  -0.303051  -0.000124  3.643034  0.0
N  N120  1  0.57007492  0.15648603  0.40592753  1  -1.233098  4.1e-05  -0.400741  -0.302025  -5e-06  3.590485  0.0
N  N121  1  0.43005959  0.34360143  0.90615631  1  -1.235198  0.001774  -0.400587  -0.301657  0.001162  3.591094  0.001
N  N122  1  0.43007701  0.84361821  0.59384796  1  -1.234295  -0.001773  -0.400646  -0.301646  -0.001161  3.590918  -0.001
N  N123  1  0.57007279  0.65649104  0.09407034  1  -1.233026  -3.8e-05  -0.400759  -0.301925  7e-06  3.590679  0.0
N  N124  1  0.78286287  0.28238729  0.35945293  1  -1.255255  -2.7e-05  -0.394742  -0.29097  -2.7e-05  3.541551  0.0
N  N125  1  0.21737871  0.21753190  0.85972291  1  -1.213844  -0.000162  -0.394555  -0.289774  -0.000133  3.540029  0.0
N  N126  1  0.21738780  0.71754700  0.64027353  1  -1.213768  0.000162  -0.394533  -0.289738  0.000134  3.539896  0.0
N  N127  1  0.78286248  0.78238978  0.14054494  1  -1.255207  2.8e-05  -0.394691  -0.290919  2.8e-05  3.541431  0.0
N  N128  1  0.71039031  0.53089939  0.44835666  1  -1.254165  6.5e-05  -0.419169  -0.321874  4.5e-05  3.546509  0.0
N  N129  1  0.28898975  0.96908030  0.94810160  1  -1.258191  0.002119  -0.419786  -0.323001  0.001162  3.549511  0.002
N  N130  1  0.28898506  0.46908623  0.55190551  1  -1.25868  -0.002121  -0.419811  -0.323108  -0.001162  3.549883  -0.002
N  N131  1  0.71038062  0.03089774  0.05164192  1  -1.254365  -6.4e-05  -0.419086  -0.321858  -4.4e-05  3.546743  0.0
N  N132  1  0.57199948  0.63538130  0.34619538  1  -1.158513  0.000153  -0.393345  -0.384426  0.000102  3.466669  0.0
N  N133  1  0.42905113  0.86433674  0.84715950  1  -1.157025  0.08873  -0.393712  -0.388296  0.059072  3.46228  0.075
N  N134  1  0.42904986  0.36434267  0.65284547  1  -1.156551  -0.088749  -0.393736  -0.388445  -0.059085  3.462256  -0.075
N  N135  1  0.57197324  0.13538218  0.15380888  1  -1.157624  -0.000154  -0.393441  -0.384527  -0.000102  3.465742  0.0
Cl  Cl136  1  0.19560903  0.14436167  0.09654281  1  -0.726394  0.001428  -0.379051  -0.60784  0.000935  1.049463  0.001
Cl  Cl137  1  0.80499489  0.35589490  0.59670764  1  -0.72821  -0.002241  -0.38011  -0.610689  -0.001566  1.049498  -0.003
Cl  Cl138  1  0.80500326  0.85589570  0.90328952  1  -0.728188  0.00225  -0.380091  -0.61065  0.001572  1.049606  0.003
Cl  Cl139  1  0.19562467  0.64435910  0.40346075  1  -0.726343  -0.001429  -0.379016  -0.60775  -0.000937  1.049579  -0.001
Cl  Cl140  1  0.21733655  0.07737014  0.36989130  1  -0.638418  -0.000329  -0.298098  -0.51021  -0.000264  1.148446  0.0
Cl  Cl141  1  0.78391286  0.42381357  0.87001208  1  -0.642642  -0.097107  -0.301004  -0.515024  -0.0645  1.140718  -0.076
Cl  Cl142  1  0.78391844  0.92382278  0.62998011  1  -0.642716  0.097107  -0.300978  -0.515018  0.064499  1.140758  0.076
Cl  Cl143  1  0.21733073  0.57736842  0.13010728  1  -0.63849  0.000326  -0.298127  -0.510246  0.000261  1.148445  0.0
