# generated using pymatgen
data_Cd3H22(C15O8)2
_symmetry_space_group_name_H-M   'P 1'
_cell_length_a   7.93878724
_cell_length_b   9.80235171
_cell_length_c   11.09619388
_cell_angle_alpha   68.49647120
_cell_angle_beta   74.91711722
_cell_angle_gamma   74.05322051
_symmetry_Int_Tables_number   1
_chemical_formula_structural   Cd3H22(C15O8)2
_chemical_formula_sum   'Cd3 H22 C30 O16'
_cell_volume   760.09430885
_cell_formula_units_Z   1
loop_
 _symmetry_equiv_pos_site_id
 _symmetry_equiv_pos_as_xyz
  1  'x, y, z'
loop_
 _atom_site_type_symbol
 _atom_site_label
 _atom_site_symmetry_multiplicity
 _atom_site_fract_x
 _atom_site_fract_y
 _atom_site_fract_z
 _atom_site_occupancy
 _atom_site_hle17_bader_spin_density
 _atom_site_hle17_ddec_charge
 _atom_site_hle17_ddec_spin_density
 _atom_site_hle17_ddec_sum_bond_order
 _atom_site_hle17_magmom
 _atom_site_hse06_10hf_bader_spin_density
 _atom_site_hse06_10hf_ddec_charge
 _atom_site_hse06_10hf_ddec_spin_density
 _atom_site_hse06_10hf_ddec_sum_bond_order
 _atom_site_hse06_10hf_magmom
 _atom_site_hse06_bader_spin_density
 _atom_site_hse06_ddec_charge
 _atom_site_hse06_ddec_spin_density
 _atom_site_hse06_ddec_sum_bond_order
 _atom_site_hse06_magmom
 _atom_site_pbe_bader_spin_density
 _atom_site_pbe_cm5_charge
 _atom_site_pbe_ddec_charge
 _atom_site_pbe_ddec_spin_density
 _atom_site_pbe_ddec_sum_bond_order
 _atom_site_pbe_magmom
Cd  Cd0  1  0.17036260  0.09368689  0.49642703  1  0  1.243265  0  1.573086  0  0  1.06706  0  2.00888  0  0  1.128757  0  1.948012  0  0  0.771778  1.022497  0  2.050776  0
Cd  Cd1  1  0.82963481  0.90630993  0.50357045  1  0  1.24332  0  1.573033  0  0  1.06713  0  2.008816  0  0  1.128824  0  1.947948  0  0  0.771811  1.022567  0  2.05072  0
Cd  Cd2  1  0.99999718  0.50000203  0.49999949  1  0  1.332734  0  1.575378  0  0  1.167127  0  2.034001  0  0  1.221198  0  1.971299  0  0  0.798837  1.128235  0  2.077533  0
H  H3  1  0.91686224  0.34940791  0.82716017  1  0  0.118192  0  0.975372  0  0  0.124561  0  1.04317  0  0  0.128473  0  1.040513  0  0  0.106273  0.121559  0  1.045562  0
H  H4  1  0.08312259  0.65058781  0.17284564  1  0  0.118166  0  0.975393  0  0  0.124517  0  1.043207  0  0  0.128433  0  1.040545  0  0  0.10626  0.121493  0  1.045622  0
H  H5  1  0.33361639  0.96143427  0.92271665  1  0  0.103149  0  0.945625  0  0  0.113161  0  1.007026  0  0  0.116482  0  1.005165  0  0  0.1055  0.110649  0  1.008545  0
H  H6  1  0.66637819  0.03856794  0.07727586  1  0  0.103143  0  0.945653  0  0  0.113186  0  1.007012  0  0  0.116491  0  1.005169  0  0  0.105519  0.110671  0  1.008534  0
H  H7  1  0.25740111  0.95694658  0.15802978  1  0  0.10553  0  0.930836  0  0  0.118143  0  0.98471  0  0  0.121545  0  0.982824  0  0  0.106731  0.115438  0  0.98655  0
H  H8  1  0.74260953  0.04304922  0.84196270  1  0  0.105503  0  0.930827  0  0  0.118123  0  0.984707  0  0  0.121525  0  0.98282  0  0  0.106708  0.115414  0  0.986552  0
H  H9  1  0.66373983  0.20589965  0.22582998  1  0  0.105046  0  0.982253  0  0  0.110158  0  1.055508  0  0  0.113564  0  1.053021  0  0  0.098531  0.107605  0  1.057346  0
H  H10  1  0.33625377  0.79409730  0.77417273  1  0  0.10502  0  0.982261  0  0  0.110128  0  1.055504  0  0  0.113535  0  1.053018  0  0  0.098542  0.107566  0  1.057361  0
H  H11  1  0.38058079  0.66119928  0.16593673  1  0  0.095131  0  0.952562  0  0  0.106494  0  1.012996  0  0  0.109538  0  1.010818  0  0  0.102565  0.104143  0  1.014924  0
H  H12  1  0.61943158  0.33880175  0.83406887  1  0  0.095163  0  0.952621  0  0  0.106568  0  1.01301  0  0  0.109611  0  1.010834  0  0  0.102588  0.104216  0  1.014945  0
H  H13  1  0.62024002  0.74739528  0.97677758  1  0  0.079155  0  0.968512  0  0  0.091145  0  1.027657  0  0  0.092949  0  1.028459  0  0  0.094255  0.089985  0  1.026866  0
H  H14  1  0.37977558  0.25260368  0.02323081  1  0  0.07916  0  0.968614  0  0  0.091138  0  1.027759  0  0  0.092933  0  1.028559  0  0  0.094267  0.089973  0  1.026969  0
H  H15  1  0.87874378  0.56299444  0.91266532  1  0  0.104834  0  0.987151  0  0  0.111441  0  1.0543  0  0  0.114818  0  1.052469  0  0  0.100077  0.108891  0  1.056108  0
H  H16  1  0.12126701  0.43699754  0.08734293  1  0  0.104877  0  0.987145  0  0  0.11146  0  1.054319  0  0  0.11483  0  1.052508  0  0  0.100092  0.108909  0  1.056129  0
H  H17  1  0.45472400  0.83687081  0.54339064  1  0  0.420095  0  0.888388  0  0  0.388353  0  0.954083  0  0  0.399036  0  0.938821  0  0  0.287792  0.380791  0  0.964863  0
H  H18  1  0.54527364  0.16313075  0.45661051  1  0  0.420111  0  0.888369  0  0  0.388373  0  0.95406  0  0  0.399057  0  0.938798  0  0  0.287784  0.380814  0  0.964836  0
H  H19  1  0.47620530  0.91329896  0.39354496  1  0  0.427926  0  0.85769  0  0  0.402577  0  0.9147  0  0  0.412663  0  0.900113  0  0  0.296666  0.39539  0  0.925093  0
H  H20  1  0.52379636  0.08669693  0.60645470  1  0  0.427938  0  0.857697  0  0  0.402582  0  0.914703  0  0  0.41267  0  0.900114  0  0  0.29665  0.395393  0  0.925097  0
H  H21  1  0.27514020  0.63992162  0.49851216  1  0  0.435793  0  0.81237  0  0  0.416935  0  0.868898  0  0  0.425619  0  0.858367  0  0  0.318803  0.410738  0  0.875978  0
H  H22  1  0.72485475  0.36008988  0.50148327  1  0  0.435783  0  0.812357  0  0  0.416936  0  0.868864  0  0  0.425621  0  0.85836  0  0  0.318804  0.410742  0  0.875947  0
H  H23  1  0.13776444  0.62625783  0.63096853  1  0  0.433884  0  0.869639  0  0  0.401482  0  0.935719  0  0  0.412045  0  0.920537  0  0  0.292131  0.393952  0  0.946534  0
H  H24  1  0.86223632  0.37374137  0.36902923  1  0  0.433851  0  0.869693  0  0  0.40145  0  0.935767  0  0  0.412012  0  0.920588  0  0  0.292115  0.393922  0  0.94658  0
C  C25  1  0.02989590  0.15942359  0.25864748  1  0  0.667313  0  3.873794  0  0  0.611822  0  4.170011  0  0  0.646868  0  4.162743  0  0  0.215355  0.587695  0  4.173963  0
C  C26  1  0.97011228  0.84057249  0.74135261  1  0  0.667398  0  3.873552  0  0  0.611889  0  4.169761  0  0  0.646929  0  4.1625  0  0  0.215431  0.587774  0  4.173696  0
C  C27  1  0.04723101  0.15174678  0.12356722  1  0  -0.090907  0  3.688544  0  0  -0.075331  0  3.926684  0  0  -0.081996  0  3.947445  0  0  -0.007553  -0.070935  0  3.913034  0
C  C28  1  0.95277304  0.84825468  0.87642817  1  0  -0.09106  0  3.6888  0  0  -0.075419  0  3.926811  0  0  -0.08208  0  3.947571  0  0  -0.00761  -0.07102  0  3.913157  0
C  C29  1  0.94804067  0.26318063  0.03074234  1  0  0.056592  0  3.737357  0  0  0.063621  0  3.971075  0  0  0.064556  0  3.994556  0  0  0.007889  0.062821  0  3.956573  0
C  C30  1  0.05196019  0.73681883  0.96926072  1  0  0.056556  0  3.737445  0  0  0.063666  0  3.971028  0  0  0.064602  0  3.994504  0  0  0.007853  0.06286  0  3.956522  0
C  C31  1  0.99376667  0.26538745  0.89951301  1  0  -0.098943  0  3.65005  0  0  -0.131237  0  3.897567  0  0  -0.132413  0  3.916987  0  0  -0.075599  -0.130659  0  3.886174  0
C  C32  1  0.00622788  0.73461052  0.10048643  1  0  -0.098887  0  3.649999  0  0  -0.131114  0  3.897538  0  0  -0.132291  0  3.916958  0  0  -0.075602  -0.130522  0  3.886159  0
C  C33  1  0.13282568  0.15840865  0.86020017  1  0  -0.049373  0  3.748699  0  0  -0.024804  0  3.981856  0  0  -0.032173  0  4.004899  0  0  -0.012758  -0.020231  0  3.966495  0
C  C34  1  0.86716767  0.84159370  0.13979614  1  0  -0.049286  0  3.748427  0  0  -0.024945  0  3.981894  0  0  -0.032311  0  4.004925  0  0  -0.012717  -0.02037  0  3.966526  0
C  C35  1  0.22779181  0.04597151  0.95367183  1  0  -0.070095  0  3.727982  0  0  -0.098573  0  3.985635  0  0  -0.099115  0  4.006461  0  0  -0.082158  -0.09753  0  3.971273  0
C  C36  1  0.77220538  0.95403079  0.04632103  1  0  -0.070177  0  3.727987  0  0  -0.098602  0  3.985707  0  0  -0.099132  0  4.006539  0  0  -0.08221  -0.097556  0  3.971348  0
C  C37  1  0.18398303  0.04256165  0.08436924  1  0  -0.070535  0  3.734207  0  0  -0.093904  0  3.991389  0  0  -0.095024  0  4.011122  0  0  -0.081571  -0.093002  0  3.978156  0
C  C38  1  0.81602294  0.95744189  0.91562051  1  0  -0.070431  0  3.734278  0  0  -0.093844  0  3.991438  0  0  -0.094967  0  4.011167  0  0  -0.081513  -0.092944  0  3.97821  0
C  C39  1  0.16916952  0.15337263  0.72276603  1  0  0.666811  0  3.861012  0  0  0.614884  0  4.147641  0  0  0.650472  0  4.140689  0  0  0.211994  0.590876  0  4.151104  0
C  C40  1  0.83081839  0.84663088  0.27723367  1  0  0.666943  0  3.86072  0  0  0.615041  0  4.147417  0  0  0.650626  0  4.140468  0  0  0.212095  0.59103  0  4.15089  0
C  C41  1  0.79334733  0.37299158  0.06936698  1  0  0.0458  0  3.789904  0  0  0.064827  0  4.023356  0  0  0.062725  0  4.04726  0  0  -0.008915  0.065994  0  4.007253  0
C  C42  1  0.20665763  0.62700241  0.93063902  1  0  0.045708  0  3.789859  0  0  0.064645  0  4.023439  0  0  0.062538  0  4.047351  0  0  -0.008967  0.065818  0  4.007326  0
C  C43  1  0.65757510  0.32513583  0.17406952  1  0  -0.109883  0  3.694008  0  0  -0.14383  0  3.942557  0  0  -0.143706  0  3.962641  0  0  -0.088172  -0.143514  0  3.92863  0
C  C44  1  0.34242664  0.67486027  0.82593456  1  0  -0.109746  0  3.694104  0  0  -0.143722  0  3.942686  0  0  -0.143598  0  3.962773  0  0  -0.088177  -0.143403  0  3.928738  0
C  C45  1  0.50860834  0.42866383  0.20772740  1  0  -0.079263  0  3.783845  0  0  -0.05321  0  4.017073  0  0  -0.062841  0  4.041028  0  0  -0.026192  -0.046905  0  4.000773  0
C  C46  1  0.49139223  0.57133674  0.79227532  1  0  -0.079368  0  3.783918  0  0  -0.053146  0  4.016928  0  0  -0.06278  0  4.040886  0  0  -0.026151  -0.046835  0  4.000623  0
C  C47  1  0.49685379  0.58175108  0.13821075  1  0  -0.059925  0  3.730139  0  0  -0.086217  0  3.976183  0  0  -0.0849  0  3.996441  0  0  -0.082096  -0.087144  0  3.962578  0
C  C48  1  0.50315390  0.41824746  0.86179308  1  0  -0.059958  0  3.730169  0  0  -0.08634  0  3.976168  0  0  -0.085025  0  3.996426  0  0  -0.082141  -0.087269  0  3.962566  0
C  C49  1  0.63018258  0.62905412  0.03283805  1  0  -0.0617  0  3.774506  0  0  -0.07218  0  4.026511  0  0  -0.076416  0  4.050617  0  0  -0.090184  -0.069248  0  4.010143  0
C  C50  1  0.36982929  0.37094337  0.96716531  1  0  -0.061724  0  3.774588  0  0  -0.072172  0  4.026619  0  0  -0.076393  0  4.050711  0  0  -0.090208  -0.069234  0  4.010247  0
C  C51  1  0.77658684  0.52549203  0.99714707  1  0  -0.083695  0  3.678401  0  0  -0.109648  0  3.929058  0  0  -0.110326  0  3.94913  0  0  -0.082808  -0.109266  0  3.916615  0
C  C52  1  0.22342046  0.47450321  0.00285981  1  0  -0.083675  0  3.678456  0  0  -0.10961  0  3.929181  0  0  -0.11029  0  3.949246  0  0  -0.082737  -0.109224  0  3.916733  0
C  C53  1  0.35725633  0.37607309  0.31170893  1  0  0.688816  0  3.86445  0  0  0.633372  0  4.156078  0  0  0.670221  0  4.147028  0  0  0.220935  0.608428  0  4.161211  0
C  C54  1  0.64273944  0.62393073  0.68829268  1  0  0.688875  0  3.864275  0  0  0.633395  0  4.155887  0  0  0.670244  0  4.146838  0  0  0.220952  0.608439  0  4.161037  0
O  O55  1  0.00669098  0.28481184  0.27364746  1  0  -0.61928  0  2.040344  0  0  -0.557841  0  2.266297  0  0  -0.583971  0  2.258278  0  0  -0.296049  -0.539217  0  2.271203  0
O  O56  1  0.99331917  0.71518225  0.72635746  1  0  -0.6193  0  2.040199  0  0  -0.557894  0  2.266209  0  0  -0.584012  0  2.258172  0  0  -0.296059  -0.539272  0  2.271108  0
O  O57  1  0.05806553  0.03452731  0.35385229  1  0  -0.702628  0  2.0774  0  0  -0.619336  0  2.341666  0  0  -0.653738  0  2.329056  0  0  -0.339849  -0.594495  0  2.349429  0
O  O58  1  0.94193465  0.96546394  0.64614663  1  0  -0.702623  0  2.077266  0  0  -0.619357  0  2.341584  0  0  -0.653763  0  2.32898  0  0  -0.339911  -0.594511  0  2.34932  0
O  O59  1  0.06651533  0.24264565  0.64119659  1  0  -0.70069  0  2.048222  0  0  -0.626319  0  2.315296  0  0  -0.658063  0  2.300326  0  0  -0.332905  -0.603513  0  2.324688  0
O  O60  1  0.93347211  0.75735436  0.35880175  1  0  -0.70077  0  2.048212  0  0  -0.626362  0  2.315253  0  0  -0.658106  0  2.300282  0  0  -0.332968  -0.603555  0  2.324647  0
O  O61  1  0.29430732  0.05176168  0.69140378  1  0  -0.658782  0  1.995059  0  0  -0.593821  0  2.230075  0  0  -0.621932  0  2.218973  0  0  -0.319158  -0.573718  0  2.236723  0
O  O62  1  0.70568162  0.94824722  0.30858837  1  0  -0.658851  0  1.994881  0  0  -0.593889  0  2.229928  0  0  -0.621999  0  2.218825  0  0  -0.319192  -0.57378  0  2.236571  0
O  O63  1  0.22005243  0.47311316  0.33218384  1  0  -0.655586  0  2.075639  0  0  -0.586728  0  2.34016  0  0  -0.61646  0  2.326746  0  0  -0.318523  -0.565723  0  2.348362  0
O  O64  1  0.77994443  0.52689616  0.66781289  1  0  -0.655628  0  2.075468  0  0  -0.586777  0  2.340023  0  0  -0.616506  0  2.326601  0  0  -0.318585  -0.565773  0  2.348247  0
O  O65  1  0.37597192  0.23426173  0.37234470  1  0  -0.693756  0  2.102298  0  0  -0.612936  0  2.350934  0  0  -0.644186  0  2.33706  0  0  -0.33014  -0.591371  0  2.359739  0
O  O66  1  0.62402133  0.76574221  0.62766099  1  0  -0.693757  0  2.102158  0  0  -0.612953  0  2.350809  0  0  -0.644197  0  2.336926  0  0  -0.330139  -0.59138  0  2.359623  0
O  O67  1  0.38352596  0.88091704  0.47082355  1  0  -0.82875  0  1.829321  0  0  -0.766227  0  2.007072  0  0  -0.789743  0  1.974112  0  0  -0.58425  -0.74944  0  2.029796  0
O  O68  1  0.61647383  0.11908110  0.52917659  1  0  -0.828787  0  1.829322  0  0  -0.766273  0  2.007057  0  0  -0.789789  0  1.974093  0  0  -0.584235  -0.749492  0  2.029786  0
O  O69  1  0.20697868  0.57046146  0.56815462  1  0  -0.829921  0  1.811043  0  0  -0.771447  0  1.99268  0  0  -0.793917  0  1.96362  0  0  -0.577812  -0.75565  0  2.01261  0
O  O70  1  0.79302023  0.42954424  0.43183667  1  0  -0.829845  0  1.811047  0  0  -0.771383  0  1.992699  0  0  -0.793854  0  1.963665  0  0  -0.57777  -0.755588  0  2.012629  0
