# generated using pymatgen
data_AgH11C13SN5O4F3
_symmetry_space_group_name_H-M   'P 1'
_cell_length_a   7.77215214
_cell_length_b   13.67754796
_cell_length_c   18.37988739
_cell_angle_alpha   90.00387365
_cell_angle_beta   86.28624442
_cell_angle_gamma   90.00143726
_symmetry_Int_Tables_number   1
_chemical_formula_structural   AgH11C13SN5O4F3
_chemical_formula_sum   'Ag4 H44 C52 S4 N20 O16 F12'
_cell_volume   1949.75233472
_cell_formula_units_Z   4
loop_
 _symmetry_equiv_pos_site_id
 _symmetry_equiv_pos_as_xyz
  1  'x, y, z'
loop_
 _atom_site_type_symbol
 _atom_site_label
 _atom_site_symmetry_multiplicity
 _atom_site_fract_x
 _atom_site_fract_y
 _atom_site_fract_z
 _atom_site_occupancy
 _atom_site_pbe_bader_charge
 _atom_site_pbe_bader_spin_density
 _atom_site_pbe_cm5_charge
 _atom_site_pbe_ddec_charge
 _atom_site_pbe_ddec_spin_density
 _atom_site_pbe_ddec_sum_bond_order
 _atom_site_pbe_magmom
Ag  Ag0  1  0.35083126  0.74561907  0.25176223  1  0.629689  0  0.48288  0.366176  0  1.832463  0
Ag  Ag1  1  0.64919332  0.24562298  0.24823420  1  0.62953  0  0.482901  0.366138  0  1.832549  0
Ag  Ag2  1  0.64920200  0.25439366  0.74823389  1  0.629459  0  0.482846  0.366153  0  1.83233  0
Ag  Ag3  1  0.35076330  0.75438902  0.75176597  1  0.629596  0  0.482865  0.366185  0  1.832447  0
H  H4  1  0.68774006  0.86599498  0.21753796  1  0.194542  0  0.115789  0.097104  0  1.065516  0
H  H5  1  0.31226568  0.36599416  0.28246503  1  0.194327  0  0.115827  0.097211  0  1.065423  0
H  H6  1  0.31226757  0.13402140  0.78245752  1  0.194439  0  0.115771  0.097114  0  1.065476  0
H  H7  1  0.68772769  0.63402002  0.71754566  1  0.194553  0  0.115794  0.097103  0  1.065453  0
H  H8  1  0.78946871  0.04056608  0.21545953  1  0.194399  0  0.125783  0.122655  0  1.039776  0
H  H9  1  0.21057084  0.54056079  0.28453848  1  0.194799  0  0.12587  0.122688  0  1.039645  0
H  H10  1  0.21054506  0.95945103  0.78453761  1  0.194633  0  0.125865  0.122667  0  1.039766  0
H  H11  1  0.78944311  0.45945340  0.71547229  1  0.194023  0  0.125883  0.122676  0  1.039662  0
H  H12  1  0.31662569  0.12902036  0.31318180  1  0.155561  0  0.123197  0.118307  0  1.032909  0
H  H13  1  0.68340541  0.62901980  0.18681978  1  0.155304  0  0.123147  0.118276  0  1.03301  0
H  H14  1  0.68336918  0.87098140  0.68681307  1  0.155714  0  0.123199  0.118374  0  1.032808  0
H  H15  1  0.31659220  0.37099658  0.81318875  1  0.15547  0  0.123184  0.118356  0  1.032913  0
H  H16  1  0.90599971  0.99670517  0.35181192  1  0.033472  0  0.100519  0.140865  0  1.00278  0
H  H17  1  0.09402967  0.49670144  0.14816913  1  0.033805  0  0.100492  0.140862  0  1.002531  0
H  H18  1  0.09400894  0.00329220  0.64817046  1  0.033468  0  0.100472  0.140845  0  1.00274  0
H  H19  1  0.90596674  0.50330982  0.85181702  1  0.038939  0  0.10047  0.140791  0  1.002773  0
H  H20  1  0.03417030  0.07924958  0.29773612  1  0.121577  0  0.107715  0.168208  0  0.999397  0
H  H21  1  0.96586699  0.57925226  0.20227035  1  0.121689  0  0.107741  0.168273  0  0.99936  0
H  H22  1  0.96583955  0.92075948  0.70226864  1  0.121845  0  0.107698  0.16822  0  0.999362  0
H  H23  1  0.03413868  0.42076996  0.79772893  1  0.12268  0  0.107704  0.168249  0  0.999471  0
H  H24  1  0.07234777  0.06396853  0.39035719  1  0.081413  0  0.102028  0.155285  0  0.982402  0
H  H25  1  0.92764257  0.56397228  0.10965171  1  0.08158  0  0.101971  0.155127  0  0.982328  0
H  H26  1  0.92763508  0.93601202  0.60964745  1  0.081654  0  0.101989  0.155248  0  0.982316  0
H  H27  1  0.07233636  0.43604336  0.89033873  1  0.082002  0  0.101906  0.15506  0  0.982365  0
H  H28  1  0.83553860  0.53353319  0.36940706  1  0.178488  0  0.10851  0.134033  0  1.035863  0
H  H29  1  0.16445668  0.03351586  0.13057877  1  0.178209  0  0.108456  0.133983  0  1.035673  0
H  H30  1  0.16447225  0.46647880  0.63059934  1  0.178134  0  0.108515  0.134064  0  1.035699  0
H  H31  1  0.83547371  0.96648736  0.86941693  1  0.177422  0  0.108454  0.134048  0  1.035474  0
H  H32  1  0.53324155  0.48852455  0.41617650  1  0.081421  0  0.10937  0.111841  0  0.979228  0
H  H33  1  0.46678627  0.98852534  0.08382737  1  0.081337  0  0.109363  0.111831  0  0.979244  0
H  H34  1  0.46678753  0.51148525  0.58383598  1  0.081414  0  0.109284  0.111654  0  0.979348  0
H  H35  1  0.53316394  0.01147057  0.91619460  1  0.081382  0  0.109465  0.111996  0  0.979079  0
H  H36  1  0.31874332  0.62427045  0.44231315  1  0.130299  0  0.10714  0.122398  0  1.006438  0
H  H37  1  0.68125698  0.12429725  0.05771685  1  0.130066  0  0.107094  0.122489  0  1.006719  0
H  H38  1  0.68126713  0.37572473  0.55771016  1  0.130291  0  0.107077  0.12241  0  1.006522  0
H  H39  1  0.31875168  0.87567892  0.94232391  1  0.129941  0  0.107066  0.122297  0  1.006787  0
H  H40  1  0.41427350  0.79692791  0.42279993  1  0.095654  0  0.111589  0.083181  0  0.982212  0
H  H41  1  0.58573229  0.29695754  0.07720477  1  0.09563  0  0.111443  0.082903  0  0.982351  0
H  H42  1  0.58573285  0.20305996  0.57719553  1  0.095723  0  0.111504  0.08303  0  0.982242  0
H  H43  1  0.41430230  0.70302814  0.92282027  1  0.095709  0  0.111503  0.08305  0  0.982545  0
H  H44  1  0.87705348  0.85814511  0.36251511  1  0.484944  0  0.316965  0.240083  0  0.997772  0
H  H45  1  0.12295152  0.35813435  0.13747689  1  0.485085  0  0.316976  0.240048  0  0.997833  0
H  H46  1  0.12294659  0.14186103  0.63747215  1  0.485323  0  0.316952  0.24002  0  0.997849  0
H  H47  1  0.87703406  0.64187399  0.86251958  1  0.485412  0  0.316891  0.240078  0  0.997824  0
C  C48  1  0.66157842  0.02125523  0.23855377  1  0.409228  0  0.051207  0.034677  0  3.881371  0
C  C49  1  0.33845175  0.52124264  0.26144489  1  0.408159  0  0.051037  0.034613  0  3.881608  0
C  C50  1  0.33843616  0.97876335  0.76144610  1  0.408399  0  0.051062  0.03469  0  3.88119  0
C  C51  1  0.66155268  0.47876497  0.73856148  1  0.409269  0  0.051009  0.034611  0  3.88158  0
C  C52  1  0.60396634  0.92480755  0.23860917  1  0.521648  0  0.054105  0.053276  0  3.920077  0
C  C53  1  0.39605273  0.42480136  0.26139571  1  0.522194  0  0.054066  0.053012  0  3.92029  0
C  C54  1  0.39605653  0.07521029  0.76138746  1  0.522474  0  0.054067  0.053084  0  3.920193  0
C  C55  1  0.60394459  0.57520771  0.73861445  1  0.52199  0  0.054129  0.053267  0  3.92017  0
C  C56  1  0.39908723  0.06948688  0.29225517  1  0.497932  0  0.056762  0.009836  0  3.841141  0
C  C57  1  0.60093235  0.56948734  0.20774883  1  0.497832  0  0.056774  0.009637  0  3.840982  0
C  C58  1  0.60090735  0.93051561  0.70774135  1  0.497754  0  0.056748  0.009593  0  3.841344  0
C  C59  1  0.39907012  0.43052758  0.79226135  1  0.498064  0  0.05677  0.00957  0  3.841065  0
C  C60  1  0.34001699  0.97228027  0.29183039  1  0.523313  0  0.129336  0.130784  0  3.943338  0
C  C61  1  0.66000351  0.47227987  0.20817000  1  0.523118  0  0.129346  0.130984  0  3.942853  0
C  C62  1  0.65998689  0.02772221  0.70816452  1  0.523321  0  0.129339  0.130988  0  3.943094  0
C  C63  1  0.34000011  0.52773359  0.79183364  1  0.522826  0  0.129299  0.130776  0  3.9435  0
C  C64  1  0.16460439  0.94562992  0.32097312  1  0.625933  0  0.137831  0.206723  0  3.944514  0
C  C65  1  0.83542244  0.44563485  0.17902577  1  0.625985  0  0.13774  0.206532  0  3.944798  0
C  C66  1  0.83539719  0.05436891  0.67902014  1  0.625724  0  0.137804  0.206714  0  3.94478  0
C  C67  1  0.16457895  0.55438738  0.82096859  1  0.626731  0  0.137929  0.207032  0  3.944726  0
C  C68  1  0.03742243  0.02448486  0.34127619  1  -0.082328  0  -0.233443  -0.443569  0  3.915433  0
C  C69  1  0.96260202  0.52448493  0.15872597  1  -0.083114  0  -0.233287  -0.443341  0  3.915028  0
C  C70  1  0.96257582  0.97552055  0.65872143  1  -0.08274  0  -0.233319  -0.443537  0  3.915392  0
C  C71  1  0.03739266  0.47553876  0.84127000  1  -0.089606  0  -0.233185  -0.443317  0  3.915331  0
C  C72  1  0.95767536  0.71674255  0.34863051  1  1.370842  0  0.246483  0.423796  0  4.119806  0
C  C73  1  0.04230653  0.21675230  0.15135040  1  1.370259  0  0.246511  0.423939  0  4.120453  0
C  C74  1  0.04231806  0.28325189  0.65135072  1  1.37015  0  0.246539  0.424026  0  4.119962  0
C  C75  1  0.95765987  0.78326481  0.84864545  1  1.370053  0  0.246351  0.423834  0  4.120174  0
C  C76  1  0.77824231  0.68806905  0.37376118  1  0.516849  0  0.105722  0.099862  0  4.027627  0
C  C77  1  0.22175125  0.18808219  0.12621701  1  0.517859  0  0.105741  0.099856  0  4.027059  0
C  C78  1  0.22175477  0.31192101  0.62622115  1  0.516964  0  0.105851  0.100154  0  4.027373  0
C  C79  1  0.77823585  0.81193053  0.87378547  1  0.517148  0  0.105722  0.099699  0  4.027339  0
C  C80  1  0.73751908  0.58901734  0.38226647  1  -0.044497  0  -0.07879  -0.131729  0  3.907014  0
C  C81  1  0.26250576  0.08900848  0.11772379  1  -0.043838  0  -0.07875  -0.131606  0  3.906869  0
C  C82  1  0.26250797  0.41098807  0.61773563  1  -0.044004  0  -0.078908  -0.131932  0  3.907121  0
C  C83  1  0.73745668  0.91098962  0.88227259  1  -0.042936  0  -0.078632  -0.131431  0  3.906946  0
C  C84  1  0.57024139  0.56488209  0.40818687  1  -0.059753  0  -0.070066  -0.033023  0  3.960823  0
C  C85  1  0.42976161  0.06488361  0.09182325  1  -0.05985  0  -0.070214  -0.033278  0  3.961711  0
C  C86  1  0.42976915  0.43512551  0.59183589  1  -0.060106  0  -0.0701  -0.033024  0  3.96123  0
C  C87  1  0.57018528  0.93510060  0.90818834  1  -0.059019  0  -0.070161  -0.033411  0  3.961071  0
C  C88  1  0.45139444  0.63973645  0.42313288  1  -0.033936  0  -0.077926  -0.117175  0  3.952732  0
C  C89  1  0.54861805  0.13974468  0.07686564  1  -0.033713  0  -0.077932  -0.117287  0  3.952624  0
C  C90  1  0.54862152  0.36026018  0.57686645  1  -0.033294  0  -0.077735  -0.116968  0  3.95226  0
C  C91  1  0.45136701  0.86022710  0.92316302  1  -0.033961  0  -0.077964  -0.117097  0  3.952416  0
C  C92  1  0.50463980  0.73673819  0.41199173  1  0.499303  0  0.039237  0.085137  0  4.019805  0
C  C93  1  0.49536890  0.23675287  0.08801376  1  0.498883  0  0.039525  0.085568  0  4.019856  0
C  C94  1  0.49537111  0.26326138  0.58800703  1  0.499248  0  0.039371  0.085373  0  4.020029  0
C  C95  1  0.50462512  0.76323061  0.91200784  1  0.498318  0  0.039358  0.085295  0  4.020625  0
C  C96  1  0.92948891  0.81699900  0.05565148  1  1.631299  0  0.2845  0.508146  0  4.055908  0
C  C97  1  0.07055327  0.31699743  0.44435276  1  1.630376  0  0.284617  0.50827  0  4.056216  0
C  C98  1  0.07051391  0.18299398  0.94434943  1  1.631159  0  0.284617  0.508355  0  4.055869  0
C  C99  1  0.92948847  0.68294730  0.55563903  1  1.63034  0  0.28456  0.508056  0  4.056141  0
S  S100  1  0.00058330  0.80668279  0.15028033  1  3.2907  0  0.478799  0.981132  0  6.39613  0
S  S101  1  0.99945498  0.30667690  0.34971600  1  3.292017  0  0.478548  0.980564  0  6.397163  0
S  S102  1  0.99941761  0.19332627  0.84971675  1  3.291238  0  0.478904  0.981502  0  6.396596  0
S  S103  1  0.00056081  0.69331097  0.65026969  1  3.292894  0  0.478855  0.981216  0  6.397403  0
N  N104  1  0.55822320  0.09363443  0.26496603  1  -1.186412  0  -0.320021  -0.146084  0  3.579315  0
N  N105  1  0.44179114  0.59362769  0.23504037  1  -1.185568  0  -0.319914  -0.145898  0  3.579142  0
N  N106  1  0.44177952  0.90637830  0.73503543  1  -1.186029  0  -0.31992  -0.146007  0  3.579429  0
N  N107  1  0.55820528  0.40637991  0.76496761  1  -1.185797  0  -0.319827  -0.145832  0  3.57912  0
N  N108  1  0.44433707  0.90073087  0.26360807  1  -1.164322  0  -0.312288  -0.197563  0  3.542605  0
N  N109  1  0.55569210  0.40073271  0.23639607  1  -1.164049  0  -0.312266  -0.197452  0  3.542356  0
N  N110  1  0.55568471  0.09927527  0.73638746  1  -1.16475  0  -0.312171  -0.197374  0  3.542491  0
N  N111  1  0.44430866  0.59927928  0.76360919  1  -1.164508  0  -0.3123  -0.19753  0  3.542612  0
N  N112  1  0.13749634  0.85215971  0.32552487  1  -0.718612  0  -0.20597  -0.140154  0  3.504528  0
N  N113  1  0.86250831  0.35216877  0.17447594  1  -0.718452  0  -0.205905  -0.140057  0  3.504559  0
N  N114  1  0.86251116  0.14783400  0.67446406  1  -0.718345  0  -0.206006  -0.14034  0  3.504769  0
N  N115  1  0.13749160  0.64785711  0.82551950  1  -0.71883  0  -0.206019  -0.140158  0  3.504549  0
N  N116  1  0.98390732  0.81634187  0.34874453  1  -0.795507  0  -0.282143  -0.193292  0  3.700377  0
N  N117  1  0.01609348  0.31634219  0.15125348  1  -0.795291  0  -0.282202  -0.193285  0  3.70083  0
N  N118  1  0.01610250  0.18365842  0.65125313  1  -0.795522  0  -0.282111  -0.193146  0  3.700574  0
N  N119  1  0.98388692  0.68367492  0.84873588  1  -0.79594  0  -0.282168  -0.193519  0  3.700343  0
N  N120  1  0.66541840  0.76132743  0.38842978  1  -1.220844  0  -0.323019  -0.31132  0  3.381231  0
N  N121  1  0.33459174  0.26133180  0.11156945  1  -1.2217  0  -0.323079  -0.311412  0  3.381671  0
N  N122  1  0.33459660  0.23867579  0.61157499  1  -1.221619  0  -0.32314  -0.311612  0  3.381831  0
N  N123  1  0.66539635  0.73865973  0.88843468  1  -1.221239  0  -0.323007  -0.311253  0  3.381547  0
O  O124  1  0.16464915  0.75440771  0.14045329  1  -1.313864  0  -0.352524  -0.556331  0  2.268103  0
O  O125  1  0.83536590  0.25443618  0.35953942  1  -1.314748  0  -0.352489  -0.556042  0  2.26834  0
O  O126  1  0.83536665  0.24561087  0.85955422  1  -1.314027  0  -0.352561  -0.556472  0  2.268046  0
O  O127  1  0.16462513  0.74557655  0.64044071  1  -1.314286  0  -0.352632  -0.556408  0  2.268438  0
O  O128  1  0.07190015  0.65710504  0.33072366  1  -1.128971  0  -0.272649  -0.453061  0  2.250555  0
O  O129  1  0.92811421  0.15710527  0.16925821  1  -1.128655  0  -0.272657  -0.4532  0  2.251167  0
O  O130  1  0.92811690  0.34288941  0.66927676  1  -1.128565  0  -0.272696  -0.453265  0  2.250835  0
O  O131  1  0.07184635  0.84291769  0.83071961  1  -1.128327  0  -0.27263  -0.453105  0  2.250819  0
O  O132  1  0.86004249  0.75089545  0.18739043  1  -1.335201  0  -0.337643  -0.567226  0  2.279973  0
O  O133  1  0.14000737  0.25088942  0.31260161  1  -1.33539  0  -0.337413  -0.567136  0  2.280583  0
O  O134  1  0.13997199  0.24910777  0.81260999  1  -1.335174  0  -0.337698  -0.567342  0  2.28013  0
O  O135  1  0.86000686  0.74908821  0.68737098  1  -1.337149  0  -0.337592  -0.567282  0  2.280511  0
O  O136  1  0.01126425  0.90820453  0.17349200  1  -1.32326  0  -0.330615  -0.545709  0  2.252658  0
O  O137  1  0.98878886  0.40819668  0.32651555  1  -1.323084  0  -0.3307  -0.545553  0  2.252905  0
O  O138  1  0.98869738  0.09181112  0.82650165  1  -1.323576  0  -0.330602  -0.545784  0  2.253142  0
O  O139  1  0.01121746  0.59180800  0.67349465  1  -1.323298  0  -0.33063  -0.545682  0  2.253259  0
F  F140  1  0.77221021  0.86080754  0.05586188  1  -0.621687  0  -0.099231  -0.186314  0  1.351246  0
F  F141  1  0.22780705  0.36082302  0.44414839  1  -0.621223  0  -0.099158  -0.18624  0  1.351472  0
F  F142  1  0.22777363  0.13916131  0.94412258  1  -0.621648  0  -0.099319  -0.186453  0  1.351261  0
F  F143  1  0.77225401  0.63909612  0.55585058  1  -0.621118  0  -0.099157  -0.186315  0  1.351612  0
F  F144  1  0.91625065  0.72713047  0.02434514  1  -0.62003  0  -0.106375  -0.192802  0  1.345936  0
F  F145  1  0.08374146  0.22711517  0.47564426  1  -0.620085  0  -0.106399  -0.192844  0  1.345753  0
F  F146  1  0.08380225  0.27285228  0.97566361  1  -0.619895  0  -0.106501  -0.192929  0  1.345727  0
F  F147  1  0.91615044  0.77279592  0.52432890  1  -0.620315  0  -0.106587  -0.192867  0  1.345811  0
F  F148  1  0.04214080  0.87083012  0.01250684  1  -0.619327  0  -0.092732  -0.178101  0  1.357693  0
F  F149  1  0.95792257  0.37084424  0.48749076  1  -0.61921  0  -0.092848  -0.17822  0  1.3582  0
F  F150  1  0.95784407  0.12916871  0.98748636  1  -0.619305  0  -0.092708  -0.178146  0  1.357979  0
F  F151  1  0.04216942  0.62910487  0.51252252  1  -0.618402  0  -0.09266  -0.177993  0  1.357733  0
