# generated using pymatgen
data_ZnH12C14(NO)4
_symmetry_space_group_name_H-M   'P 1'
_cell_length_a   6.79477385
_cell_length_b   11.91478826
_cell_length_c   18.62306865
_cell_angle_alpha   89.99976187
_cell_angle_beta   99.84451079
_cell_angle_gamma   90.00013600
_symmetry_Int_Tables_number   1
_chemical_formula_structural   ZnH12C14(NO)4
_chemical_formula_sum   'Zn4 H48 C56 N16 O16'
_cell_volume   1485.49162402
_cell_formula_units_Z   4
loop_
 _symmetry_equiv_pos_site_id
 _symmetry_equiv_pos_as_xyz
  1  'x, y, z'
loop_
 _atom_site_type_symbol
 _atom_site_label
 _atom_site_symmetry_multiplicity
 _atom_site_fract_x
 _atom_site_fract_y
 _atom_site_fract_z
 _atom_site_occupancy
 _atom_site_hle17_bader_spin_density
 _atom_site_hle17_ddec_charge
 _atom_site_hle17_ddec_spin_density
 _atom_site_hle17_ddec_sum_bond_order
 _atom_site_hle17_magmom
 _atom_site_hse06_10hf_bader_spin_density
 _atom_site_hse06_10hf_ddec_charge
 _atom_site_hse06_10hf_ddec_spin_density
 _atom_site_hse06_10hf_ddec_sum_bond_order
 _atom_site_hse06_10hf_magmom
 _atom_site_hse06_bader_spin_density
 _atom_site_hse06_ddec_charge
 _atom_site_hse06_ddec_spin_density
 _atom_site_hse06_ddec_sum_bond_order
 _atom_site_hse06_magmom
 _atom_site_pbe_bader_spin_density
 _atom_site_pbe_cm5_charge
 _atom_site_pbe_ddec_charge
 _atom_site_pbe_ddec_spin_density
 _atom_site_pbe_ddec_sum_bond_order
 _atom_site_pbe_magmom
Zn  Zn0  1  0.22331644  0.20641893  0.35902528  1  0  1.001203  0  1.88005  0  0  0.81188  0  2.356709  0  0  0.858315  0  2.302575  0  0  0.696409  0.779515  0  2.393891  0
Zn  Zn1  1  0.22331106  0.29357957  0.85902455  1  0  1.001125  0  1.880105  0  0  0.811815  0  2.35678  0  0  0.858246  0  2.302653  0  0  0.696408  0.779439  0  2.393954  0
Zn  Zn2  1  0.77669678  0.79358534  0.64097757  1  0  1.001282  0  1.879942  0  0  0.811997  0  2.35661  0  0  0.858431  0  2.302472  0  0  0.696468  0.779627  0  2.39379  0
Zn  Zn3  1  0.77668424  0.70641798  0.14097772  1  0  1.001164  0  1.880127  0  0  0.811872  0  2.356777  0  0  0.858305  0  2.302647  0  0  0.696433  0.779502  0  2.393958  0
H  H4  1  0.55474257  0.38775682  0.36008666  1  0  0.310272  0  0.881518  0  0  0.294019  0  0.939736  0  0  0.300578  0  0.935623  0  0  0.327576  0.289349  0  0.942798  0
H  H5  1  0.55473515  0.11223960  0.86008199  1  0  0.310305  0  0.881587  0  0  0.294098  0  0.939718  0  0  0.300659  0  0.9356  0  0  0.327573  0.289425  0  0.942781  0
H  H6  1  0.44526320  0.61224661  0.63991250  1  0  0.310245  0  0.881547  0  0  0.293971  0  0.939828  0  0  0.300537  0  0.935713  0  0  0.327529  0.289302  0  0.942892  0
H  H7  1  0.44525270  0.88775376  0.13991444  1  0  0.310288  0  0.88158  0  0  0.294017  0  0.939817  0  0  0.300577  0  0.935701  0  0  0.327563  0.289347  0  0.942875  0
H  H8  1  0.91463429  0.85191778  0.44655133  1  0  0.316952  0  0.92243  0  0  0.299379  0  0.980171  0  0  0.308002  0  0.973139  0  0  0.313091  0.293323  0  0.985138  0
H  H9  1  0.91463443  0.64807367  0.94655133  1  0  0.316911  0  0.922398  0  0  0.299292  0  0.980221  0  0  0.307913  0  0.97319  0  0  0.313099  0.293237  0  0.985187  0
H  H10  1  0.08536103  0.14808230  0.55344610  1  0  0.316945  0  0.922419  0  0  0.299377  0  0.980158  0  0  0.307997  0  0.973129  0  0  0.313115  0.293325  0  0.985124  0
H  H11  1  0.08535491  0.35192473  0.05344733  1  0  0.316918  0  0.922426  0  0  0.299298  0  0.980236  0  0  0.307917  0  0.973211  0  0  0.313092  0.293236  0  0.985205  0
H  H12  1  0.28821556  0.28384454  0.63570943  1  0  0.107264  0  0.953404  0  0  0.114361  0  1.018832  0  0  0.119139  0  1.014211  0  0  0.104286  0.11083  0  1.022283  0
H  H13  1  0.28821501  0.21616222  0.13570815  1  0  0.107267  0  0.953374  0  0  0.114333  0  1.018832  0  0  0.119096  0  1.014227  0  0  0.104287  0.11081  0  1.022285  0
H  H14  1  0.71179765  0.71616225  0.36429610  1  0  0.107246  0  0.953304  0  0  0.114265  0  1.018821  0  0  0.119065  0  1.014176  0  0  0.104264  0.110739  0  1.022266  0
H  H15  1  0.71177732  0.78384541  0.86428801  1  0  0.10723  0  0.953451  0  0  0.114337  0  1.018867  0  0  0.119106  0  1.014255  0  0  0.104284  0.110806  0  1.022326  0
H  H16  1  0.80929793  0.46554733  0.73534547  1  0  0.094927  0  0.956693  0  0  0.102027  0  1.025382  0  0  0.105311  0  1.023008  0  0  0.102405  0.09966  0  1.027078  0
H  H17  1  0.80928636  0.03444940  0.23534398  1  0  0.09492  0  0.956733  0  0  0.102001  0  1.02545  0  0  0.105283  0  1.023081  0  0  0.10237  0.099617  0  1.027152  0
H  H18  1  0.19071978  0.53446113  0.26465874  1  0  0.094923  0  0.956829  0  0  0.102041  0  1.025508  0  0  0.105323  0  1.023136  0  0  0.102401  0.099668  0  1.027203  0
H  H19  1  0.19070299  0.96555068  0.76465147  1  0  0.094945  0  0.956724  0  0  0.10203  0  1.025409  0  0  0.105314  0  1.023035  0  0  0.102388  0.099647  0  1.027114  0
H  H20  1  0.90506810  0.49460664  0.61326922  1  0  0.094713  0  0.956267  0  0  0.106617  0  1.01126  0  0  0.109329  0  1.011199  0  0  0.100193  0.104631  0  1.011524  0
H  H21  1  0.90505644  0.00539101  0.11326834  1  0  0.094681  0  0.956298  0  0  0.106678  0  1.011196  0  0  0.109383  0  1.011146  0  0  0.100223  0.104693  0  1.011462  0
H  H22  1  0.09494064  0.50539847  0.38673281  1  0  0.094692  0  0.956359  0  0  0.106643  0  1.011291  0  0  0.109341  0  1.011249  0  0  0.100216  0.104661  0  1.011555  0
H  H23  1  0.09492842  0.99460738  0.88672843  1  0  0.094673  0  0.956257  0  0  0.106596  0  1.011238  0  0  0.109278  0  1.011215  0  0  0.100215  0.10461  0  1.011505  0
H  H24  1  0.69105109  0.41770495  0.50236482  1  0  0.089544  0  0.957167  0  0  0.099232  0  1.021843  0  0  0.102146  0  1.020113  0  0  0.100482  0.097142  0  1.023089  0
H  H25  1  0.69104565  0.08229650  0.00236305  1  0  0.089501  0  0.957152  0  0  0.099206  0  1.021804  0  0  0.102119  0  1.020079  0  0  0.100483  0.097117  0  1.023047  0
H  H26  1  0.30894571  0.58230184  0.49763700  1  0  0.089534  0  0.957119  0  0  0.099273  0  1.021745  0  0  0.102191  0  1.020009  0  0  0.100509  0.097182  0  1.022989  0
H  H27  1  0.30893623  0.91769602  0.99763300  1  0  0.089485  0  0.957148  0  0  0.099256  0  1.021756  0  0  0.102176  0  1.020017  0  0  0.100459  0.097153  0  1.023  0
H  H28  1  0.85454910  0.28860270  0.43198641  1  0  0.092795  0  0.960003  0  0  0.100937  0  1.027495  0  0  0.103672  0  1.02356  0  0  0.134574  0.098886  0  1.030381  0
H  H29  1  0.85454646  0.21138946  0.93198339  1  0  0.0927  0  0.960019  0  0  0.100955  0  1.027432  0  0  0.103693  0  1.023492  0  0  0.134557  0.098893  0  1.030312  0
H  H30  1  0.14545367  0.71140241  0.56801578  1  0  0.092854  0  0.960039  0  0  0.101053  0  1.027466  0  0  0.10379  0  1.023525  0  0  0.134588  0.098996  0  1.030351  0
H  H31  1  0.14543540  0.78860306  0.06801749  1  0  0.092789  0  0.960065  0  0  0.101012  0  1.027477  0  0  0.103749  0  1.023536  0  0  0.1346  0.098954  0  1.030355  0
H  H32  1  0.60243562  0.43094815  0.22822821  1  0  0.119888  0  0.967175  0  0  0.129587  0  1.025639  0  0  0.132274  0  1.024808  0  0  0.123937  0.127604  0  1.026398  0
H  H33  1  0.60242957  0.06905255  0.72822266  1  0  0.119857  0  0.967227  0  0  0.12958  0  1.025651  0  0  0.132261  0  1.024825  0  0  0.123914  0.127593  0  1.026416  0
H  H34  1  0.39757463  0.56905277  0.77177070  1  0  0.119887  0  0.967271  0  0  0.129633  0  1.025666  0  0  0.132282  0  1.024878  0  0  0.123957  0.127649  0  1.02643  0
H  H35  1  0.39757322  0.93094333  0.27177417  1  0  0.119831  0  0.967212  0  0  0.129521  0  1.025684  0  0  0.132215  0  1.02484  0  0  0.123907  0.127538  0  1.026444  0
H  H36  1  0.97135130  0.33442048  0.21880805  1  0  0.110113  0  0.954187  0  0  0.119327  0  1.012752  0  0  0.121825  0  1.012131  0  0  0.119269  0.117488  0  1.013336  0
H  H37  1  0.97134852  0.16558161  0.71880460  1  0  0.110071  0  0.954248  0  0  0.119293  0  1.012794  0  0  0.121791  0  1.012177  0  0  0.119245  0.117456  0  1.013382  0
H  H38  1  0.02866939  0.66558295  0.78119474  1  0  0.110125  0  0.954345  0  0  0.119347  0  1.012875  0  0  0.121844  0  1.012257  0  0  0.119294  0.117506  0  1.013456  0
H  H39  1  0.02865424  0.83441846  0.28119921  1  0  0.11004  0  0.954254  0  0  0.119268  0  1.01279  0  0  0.121766  0  1.012174  0  0  0.119264  0.117429  0  1.013376  0
H  H40  1  0.84450399  0.03800758  0.37149053  1  0  0.107702  0  0.98894  0  0  0.113821  0  1.056886  0  0  0.117525  0  1.052295  0  0  0.131416  0.111051  0  1.060231  0
H  H41  1  0.84450809  0.46198915  0.87148780  1  0  0.107693  0  0.988916  0  0  0.11379  0  1.056895  0  0  0.117497  0  1.052301  0  0  0.131382  0.111021  0  1.060247  0
H  H42  1  0.15549279  0.96200089  0.62851505  1  0  0.107685  0  0.989036  0  0  0.113813  0  1.056958  0  0  0.117513  0  1.052378  0  0  0.131441  0.111042  0  1.060303  0
H  H43  1  0.15548870  0.53800505  0.12851456  1  0  0.10772  0  0.989033  0  0  0.113852  0  1.056952  0  0  0.117558  0  1.052359  0  0  0.131419  0.111084  0  1.060301  0
H  H44  1  0.28360545  0.81805344  0.48411761  1  0  0.107148  0  0.981568  0  0  0.116097  0  1.044807  0  0  0.118171  0  1.044491  0  0  0.119018  0.114547  0  1.045188  0
H  H45  1  0.28360120  0.68193860  0.98412207  1  0  0.107123  0  0.981597  0  0  0.116087  0  1.044821  0  0  0.118159  0  1.044506  0  0  0.119036  0.114532  0  1.04521  0
H  H46  1  0.71638840  0.18194160  0.51587168  1  0  0.107105  0  0.98154  0  0  0.116066  0  1.044771  0  0  0.118141  0  1.044451  0  0  0.119007  0.114513  0  1.045163  0
H  H47  1  0.71638665  0.31806483  0.01587489  1  0  0.107112  0  0.981516  0  0  0.116073  0  1.044751  0  0  0.118145  0  1.044437  0  0  0.11903  0.114518  0  1.045139  0
H  H48  1  0.47049426  0.99992604  0.42930678  1  0  0.10792  0  0.968011  0  0  0.11668  0  1.028817  0  0  0.119239  0  1.027852  0  0  0.116286  0.114738  0  1.029748  0
H  H49  1  0.47049842  0.50007248  0.92930850  1  0  0.107943  0  0.968018  0  0  0.11671  0  1.02881  0  0  0.119278  0  1.027836  0  0  0.116281  0.114758  0  1.029751  0
H  H50  1  0.52949807  0.00007235  0.57069100  1  0  0.107944  0  0.967826  0  0  0.116744  0  1.028599  0  0  0.119312  0  1.027624  0  0  0.11631  0.114789  0  1.029542  0
H  H51  1  0.52949986  0.49993095  0.07069287  1  0  0.107922  0  0.96803  0  0  0.11673  0  1.02878  0  0  0.119313  0  1.027788  0  0  0.116304  0.114776  0  1.029722  0
C  C52  1  0.47641756  0.34443936  0.56172994  1  0  -0.090433  0  3.794407  0  0  -0.063279  0  4.027493  0  0  -0.073512  0  4.052305  0  0  -0.024657  -0.056729  0  4.010761  0
C  C53  1  0.47641384  0.15556142  0.06172808  1  0  -0.090379  0  3.794273  0  0  -0.063292  0  4.02741  0  0  -0.073521  0  4.052217  0  0  -0.024668  -0.056748  0  4.010693  0
C  C54  1  0.52358519  0.65556827  0.43827602  1  0  -0.090435  0  3.794049  0  0  -0.063355  0  4.027139  0  0  -0.073581  0  4.051947  0  0  -0.024616  -0.056807  0  4.01042  0
C  C55  1  0.52358447  0.84442774  0.93826685  1  0  -0.090538  0  3.794699  0  0  -0.06339  0  4.02778  0  0  -0.073623  0  4.052592  0  0  -0.024547  -0.056834  0  4.011035  0
C  C56  1  0.42377591  0.32928650  0.63046951  1  0  -0.066909  0  3.70672  0  0  -0.103547  0  3.951109  0  0  -0.100588  0  3.969314  0  0  -0.080668  -0.105124  0  3.938792  0
C  C57  1  0.42377223  0.17071460  0.13046708  1  0  -0.066939  0  3.706767  0  0  -0.103551  0  3.951159  0  0  -0.100581  0  3.969368  0  0  -0.080684  -0.105136  0  3.938859  0
C  C58  1  0.57622983  0.67071861  0.36953663  1  0  -0.066919  0  3.706648  0  0  -0.103431  0  3.951113  0  0  -0.100495  0  3.96931  0  0  -0.080692  -0.10501  0  3.938799  0
C  C59  1  0.57621711  0.82928044  0.86952890  1  0  -0.066795  0  3.706844  0  0  -0.103437  0  3.951248  0  0  -0.100469  0  3.969454  0  0  -0.080711  -0.105027  0  3.938939  0
C  C60  1  0.54319129  0.37180580  0.69299681  1  0  -0.077124  0  3.776232  0  0  -0.051124  0  4.009816  0  0  -0.060761  0  4.034215  0  0  -0.022511  -0.044977  0  3.993364  0
C  C61  1  0.54318748  0.12819505  0.19299502  1  0  -0.077134  0  3.776549  0  0  -0.051091  0  4.010078  0  0  -0.060725  0  4.03447  0  0  -0.02253  -0.044961  0  3.993629  0
C  C62  1  0.45681445  0.62819847  0.30700987  1  0  -0.07693  0  3.776413  0  0  -0.051056  0  4.010178  0  0  -0.060692  0  4.034587  0  0  -0.022521  -0.044914  0  3.993721  0
C  C63  1  0.45680484  0.87180335  0.80700383  1  0  -0.077125  0  3.776406  0  0  -0.051176  0  4.010006  0  0  -0.060814  0  4.034406  0  0  -0.022579  -0.045044  0  3.993549  0
C  C64  1  0.71702738  0.43169874  0.68650227  1  0  -0.056998  0  3.707435  0  0  -0.082596  0  3.954079  0  0  -0.079785  0  3.971701  0  0  -0.080053  -0.084076  0  3.941969  0
C  C65  1  0.71701293  0.06829903  0.18650051  1  0  -0.056983  0  3.707578  0  0  -0.082584  0  3.954224  0  0  -0.079768  0  3.971839  0  0  -0.080069  -0.084067  0  3.942116  0
C  C66  1  0.28297986  0.56830553  0.31350182  1  0  -0.057061  0  3.707818  0  0  -0.082692  0  3.954588  0  0  -0.079877  0  3.972201  0  0  -0.080077  -0.084172  0  3.942479  0
C  C67  1  0.28297044  0.93169769  0.81349456  1  0  -0.057161  0  3.707685  0  0  -0.082709  0  3.954289  0  0  -0.079895  0  3.971905  0  0  -0.080096  -0.084191  0  3.942179  0
C  C68  1  0.77031919  0.44771187  0.61808603  1  0  -0.072356  0  3.754141  0  0  -0.08225  0  4.004827  0  0  -0.086283  0  4.024982  0  0  -0.091221  -0.079731  0  3.991218  0
C  C69  1  0.77030619  0.05228641  0.11808333  1  0  -0.072371  0  3.754086  0  0  -0.082364  0  4.004808  0  0  -0.086395  0  4.024962  0  0  -0.091243  -0.079853  0  3.991199  0
C  C70  1  0.22968507  0.55229408  0.38191626  1  0  -0.072343  0  3.754195  0  0  -0.08226  0  4.004913  0  0  -0.086288  0  4.025075  0  0  -0.091219  -0.079746  0  3.991306  0
C  C71  1  0.22967569  0.94770863  0.88191111  1  0  -0.072109  0  3.754191  0  0  -0.082039  0  4.0049  0  0  -0.08605  0  4.025063  0  0  -0.091185  -0.079532  0  3.991288  0
C  C72  1  0.65074581  0.40428781  0.55584735  1  0  -0.059544  0  3.730944  0  0  -0.088981  0  3.985988  0  0  -0.086678  0  4.004871  0  0  -0.084531  -0.090168  0  3.973079  0
C  C73  1  0.65073593  0.09571156  0.05584527  1  0  -0.059463  0  3.730865  0  0  -0.088878  0  3.98592  0  0  -0.086577  0  4.004805  0  0  -0.084525  -0.090062  0  3.973007  0
C  C74  1  0.34925546  0.59571647  0.44415582  1  0  -0.059502  0  3.730803  0  0  -0.088942  0  3.985838  0  0  -0.086643  0  4.004717  0  0  -0.08457  -0.090122  0  3.972929  0
C  C75  1  0.34924745  0.90427760  0.94414926  1  0  -0.059517  0  3.731048  0  0  -0.08903  0  3.986108  0  0  -0.086726  0  4.004985  0  0  -0.084545  -0.090213  0  3.973188  0
C  C76  1  0.34663617  0.29299753  0.49692698  1  0  0.646553  0  3.909128  0  0  0.599673  0  4.194484  0  0  0.633457  0  4.187864  0  0  0.207206  0.576829  0  4.198176  0
C  C77  1  0.34663053  0.20700528  0.99692324  1  0  0.646531  0  3.909004  0  0  0.599689  0  4.194311  0  0  0.633472  0  4.187692  0  0  0.207193  0.576841  0  4.198008  0
C  C78  1  0.65337703  0.70700591  0.50308338  1  0  0.646513  0  3.909046  0  0  0.599764  0  4.194233  0  0  0.633546  0  4.187607  0  0  0.207236  0.576915  0  4.197936  0
C  C79  1  0.65336182  0.79298976  0.00306970  1  0  0.646693  0  3.909026  0  0  0.599863  0  4.194255  0  0  0.633645  0  4.18763  0  0  0.207268  0.577016  0  4.197959  0
C  C80  1  0.48206101  0.35516570  0.76614430  1  0  0.634455  0  3.93544  0  0  0.582733  0  4.233064  0  0  0.616815  0  4.22602  0  0  0.197879  0.559684  0  4.237057  0
C  C81  1  0.48205128  0.14483291  0.26614102  1  0  0.634511  0  3.935192  0  0  0.582756  0  4.232846  0  0  0.616834  0  4.225807  0  0  0.197927  0.559713  0  4.236829  0
C  C82  1  0.51795072  0.64483354  0.23386061  1  0  0.634308  0  3.935481  0  0  0.582644  0  4.233108  0  0  0.616722  0  4.226074  0  0  0.197869  0.559596  0  4.237099  0
C  C83  1  0.51794255  0.85516884  0.73385524  1  0  0.634269  0  3.935584  0  0  0.582609  0  4.233158  0  0  0.616691  0  4.226117  0  0  0.197814  0.559566  0  4.237141  0
C  C84  1  0.83782637  0.31413501  0.37557917  1  0  0.224057  0  3.673706  0  0  0.160108  0  3.948604  0  0  0.175033  0  3.959308  0  0  0.14521  0.150445  0  3.941087  0
C  C85  1  0.83782365  0.18585833  0.87557459  1  0  0.224155  0  3.673813  0  0  0.160078  0  3.948697  0  0  0.175001  0  3.959413  0  0  0.145213  0.150433  0  3.941155  0
C  C86  1  0.16218238  0.68586927  0.62442341  1  0  0.223986  0  3.673933  0  0  0.160016  0  3.948766  0  0  0.174948  0  3.959477  0  0  0.14524  0.15036  0  3.941243  0
C  C87  1  0.16216717  0.81413503  0.12442470  1  0  0.224033  0  3.673826  0  0  0.160058  0  3.948677  0  0  0.174982  0  3.959383  0  0  0.145201  0.15041  0  3.94114  0
C  C88  1  0.71066187  0.38830528  0.26850556  1  0  0.000603  0  3.661955  0  0  -0.038609  0  3.922759  0  0  -0.037734  0  3.943312  0  0  0.005765  -0.039159  0  3.908975  0
C  C89  1  0.71065743  0.11169278  0.76850215  1  0  0.000764  0  3.661903  0  0  -0.038469  0  3.922707  0  0  -0.037584  0  3.943265  0  0  0.005827  -0.039021  0  3.908928  0
C  C90  1  0.28935733  0.61169395  0.73149659  1  0  0.000646  0  3.661642  0  0  -0.038582  0  3.922471  0  0  -0.037661  0  3.943042  0  0  0.005717  -0.039133  0  3.908691  0
C  C91  1  0.28934237  0.88830142  0.23149556  1  0  0.00064  0  3.661878  0  0  -0.038547  0  3.922705  0  0  -0.037671  0  3.943251  0  0  0.005773  -0.039099  0  3.908926  0
C  C92  1  0.89245884  0.34055300  0.26453885  1  0  -0.004416  0  3.720919  0  0  -0.03416  0  3.981175  0  0  -0.033869  0  4.003282  0  0  -0.001014  -0.034314  0  3.96622  0
C  C93  1  0.89245754  0.15944534  0.76453551  1  0  -0.004494  0  3.720933  0  0  -0.03424  0  3.981188  0  0  -0.033955  0  4.0033  0  0  -0.001049  -0.034403  0  3.966246  0
C  C94  1  0.10754839  0.65945128  0.73546738  1  0  -0.00454  0  3.72074  0  0  -0.03431  0  3.98099  0  0  -0.034019  0  4.003079  0  0  -0.001087  -0.034463  0  3.966031  0
C  C95  1  0.10754523  0.84055138  0.23546561  1  0  -0.004317  0  3.720856  0  0  -0.034046  0  3.981101  0  0  -0.033762  0  4.003216  0  0  -0.000977  -0.034205  0  3.966155  0
C  C96  1  0.99063004  0.00395916  0.39466624  1  0  0.203587  0  3.645129  0  0  0.144072  0  3.913728  0  0  0.157871  0  3.925541  0  0  0.139375  0.135257  0  3.905473  0
C  C97  1  0.99063275  0.49603678  0.89466440  1  0  0.203617  0  3.645167  0  0  0.144119  0  3.913732  0  0  0.157915  0  3.925552  0  0  0.139453  0.135294  0  3.905485  0
C  C98  1  0.00936975  0.99604595  0.60533470  1  0  0.203543  0  3.645253  0  0  0.144039  0  3.913826  0  0  0.157839  0  3.925642  0  0  0.139337  0.135225  0  3.905569  0
C  C99  1  0.00937003  0.50395994  0.10533511  1  0  0.203441  0  3.645222  0  0  0.143913  0  3.913777  0  0  0.157713  0  3.92559  0  0  0.139342  0.13508  0  3.905528  0
C  C100  1  0.22285932  0.89023355  0.45271336  1  0  -0.013258  0  3.695287  0  0  -0.049995  0  3.954537  0  0  -0.049071  0  3.975113  0  0  -0.000656  -0.050546  0  3.940741  0
C  C101  1  0.22285933  0.60976030  0.95271667  1  0  -0.013253  0  3.695419  0  0  -0.049999  0  3.954674  0  0  -0.049077  0  3.975254  0  0  -0.000693  -0.050545  0  3.94087  0
C  C102  1  0.77713601  0.10975981  0.54728139  1  0  -0.013255  0  3.695396  0  0  -0.050001  0  3.954678  0  0  -0.04908  0  3.975261  0  0  -0.000699  -0.050553  0  3.940884  0
C  C103  1  0.77713449  0.39024230  0.04728120  1  0  -0.01308  0  3.695187  0  0  -0.049832  0  3.954446  0  0  -0.048909  0  3.975029  0  0  -0.000649  -0.050385  0  3.940625  0
C  C104  1  0.31378764  0.98035783  0.42627977  1  0  -0.011399  0  3.749237  0  0  -0.042722  0  4.008184  0  0  -0.041443  0  4.02883  0  0  -0.007056  -0.043517  0  3.994309  0
C  C105  1  0.31379037  0.51964134  0.92628242  1  0  -0.011431  0  3.749122  0  0  -0.042779  0  4.008094  0  0  -0.041507  0  4.028737  0  0  -0.007055  -0.043572  0  3.994225  0
C  C106  1  0.68621814  0.01964728  0.57371617  1  0  -0.011341  0  3.74922  0  0  -0.042714  0  4.008198  0  0  -0.041442  0  4.028844  0  0  -0.007046  -0.043501  0  3.994324  0
C  C107  1  0.68621241  0.48035873  0.07371763  1  0  -0.011455  0  3.749269  0  0  -0.042841  0  4.008241  0  0  -0.04158  0  4.028875  0  0  -0.007068  -0.043633  0  3.994372  0
N  N108  1  0.97034255  0.29487850  0.33182335  1  0  -0.397542  0  3.310872  0  0  -0.313715  0  3.609413  0  0  -0.334308  0  3.622064  0  0  -0.362724  -0.299753  0  3.600528  0
N  N109  1  0.97034437  0.20511782  0.83182062  1  0  -0.397461  0  3.310767  0  0  -0.313639  0  3.609357  0  0  -0.334227  0  3.621997  0  0  -0.362709  -0.299678  0  3.600464  0
N  N110  1  0.02967067  0.70512662  0.66818058  1  0  -0.397583  0  3.310894  0  0  -0.313676  0  3.609343  0  0  -0.334272  0  3.622002  0  0  -0.362725  -0.299715  0  3.600455  0
N  N111  1  0.02965392  0.79487805  0.16818130  1  0  -0.397499  0  3.310836  0  0  -0.313738  0  3.609456  0  0  -0.33433  0  3.622102  0  0  -0.362746  -0.299778  0  3.600573  0
N  N112  1  0.68056482  0.37105252  0.33904358  1  0  -0.278103  0  3.488424  0  0  -0.211883  0  3.725314  0  0  -0.227672  0  3.741804  0  0  -0.377946  -0.201396  0  3.714187  0
N  N113  1  0.68056492  0.12894336  0.83903934  1  0  -0.278232  0  3.488526  0  0  -0.212022  0  3.725428  0  0  -0.22781  0  3.74191  0  0  -0.377934  -0.201538  0  3.714298  0
N  N114  1  0.31944095  0.62895007  0.66095611  1  0  -0.278013  0  3.488247  0  0  -0.211853  0  3.725222  0  0  -0.227668  0  3.74173  0  0  -0.37789  -0.201367  0  3.714096  0
N  N115  1  0.31943040  0.87104916  0.16095809  1  0  -0.278128  0  3.488416  0  0  -0.211924  0  3.725376  0  0  -0.227713  0  3.741863  0  0  -0.377954  -0.201437  0  3.714242  0
N  N116  1  0.16751552  0.05082056  0.39038288  1  0  -0.400421  0  3.329198  0  0  -0.316872  0  3.629735  0  0  -0.337628  0  3.642538  0  0  -0.365435  -0.302861  0  3.620795  0
N  N117  1  0.16752108  0.44917767  0.89038081  1  0  -0.400307  0  3.329216  0  0  -0.316727  0  3.629694  0  0  -0.337485  0  3.642508  0  0  -0.365377  -0.3027  0  3.620738  0
N  N118  1  0.83247828  0.94918287  0.60961875  1  0  -0.400486  0  3.329036  0  0  -0.316938  0  3.629612  0  0  -0.337694  0  3.642412  0  0  -0.365447  -0.302912  0  3.620652  0
N  N119  1  0.83247572  0.55082073  0.10961994  1  0  -0.400315  0  3.328994  0  0  -0.316755  0  3.62953  0  0  -0.337512  0  3.642341  0  0  -0.365434  -0.302731  0  3.620582  0
N  N120  1  0.02040085  0.90615235  0.43174611  1  0  -0.280886  0  3.456805  0  0  -0.212166  0  3.689082  0  0  -0.228301  0  3.704126  0  0  -0.376828  -0.201497  0  3.678894  0
N  N121  1  0.02040381  0.59383968  0.93174697  1  0  -0.280917  0  3.456756  0  0  -0.212178  0  3.689081  0  0  -0.22831  0  3.704131  0  0  -0.376918  -0.201512  0  3.678895  0
N  N122  1  0.97959447  0.09384856  0.56824918  1  0  -0.280814  0  3.456727  0  0  -0.212097  0  3.689012  0  0  -0.22823  0  3.704055  0  0  -0.376813  -0.201436  0  3.678834  0
N  N123  1  0.97959449  0.40615620  0.06825011  1  0  -0.280867  0  3.456662  0  0  -0.21209  0  3.688941  0  0  -0.228226  0  3.703989  0  0  -0.3768  -0.201391  0  3.678728  0
O  O124  1  0.41400776  0.29200992  0.43588652  1  0  -0.653333  0  2.041289  0  0  -0.582537  0  2.314259  0  0  -0.610197  0  2.299704  0  0  -0.325875  -0.563223  0  2.323616  0
O  O125  1  0.41400661  0.20799085  0.93588306  1  0  -0.653288  0  2.041207  0  0  -0.582514  0  2.314194  0  0  -0.610177  0  2.299643  0  0  -0.325872  -0.5632  0  2.323543  0
O  O126  1  0.58599349  0.70798931  0.56412202  1  0  -0.653299  0  2.041182  0  0  -0.582602  0  2.314196  0  0  -0.610279  0  2.299681  0  0  -0.325927  -0.563291  0  2.323555  0
O  O127  1  0.58599320  0.79199915  0.06411304  1  0  -0.65334  0  2.040909  0  0  -0.582579  0  2.313938  0  0  -0.610255  0  2.299421  0  0  -0.325941  -0.563263  0  2.323293  0
O  O128  1  0.18068454  0.25095132  0.50375676  1  0  -0.634756  0  1.985816  0  0  -0.585201  0  2.210651  0  0  -0.609105  0  2.202193  0  0  -0.321082  -0.568508  0  2.215889  0
O  O129  1  0.18067962  0.24905363  0.00375298  1  0  -0.634781  0  1.985823  0  0  -0.585217  0  2.210652  0  0  -0.609122  0  2.202191  0  0  -0.321084  -0.568529  0  2.215892  0
O  O130  1  0.81933165  0.74905043  0.49625165  1  0  -0.634781  0  1.986031  0  0  -0.585256  0  2.210812  0  0  -0.609162  0  2.202355  0  0  -0.321084  -0.568564  0  2.216053  0
O  O131  1  0.81930974  0.75094560  0.99624032  1  0  -0.634854  0  1.985933  0  0  -0.585308  0  2.210765  0  0  -0.60921  0  2.202301  0  0  -0.32113  -0.568619  0  2.216009  0
O  O132  1  0.32956887  0.28992482  0.76662513  1  0  -0.649113  0  2.033765  0  0  -0.574908  0  2.302812  0  0  -0.603066  0  2.287505  0  0  -0.339629  -0.555176  0  2.312555  0
O  O133  1  0.32955487  0.21006855  0.26662034  1  0  -0.649121  0  2.033767  0  0  -0.574845  0  2.30277  0  0  -0.602994  0  2.287448  0  0  -0.339533  -0.555112  0  2.312513  0
O  O134  1  0.67045330  0.71006854  0.23338204  1  0  -0.649043  0  2.033892  0  0  -0.574804  0  2.302869  0  0  -0.602945  0  2.287537  0  0  -0.339511  -0.555071  0  2.312611  0
O  O135  1  0.67044343  0.78993321  0.73337835  1  0  -0.64902  0  2.03367  0  0  -0.574821  0  2.302657  0  0  -0.602989  0  2.287374  0  0  -0.339554  -0.555094  0  2.312402  0
O  O136  1  0.57422028  0.40470989  0.82130167  1  0  -0.623107  0  1.939587  0  0  -0.576037  0  2.170616  0  0  -0.598711  0  2.161007  0  0  -0.322457  -0.560213  0  2.176708  0
O  O137  1  0.57421787  0.09529520  0.32130006  1  0  -0.623178  0  1.939399  0  0  -0.576117  0  2.170442  0  0  -0.598812  0  2.160885  0  0  -0.322576  -0.560297  0  2.176535  0
O  O138  1  0.42578844  0.59529186  0.17870627  1  0  -0.623112  0  1.939548  0  0  -0.576077  0  2.170602  0  0  -0.598773  0  2.161052  0  0  -0.322536  -0.560256  0  2.176695  0
O  O139  1  0.42578044  0.90471159  0.67869648  1  0  -0.623018  0  1.939689  0  0  -0.576024  0  2.170751  0  0  -0.598691  0  2.161136  0  0  -0.322459  -0.560208  0  2.176844  0
