# generated using pymatgen
data_Zn2H15C30N3O14
_symmetry_space_group_name_H-M   'P 1'
_cell_length_a   9.50737748
_cell_length_b   11.01261316
_cell_length_c   13.61654629
_cell_angle_alpha   89.12807302
_cell_angle_beta   115.71299802
_cell_angle_gamma   91.22962519
_symmetry_Int_Tables_number   1
_chemical_formula_structural   Zn2H15C30N3O14
_chemical_formula_sum   'Zn2 H15 C30 N3 O14'
_cell_volume   1284.17205543
_cell_formula_units_Z   1
loop_
 _symmetry_equiv_pos_site_id
 _symmetry_equiv_pos_as_xyz
  1  'x, y, z'
loop_
 _atom_site_type_symbol
 _atom_site_label
 _atom_site_symmetry_multiplicity
 _atom_site_fract_x
 _atom_site_fract_y
 _atom_site_fract_z
 _atom_site_occupancy
 _atom_site_pbe_bader_charge
 _atom_site_pbe_bader_spin_density
 _atom_site_pbe_cm5_charge
 _atom_site_pbe_ddec_charge
 _atom_site_pbe_ddec_spin_density
 _atom_site_pbe_ddec_sum_bond_order
 _atom_site_pbe_magmom
Zn  Zn0  1  0.64934595  0.49763026  0.52043549  1  1.284619  0  0.674158  0.817112  0  2.429459  0
Zn  Zn1  1  0.34183027  0.49430693  0.47833226  1  1.274979  0  0.664828  0.800979  0  2.449739  0
H  H2  1  0.15634290  0.63206524  0.14042227  1  0.141992  0  0.118228  0.133939  0  0.998379  0
H  H3  1  0.19242437  0.70094706  0.80013789  1  0.122816  0  0.104165  0.113886  0  1.033368  0
H  H4  1  0.58450229  0.46929688  0.18724266  1  0.112946  0  0.107267  0.109764  0  1.034957  0
H  H5  1  0.85306017  0.42945554  0.85767108  1  0.146307  0  0.11351  0.130492  0  0.99279  0
H  H6  1  0.94331342  0.41836537  0.05961144  1  0.077968  0  0.110545  0.114107  0  0.990612  0
H  H7  1  0.37067713  0.63456945  0.72631632  1  0.122849  0  0.104966  0.115472  0  1.00993  0
H  H8  1  0.30238668  0.10256613  0.54588156  1  0.079242  0  0.10221  0.103578  0  1.003277  0
H  H9  1  0.30949802  0.87498874  0.54846524  1  0.080683  0  0.102645  0.104062  0  1.00463  0
H  H10  1  0.67448816  0.88926114  0.44301322  1  0.080503  0  0.103875  0.106041  0  1.001433  0
H  H11  1  0.67238688  0.11705019  0.44462550  1  0.084527  0  0.102839  0.10822  0  1.006501  0
H  H12  1  0.06349683  0.66403827  0.41359004  1  0.180582  0  0.145838  0.132642  0  0.948217  0
H  H13  1  0.82045440  0.66411768  0.44943025  1  0.179145  0  0.142864  0.129796  0  0.972406  0
H  H14  1  0.17596394  0.32329236  0.55853376  1  0.176881  0  0.138991  0.128898  0  0.978032  0
H  H15  1  0.94619743  0.13578489  0.64977742  1  0.626818  0  0.360243  0.401494  0  0.824775  0
H  H16  1  0.96118239  0.40865159  0.29720041  1  0.625048  0  0.32992  0.365217  0  0.897995  0
C  C17  1  0.48689143  0.25868125  0.49695846  1  1.522535  0  0.219685  0.60234  0  4.153176  0
C  C18  1  0.58258550  0.50407380  0.70816493  1  1.615851  0  0.218808  0.595346  0  4.163397  0
C  C19  1  0.49375282  0.73331851  0.49576036  1  1.588891  0  0.218423  0.596828  0  4.158112  0
C  C20  1  0.41022865  0.51215630  0.28970976  1  1.559637  0  0.216522  0.598326  0  4.16023  0
C  C21  1  0.21393746  0.64300130  0.00453161  1  0.189108  0  0.077374  0.020557  0  3.890544  0
C  C22  1  0.37625272  0.54667105  0.17471981  1  0.012002  0  -0.015701  -0.023654  0  3.975501  0
C  C23  1  0.77877694  0.45976646  0.89466583  1  -0.002042  0  -0.076415  -0.085666  0  3.964508  0
C  C24  1  0.82759092  0.45217292  0.00715816  1  -0.059164  0  -0.076657  -0.084963  0  3.972759  0
C  C25  1  0.73236880  0.48984337  0.05484000  1  -0.076646  0  -0.008708  -0.075595  0  3.934019  0
C  C26  1  0.57931546  0.53366443  0.98918259  1  0.086434  0  0.012498  0.024235  0  3.881942  0
C  C27  1  0.53527297  0.54908802  0.87524860  1  -0.037565  0  0.005423  0.063082  0  3.952802  0
C  C28  1  0.46382499  0.55914773  0.02979298  1  -0.054557  0  0.00445  0.038476  0  3.920646  0
C  C29  1  0.32120024  0.61857970  0.95992156  1  0.059434  0  0.009008  0.05201  0  3.951326  0
C  C30  1  0.29580306  0.65055172  0.85148445  1  -0.03499  0  -0.096205  -0.138844  0  4.019861  0
C  C31  1  0.39549157  0.61330443  0.81051527  1  -0.060123  0  -0.081859  -0.100146  0  3.979512  0
C  C32  1  0.48394547  0.52157387  0.13429094  1  -0.002141  0  -0.065412  -0.101238  0  3.904676  0
C  C33  1  0.24052928  0.60986227  0.10943125  1  0.000217  0  -0.070034  -0.129773  0  3.959815  0
C  C34  1  0.63391821  0.50732076  0.82888302  1  -0.002672  0  0.001367  -0.043192  0  3.893941  0
C  C35  1  0.38414732  0.05522068  0.52399602  1  -0.005127  0  -0.084628  -0.097982  0  3.982986  0
C  C36  1  0.38751722  0.92901687  0.52504220  1  0.021538  0  -0.082122  -0.088508  0  3.97828  0
C  C37  1  0.49254738  0.86905776  0.49615066  1  -0.053735  0  -0.014353  -0.0266  0  3.962284  0
C  C38  1  0.59499449  0.93698008  0.46682451  1  -0.119707  0  -0.083031  -0.091296  0  3.983987  0
C  C39  1  0.59345430  0.06325121  0.46738446  1  0.047024  0  -0.088316  -0.107908  0  3.988672  0
C  C40  1  0.48774242  0.12298729  0.49580838  1  -0.047197  0  -0.010874  -0.01587  0  3.960589  0
C  C41  1  0.03430095  0.58925032  0.45485528  1  0.520663  0  0.086205  0.076213  0  3.867575  0
C  C42  1  0.90392621  0.59055383  0.47679258  1  0.520791  0  0.086548  0.085631  0  3.83052  0
C  C43  1  0.97091336  0.40347084  0.56264996  1  0.511782  0  0.143148  0.089885  0  3.889968  0
C  C44  1  0.09688337  0.39961894  0.53648330  1  0.522686  0  0.075933  0.045971  0  3.835209  0
C  C45  1  0.94926094  0.30684589  0.63459613  1  1.578606  0  0.245841  0.556733  0  4.143057  0
C  C46  1  0.81567021  0.49775183  0.17589985  1  1.505035  0  0.233956  0.577505  0  4.130439  0
N  N47  1  0.87379638  0.49874146  0.53066105  1  -1.193304  0  -0.279812  -0.158736  0  3.448244  0
N  N48  1  0.12754101  0.49289270  0.48339338  1  -1.230974  0  -0.304426  -0.169938  0  3.531168  0
N  N49  1  0.06545385  0.70589725  0.94096484  1  0.386414  0  0.054461  0.514122  0  4.204855  0
O  O50  1  0.61782958  0.31324169  0.52438210  1  -1.162631  0  -0.311986  -0.547231  0  2.360035  0
O  O51  1  0.35603109  0.30941452  0.47110648  1  -1.163243  0  -0.319183  -0.549784  0  2.314394  0
O  O52  1  0.68630843  0.52753654  0.67503390  1  -1.139807  0  -0.304831  -0.517139  0  2.35263  0
O  O53  1  0.44137339  0.47310585  0.64829798  1  -1.173147  0  -0.317535  -0.560787  0  2.341517  0
O  O54  1  0.60665868  0.68232571  0.48682539  1  -1.16853  0  -0.312483  -0.549913  0  2.322004  0
O  O55  1  0.38018926  0.67755093  0.50417727  1  -1.166176  0  -0.319678  -0.556122  0  2.335174  0
O  O56  1  0.54870787  0.47925380  0.35090754  1  -1.171382  0  -0.318985  -0.550647  0  2.313029  0
O  O57  1  0.29976852  0.52165094  0.31865401  1  -1.156235  0  -0.321936  -0.542943  0  2.28262  0
O  O58  1  0.93232659  0.32898665  0.71575869  1  -1.086432  0  -0.251985  -0.425512  0  2.107468  0
O  O59  1  0.96219608  0.19443661  0.60040533  1  -1.105745  0  -0.323395  -0.479441  0  2.223708  0
O  O60  1  0.01435161  0.76888784  0.99276011  1  -0.454516  0  -0.147549  -0.3465  0  1.869026  0
O  O61  1  0.99850381  0.69124044  0.84070141  1  -0.46167  0  -0.134949  -0.334593  0  1.936683  0
O  O62  1  0.82779264  0.58910277  0.22937503  1  -1.136384  0  -0.280493  -0.483557  0  2.112282  0
O  O63  1  0.89034920  0.39258378  0.22080587  1  -1.120714  0  -0.333198  -0.46888  0  2.219263  0
