# generated using pymatgen
data_Zn2H19C22N3O8
_symmetry_space_group_name_H-M   'P 1'
_cell_length_a   9.85405665
_cell_length_b   11.03477165
_cell_length_c   11.14434170
_cell_angle_alpha   97.96109968
_cell_angle_beta   88.09962409
_cell_angle_gamma   82.89049252
_symmetry_Int_Tables_number   1
_chemical_formula_structural   Zn2H19C22N3O8
_chemical_formula_sum   'Zn2 H19 C22 N3 O8'
_cell_volume   1189.33784852
_cell_formula_units_Z   1
loop_
 _symmetry_equiv_pos_site_id
 _symmetry_equiv_pos_as_xyz
  1  'x, y, z'
loop_
 _atom_site_type_symbol
 _atom_site_label
 _atom_site_symmetry_multiplicity
 _atom_site_fract_x
 _atom_site_fract_y
 _atom_site_fract_z
 _atom_site_occupancy
 _atom_site_pbe_bader_charge
 _atom_site_pbe_bader_spin_density
 _atom_site_pbe_cm5_charge
 _atom_site_pbe_ddec_charge
 _atom_site_pbe_ddec_spin_density
 _atom_site_pbe_ddec_sum_bond_order
 _atom_site_pbe_magmom
Zn  Zn0  1  0.35976565  0.52253464  0.50169323  1  1.27869  0  0.670252  0.827855  0  2.406694  0
Zn  Zn1  1  0.64658801  0.49002741  0.49423719  1  1.284531  0  0.662849  0.84942  0  2.418133  0
H  H2  1  0.61582695  0.89101954  0.64417937  1  0.08758  0  0.103619  0.108848  0  0.992213  0
H  H3  1  0.40174741  0.46077237  0.09562589  1  0.065868  0  0.104864  0.124133  0  0.999844  0
H  H4  1  0.87131665  0.51239572  0.66980565  1  0.14693  0  0.140019  0.114655  0  0.95414  0
H  H5  1  0.91131070  0.45262538  0.40647791  1  0.444134  0  0.323909  0.296607  0  0.899669  0
H  H6  1  0.38199517  0.77412050  0.28267893  1  0.106682  0  0.098543  0.106729  0  1.03016  0
H  H7  1  0.28502845  0.88558780  0.12133293  1  0.07399  0  0.096645  0.092765  0  1.005444  0
H  H8  1  0.28221975  0.11394982  0.13645552  1  0.062838  0  0.097552  0.09302  0  0.997475  0
H  H9  1  0.38108123  0.22934716  0.31059353  1  0.070636  0  0.097958  0.111292  0  1.030243  0
H  H10  1  0.61889708  0.11858329  0.65526049  1  0.051857  0  0.103164  0.107093  0  0.988789  0
H  H11  1  0.69581156  0.47070234  0.87594697  1  0.078645  0  0.097397  0.097736  0  1.019218  0
H  H12  1  0.70371108  0.50509765  0.10087426  1  0.095718  0  0.104604  0.101386  0  0.984086  0
H  H13  1  0.07744142  0.35855421  0.69658128  1  0.462669  0  0.32605  0.317153  0  0.918795  0
H  H14  1  0.23919072  0.37190166  0.63561976  1  0.535826  0  0.309787  0.338423  0  0.961703  0
H  H15  1  0.14856051  0.69431892  0.42131024  1  0.100175  0  0.11317  0.140785  0  0.983876  0
H  H16  1  0.09841836  0.56548764  0.32929062  1  0.07662  0  0.104502  0.115696  0  0.97723  0
H  H17  1  0.98124281  0.65259147  0.44561284  1  0.052134  0  0.103381  0.111631  0  1.001835  0
H  H18  1  0.32177809  0.69164194  0.87928181  1  0.070895  0  0.095014  0.137661  0  0.993397  0
H  H19  1  0.28053378  0.55182168  0.91968262  1  0.030656  0  0.090869  0.125614  0  0.994694  0
H  H20  1  0.36776205  0.64815716  0.02377856  1  0.05733  0  0.089889  0.124397  0  1.0228  0
C  C21  1  0.51037280  0.47346482  0.26319437  1  1.533884  0  0.203445  0.623681  0  4.201522  0
C  C22  1  0.43913006  0.93671120  0.39153116  1  -0.024164  0  -0.001408  0.064235  0  3.943678  0
C  C23  1  0.50204847  0.87519017  0.48437951  1  -0.01914  0  -0.01377  -0.073628  0  3.935684  0
C  C24  1  0.56632339  0.94063685  0.57603296  1  -0.01717  0  -0.08841  -0.097643  0  4.018108  0
C  C25  1  0.56774240  0.06867740  0.58232303  1  0.013883  0  -0.095112  -0.117336  0  4.032693  0
C  C26  1  0.50440654  0.13176727  0.49633592  1  -0.108583  0  -0.011138  -0.063753  0  3.951943  0
C  C27  1  0.60111011  0.50495581  0.93068308  1  -0.043837  0  -0.089512  -0.126442  0  3.982556  0
C  C28  1  0.49421562  0.55204825  0.87012703  1  -0.073329  0  -0.01064  0.035872  0  3.890939  0
C  C29  1  0.60546999  0.49735546  0.05917426  1  -0.087445  0  -0.074887  -0.009839  0  4.005248  0
C  C30  1  0.50065296  0.47637773  0.13140006  1  0.029526  0  -0.095182  -0.238426  0  3.898577  0
C  C31  1  0.07952876  0.48155673  0.57617567  1  1.177071  0  0.253853  0.382016  0  4.101807  0
C  C32  1  0.50152235  0.74001051  0.48802770  1  1.554151  0  0.217477  0.602451  0  4.164077  0
C  C33  1  0.92695288  0.49153843  0.58076768  1  0.702045  0  0.129796  0.137256  0  3.823655  0
C  C34  1  0.50976180  0.54023135  0.73431758  1  1.581445  0  0.208285  0.573806  0  4.1727  0
C  C35  1  0.50636948  0.26837708  0.50458389  1  1.590995  0  0.2225  0.613448  0  4.164799  0
C  C36  1  0.38164603  0.87348913  0.28938450  1  -0.086595  0  -0.094184  -0.133981  0  3.986319  0
C  C37  1  0.32700261  0.93617109  0.19968499  1  -0.060159  0  -0.099506  -0.091625  0  4.06128  0
C  C38  1  0.32577882  0.06531927  0.20792570  1  -0.050645  0  -0.099833  -0.091393  0  4.064531  0
C  C39  1  0.38096332  0.12985772  0.30522922  1  -0.010384  0  -0.096228  -0.134389  0  3.977264  0
C  C40  1  0.43983224  0.06782984  0.39843844  1  0.02074  0  -0.004224  0.054965  0  3.955816  0
C  C41  1  0.08931448  0.61654480  0.42210408  1  0.226665  0  -0.140428  -0.236196  0  3.959561  0
C  C42  1  0.35929184  0.61476347  0.92727357  1  -0.06435  0  -0.24252  -0.393039  0  4.005084  0
N  N43  1  0.15102742  0.53713116  0.50575034  1  -1.210217  0  -0.360017  -0.297924  0  3.435366  0
N  N44  1  0.85597595  0.47322168  0.48791013  1  -1.190432  0  -0.438986  -0.377666  0  3.277094  0
N  N45  1  0.13799687  0.40868520  0.65381420  1  -1.258832  0  -0.557952  -0.603217  0  3.286828  0
O  O46  1  0.39953850  0.45886876  0.31994012  1  -1.165518  0  -0.326199  -0.563349  0  2.290697  0
O  O47  1  0.62387107  0.48781111  0.31148105  1  -1.171149  0  -0.325323  -0.556075  0  2.289903  0
O  O48  1  0.39012587  0.69508241  0.46603245  1  -1.164548  0  -0.31386  -0.549041  0  2.336621  0
O  O49  1  0.61227881  0.68024098  0.51562790  1  -1.171102  0  -0.322768  -0.557377  0  2.3102  0
O  O50  1  0.40067468  0.57046390  0.68092526  1  -1.168019  0  -0.317321  -0.541857  0  2.33074  0
O  O51  1  0.62651570  0.49882441  0.68118070  1  -1.177338  0  -0.325867  -0.569076  0  2.334878  0
O  O52  1  0.39359771  0.33781369  0.53669256  1  -1.193322  0  -0.314307  -0.575064  0  2.354962  0
O  O53  1  0.61876821  0.30524622  0.47842181  1  -1.14853  0  -0.309813  -0.532294  0  2.277679  0
