# generated using pymatgen
data_MnH7C5(NO2)3
_symmetry_space_group_name_H-M   'P 1'
_cell_length_a   4.76308152
_cell_length_b   6.70962107
_cell_length_c   13.86741432
_cell_angle_alpha   98.58902920
_cell_angle_beta   97.84523051
_cell_angle_gamma   102.03029011
_symmetry_Int_Tables_number   1
_chemical_formula_structural   MnH7C5(NO2)3
_chemical_formula_sum   'Mn2 H14 C10 N6 O12'
_cell_volume   422.09944628
_cell_formula_units_Z   2
loop_
 _symmetry_equiv_pos_site_id
 _symmetry_equiv_pos_as_xyz
  1  'x, y, z'
loop_
 _atom_site_type_symbol
 _atom_site_label
 _atom_site_symmetry_multiplicity
 _atom_site_fract_x
 _atom_site_fract_y
 _atom_site_fract_z
 _atom_site_occupancy
 _atom_site_hle17_ddec_charge
 _atom_site_hle17_ddec_spin_density
 _atom_site_hle17_ddec_sum_bond_order
 _atom_site_hle17_magmom
 _atom_site_hse06_10hf_ddec_charge
 _atom_site_hse06_10hf_ddec_spin_density
 _atom_site_hse06_10hf_ddec_sum_bond_order
 _atom_site_hse06_10hf_magmom
 _atom_site_hse06_ddec_charge
 _atom_site_hse06_ddec_spin_density
 _atom_site_hse06_ddec_sum_bond_order
 _atom_site_hse06_magmom
 _atom_site_pbe_cm5_charge
 _atom_site_pbe_ddec_charge
 _atom_site_pbe_ddec_spin_density
 _atom_site_pbe_ddec_sum_bond_order
 _atom_site_pbe_magmom
Mn  Mn0  1  0.49999773  0.99999431  0.00000336  1  1.264434  -4.794431  1.702234  -4.689  1.123338  -4.719511  2.184629  -4.552  1.176975  -4.761277  2.113009  -4.612  0.591835  1.082098  -4.67594  2.236858  -4.493
Mn  Mn1  1  0.00001313  0.49999303  0.50000239  1  1.175622  -4.807948  1.711473  -4.687  1.01449  -4.739414  2.188297  -4.552  1.069451  -4.775005  2.124753  -4.607  0.617916  0.970682  -4.705518  2.236402  -4.501
H  H2  1  0.53885147  0.41938412  0.13319637  1  0.135413  4.2e-05  0.948658  0.0  0.139869  -0.000257  1.019978  -0.001  0.142791  -7.9e-05  1.018576  0.0  0.125217  0.137668  -0.000451  1.021156  -0.001
H  H3  1  0.46115236  0.58062539  0.86680293  1  0.135413  5.3e-05  0.948641  0.0  0.13986  -0.000258  1.019969  -0.001  0.142779  -8e-05  1.018564  0.0  0.125214  0.137659  -0.000451  1.021149  -0.001
H  H4  1  0.38107798  0.60510827  0.08233175  1  0.137274  0.000153  0.945399  0.0  0.145159  -0.000265  1.012674  -0.001  0.148851  -8e-06  1.009894  0.0  0.130998  0.14234  -0.000563  1.014889  -0.001
H  H5  1  0.61892020  0.39489039  0.91766649  1  0.13729  0.000155  0.945395  0.0  0.145164  -0.000265  1.012679  -0.001  0.148855  -7e-06  1.009899  0.0  0.131  0.142345  -0.000563  1.014896  -0.001
H  H6  1  0.33170895  0.29204050  0.29090123  1  0.122641  0.000696  0.938824  0.0  0.130073  0.000204  1.00263  0.0  0.134029  0.000361  0.997621  0.0  0.146293  0.126874  3.2e-05  1.006609  0.0
H  H7  1  0.66831170  0.70797524  0.70910079  1  0.122732  0.000691  0.938724  0.0  0.130089  0.000204  1.002624  0.0  0.134099  0.000362  0.99755  0.0  0.146328  0.126892  3.2e-05  1.006598  0.0
H  H8  1  0.34183997  0.87859036  0.59794501  1  0.422572  -1.4e-05  0.882028  -0.001  0.387589  -0.000804  0.952293  -0.002  0.400001  -0.000503  0.934217  -0.001  0.287923  0.378671  -0.001088  0.965248  -0.002
H  H9  1  0.65814984  0.12140208  0.40205237  1  0.42258  -1.4e-05  0.882015  -0.001  0.387575  -0.000803  0.95232  -0.002  0.39999  -0.000502  0.934239  -0.001  0.287912  0.378653  -0.001088  0.965281  -0.002
H  H10  1  0.58467723  0.99030359  0.20718241  1  0.43249  0.000101  0.85025  -0.001  0.404661  -0.000511  0.912966  -0.002  0.414938  -0.000249  0.897925  -0.001  0.302767  0.397378  -0.000772  0.923597  -0.002
H  H11  1  0.41530702  0.00969813  0.79281969  1  0.432504  0.0001  0.850156  -0.001  0.404703  -0.000511  0.912904  -0.002  0.414967  -0.000248  0.897868  -0.001  0.302777  0.397421  -0.000772  0.923534  -0.002
H  H12  1  0.53335275  0.78520433  0.52020098  1  0.428884  0.00018  0.868693  -0.001  0.396586  -0.000792  0.934225  -0.002  0.408204  -0.000398  0.917201  -0.002  0.295961  0.388273  -0.001171  0.946368  -0.002
H  H13  1  0.46664967  0.21479434  0.47979748  1  0.428844  0.00018  0.868752  -0.001  0.396536  -0.000791  0.934302  -0.002  0.408153  -0.000397  0.917278  -0.002  0.29592  0.388226  -0.00117  0.946442  -0.002
H  H14  1  0.25246676  0.90935295  0.16654533  1  0.406509  0.000231  0.892462  -0.001  0.367605  -0.000356  0.978514  -0.001  0.378516  -0.0001  0.962473  -0.001  0.297365  0.359827  -0.000609  0.989918  -0.001
H  H15  1  0.74752542  0.09065344  0.83345462  1  0.406493  0.000231  0.89245  -0.001  0.367578  -0.000355  0.978558  -0.001  0.378487  -0.0001  0.962521  -0.001  0.297345  0.359801  -0.000609  0.989961  -0.001
C  C16  1  0.01107148  0.66658766  0.31111457  1  0.168394  -0.002585  3.75235  -0.003  0.146031  -0.004621  4.036957  -0.005  0.151289  -0.003768  4.05124  -0.004  0.212121  0.142281  -0.005689  4.02748  -0.006
C  C17  1  0.98893039  0.33340946  0.68888590  1  0.168342  -0.002593  3.752357  -0.003  0.145939  -0.00462  4.03702  -0.005  0.151197  -0.003773  4.051301  -0.004  0.212145  0.142194  -0.005691  4.027535  -0.006
C  C18  1  0.23127787  0.42184248  0.28536264  1  0.20988  -0.004895  3.579796  -0.006  0.131089  -0.006926  3.847434  -0.007  0.145314  -0.005745  3.85695  -0.006  0.180783  0.121752  -0.008277  3.840964  -0.008
C  C19  1  0.76874559  0.57816863  0.71463558  1  0.209735  -0.00488  3.580026  -0.006  0.13098  -0.00693  3.847679  -0.007  0.145162  -0.005746  3.857168  -0.006  0.18072  0.121643  -0.008279  3.84121  -0.008
C  C20  1  0.33456020  0.46822666  0.11717517  1  -0.207496  -0.001198  3.603866  -0.001  -0.277957  -0.002091  3.846531  -0.001  -0.281049  -0.001377  3.852124  -0.001  -0.053225  -0.275546  -0.002842  3.843068  -0.002
C  C21  1  0.66543900  0.53177510  0.88282262  1  -0.207451  -0.001224  3.603781  -0.001  -0.277901  -0.00209  3.846406  -0.001  -0.280985  -0.001383  3.851989  -0.001  -0.053223  -0.27549  -0.002842  3.842947  -0.002
C  C22  1  0.84665869  0.80129040  0.36496596  1  0.622839  -0.000274  3.93271  -0.001  0.565192  -0.002625  4.242825  -0.003  0.599234  -0.001535  4.233774  -0.002  0.223469  0.541869  -0.003818  4.248244  -0.004
C  C23  1  0.15332319  0.19869737  0.63503358  1  0.623148  -0.000279  3.93242  -0.001  0.565474  -0.002626  4.24258  -0.003  0.599512  -0.001534  4.233522  -0.002  0.223601  0.542153  -0.003819  4.248001  -0.004
C  C24  1  0.10955039  0.29479786  0.04500227  1  0.721348  -0.013086  3.82338  -0.013  0.667012  -0.021026  4.13042  -0.019  0.702267  -0.015936  4.123067  -0.015  0.230277  0.64199  -0.026715  4.134846  -0.023
C  C25  1  0.89044941  0.70519925  0.95499594  1  0.721229  -0.01308  3.823583  -0.013  0.6669  -0.021027  4.130577  -0.019  0.702159  -0.015936  4.123224  -0.015  0.230268  0.641876  -0.026714  4.135004  -0.023
N  N26  1  0.09460215  0.50911481  0.35148238  1  -0.420353  -0.02614  3.187631  -0.011  -0.357013  -0.029307  3.48226  -0.009  -0.378886  -0.02635  3.494341  -0.007  -0.333563  -0.341289  -0.031994  3.473617  -0.01
N  N27  1  0.90540763  0.49088698  0.64851666  1  -0.420252  -0.026152  3.187834  -0.011  -0.356867  -0.029308  3.482403  -0.009  -0.378744  -0.026345  3.494504  -0.007  -0.333497  -0.341142  -0.031994  3.473754  -0.01
N  N28  1  0.23218443  0.52437879  0.20886493  1  0.087686  -0.000798  3.555528  -0.001  0.199841  -0.002161  3.747784  -0.002  0.191955  -0.001467  3.768117  -0.002  -0.121397  0.204634  -0.002894  3.73436  -0.003
N  N29  1  0.76782057  0.47562764  0.79113132  1  0.087612  -0.000787  3.555582  -0.001  0.199782  -0.002162  3.74777  -0.002  0.191891  -0.001471  3.768116  -0.002  -0.121431  0.204574  -0.002895  3.734352  -0.003
N  N30  1  0.09112849  0.67946914  0.22343817  1  -0.246279  0.001286  2.887609  0.001  -0.241949  -0.000308  3.147642  -0.001  -0.24733  0.00066  3.158594  0.0  -0.187239  -0.238576  -0.001266  3.140978  -0.001
N  N31  1  0.90886643  0.32053261  0.77656085  1  -0.246195  0.001281  2.887603  0.001  -0.241843  -0.000306  3.147659  -0.001  -0.247225  0.000663  3.158613  0.0  -0.187217  -0.238472  -0.001266  3.140995  -0.001
O  O32  1  0.77035093  0.94558065  0.32703370  1  -0.601708  -0.001847  1.989978  -0.003  -0.547091  -0.003961  2.212504  -0.005  -0.571365  -0.002735  2.201212  -0.004  -0.29783  -0.530253  -0.005323  2.220127  -0.006
O  O33  1  0.22961084  0.05440399  0.67296534  1  -0.601772  -0.001849  1.989929  -0.003  -0.54715  -0.003962  2.212499  -0.005  -0.571427  -0.002737  2.201195  -0.004  -0.297871  -0.530314  -0.005324  2.22012  -0.006
O  O34  1  0.79597726  0.75378383  0.44798008  1  -0.6376  -0.027512  2.038316  -0.019  -0.568969  -0.035227  2.288345  -0.024  -0.598253  -0.031305  2.275045  -0.021  -0.294049  -0.547568  -0.039066  2.296922  -0.028
O  O35  1  0.20401993  0.24620553  0.55202178  1  -0.637816  -0.027514  2.038174  -0.019  -0.569169  -0.035237  2.288247  -0.024  -0.59844  -0.031311  2.274927  -0.021  -0.294166  -0.547783  -0.039075  2.296842  -0.028
O  O36  1  0.38704767  0.74962557  0.56327748  1  -0.855814  -0.032073  1.899943  -0.021  -0.794968  -0.042276  2.114014  -0.027  -0.819712  -0.037349  2.076405  -0.023  -0.573411  -0.776092  -0.0468  2.140316  -0.031
O  O37  1  0.61294581  0.25037153  0.43671826  1  -0.855734  -0.032067  1.899889  -0.021  -0.794876  -0.04227  2.113951  -0.027  -0.819617  -0.037345  2.07634  -0.023  -0.573359  -0.775997  -0.046794  2.140249  -0.031
O  O38  1  0.20217047  0.19379830  0.97649733  1  -0.661594  -0.02888  2.039102  -0.015  -0.59923  -0.037285  2.306912  -0.02  -0.629094  -0.032635  2.293328  -0.016  -0.310641  -0.577009  -0.041804  2.315479  -0.024
O  O39  1  0.79784507  0.80620814  0.02350233  1  -0.66149  -0.028886  2.039157  -0.015  -0.599184  -0.037291  2.307026  -0.02  -0.62905  -0.032642  2.293438  -0.016  -0.310658  -0.576954  -0.041811  2.315584  -0.024
O  O40  1  0.84661809  0.26774754  0.05794139  1  -0.657791  -0.03522  2.054923  -0.023  -0.591934  -0.043244  2.318405  -0.028  -0.62245  -0.038327  2.306463  -0.023  -0.306965  -0.569572  -0.048101  2.326126  -0.032
O  O41  1  0.15338428  0.73224492  0.94206382  1  -0.657809  -0.035224  2.055043  -0.023  -0.591897  -0.043244  2.318451  -0.028  -0.622422  -0.038322  2.306518  -0.023  -0.306942  -0.56953  -0.048102  2.32617  -0.032
O  O42  1  0.42715120  0.01079776  0.15807326  1  -0.827355  -0.026964  1.885344  -0.016  -0.77052  -0.03669  2.09529  -0.022  -0.792483  -0.033008  2.06043  -0.019  -0.559728  -0.754054  -0.040052  2.119673  -0.025
O  O43  1  0.57284044  0.98920708  0.84192799  1  -0.827399  -0.026963  1.885231  -0.016  -0.770597  -0.03669  2.09512  -0.022  -0.792537  -0.033008  2.060324  -0.019  -0.559742  -0.75413  -0.04005  2.1195  -0.025
