# generated using pymatgen
data_AgH10C11SN2O3
_symmetry_space_group_name_H-M   'P 1'
_cell_length_a   7.58969301
_cell_length_b   8.95837526
_cell_length_c   10.88846732
_cell_angle_alpha   68.50077100
_cell_angle_beta   73.44537793
_cell_angle_gamma   73.06845349
_symmetry_Int_Tables_number   1
_chemical_formula_structural   AgH10C11SN2O3
_chemical_formula_sum   'Ag2 H20 C22 S2 N4 O6'
_cell_volume   645.61328608
_cell_formula_units_Z   2
loop_
 _symmetry_equiv_pos_site_id
 _symmetry_equiv_pos_as_xyz
  1  'x, y, z'
loop_
 _atom_site_type_symbol
 _atom_site_label
 _atom_site_symmetry_multiplicity
 _atom_site_fract_x
 _atom_site_fract_y
 _atom_site_fract_z
 _atom_site_occupancy
 _atom_site_hle17_bader_spin_density
 _atom_site_hle17_ddec_charge
 _atom_site_hle17_ddec_spin_density
 _atom_site_hle17_ddec_sum_bond_order
 _atom_site_hle17_magmom
 _atom_site_hse06_10hf_bader_spin_density
 _atom_site_hse06_10hf_ddec_charge
 _atom_site_hse06_10hf_ddec_spin_density
 _atom_site_hse06_10hf_ddec_sum_bond_order
 _atom_site_hse06_10hf_magmom
 _atom_site_hse06_bader_spin_density
 _atom_site_hse06_ddec_charge
 _atom_site_hse06_ddec_spin_density
 _atom_site_hse06_ddec_sum_bond_order
 _atom_site_hse06_magmom
 _atom_site_pbe_bader_spin_density
 _atom_site_pbe_cm5_charge
 _atom_site_pbe_ddec_charge
 _atom_site_pbe_ddec_spin_density
 _atom_site_pbe_ddec_sum_bond_order
 _atom_site_pbe_magmom
Ag  Ag0  1  0.30377395  0.03994651  0.92677941  1  0  0.532512  0  1.456009  0  0  0.381619  0  1.904534  0  0  0.408414  0  1.862083  0  0  0.482414  0.363319  0  1.933477  0
Ag  Ag1  1  0.69621978  0.96006181  0.07321894  1  0  0.532495  0  1.456086  0  0  0.381593  0  1.904622  0  0  0.408388  0  1.862172  0  0  0.482429  0.363273  0  1.933587  0
H  H2  1  0.61027894  0.79606187  0.81462372  1  0  0.084912  0  0.955937  0  0  0.09631  0  1.017951  0  0  0.097634  0  1.017046  0  0  0.117354  0.095209  0  1.018768  0
H  H3  1  0.38970176  0.20394376  0.18537340  1  0  0.084793  0  0.955948  0  0  0.096212  0  1.017954  0  0  0.097531  0  1.017046  0  0  0.117327  0.095113  0  1.01877  0
H  H4  1  0.96601111  0.76765303  0.41155177  1  0  0.109086  0  0.937113  0  0  0.125549  0  0.98483  0  0  0.128268  0  0.984455  0  0  0.11399  0.123574  0  0.985348  0
H  H5  1  0.03399585  0.23234697  0.58844547  1  0  0.109076  0  0.937114  0  0  0.125532  0  0.984839  0  0  0.128252  0  0.984463  0  0  0.113978  0.123554  0  0.985369  0
H  H6  1  0.02739043  0.28867986  0.05336152  1  0  0.098806  0  0.946815  0  0  0.109101  0  1.005899  0  0  0.111398  0  1.004105  0  0  0.118401  0.107277  0  1.007405  0
H  H7  1  0.97261497  0.71133105  0.94664293  1  0  0.098795  0  0.946937  0  0  0.109076  0  1.006016  0  0  0.111381  0  1.004211  0  0  0.118404  0.107252  0  1.007513  0
H  H8  1  0.37065857  0.28174941  0.64085960  1  0  0.087549  0  0.921898  0  0  0.098796  0  0.980319  0  0  0.10134  0  0.977649  0  0  0.122114  0.096825  0  0.98239  0
H  H9  1  0.62933521  0.71826382  0.35913913  1  0  0.087614  0  0.922041  0  0  0.098812  0  0.980504  0  0  0.101354  0  0.977838  0  0  0.122141  0.096873  0  0.982533  0
H  H10  1  0.81198434  0.29965717  0.26776746  1  0  0.119598  0  0.985034  0  0  0.128204  0  1.045226  0  0  0.131608  0  1.043665  0  0  0.109865  0.125752  0  1.046423  0
H  H11  1  0.18802441  0.70034637  0.73224125  1  0  0.119632  0  0.985057  0  0  0.128237  0  1.045243  0  0  0.13164  0  1.043683  0  0  0.109835  0.125781  0  1.046433  0
H  H12  1  0.83749714  0.78155879  0.60356167  1  0  0.108365  0  0.940752  0  0  0.124946  0  0.988976  0  0  0.127599  0  0.988422  0  0  0.113852  0.122987  0  0.989535  0
H  H13  1  0.16248319  0.21844310  0.39643846  1  0  0.108427  0  0.940716  0  0  0.124972  0  0.988973  0  0  0.127623  0  0.988422  0  0  0.113844  0.123016  0  0.989533  0
H  H14  1  0.57919748  0.28918161  0.41956445  1  0  0.127178  0  0.972716  0  0  0.137588  0  1.030236  0  0  0.141052  0  1.028519  0  0  0.110581  0.135002  0  1.031743  0
H  H15  1  0.42080061  0.71082070  0.58043020  1  0  0.127268  0  0.972729  0  0  0.137649  0  1.030266  0  0  0.141113  0  1.028548  0  0  0.110614  0.135067  0  1.031763  0
H  H16  1  0.18504995  0.78089130  0.19296055  1  0  0.09978  0  0.941486  0  0  0.109604  0  1.000313  0  0  0.11217  0  0.997752  0  0  0.120165  0.107572  0  1.002413  0
H  H17  1  0.81494618  0.21911835  0.80703417  1  0  0.099858  0  0.941487  0  0  0.109735  0  1.000225  0  0  0.112296  0  0.997682  0  0  0.120219  0.107703  0  1.002336  0
H  H18  1  0.70157329  0.52393230  0.92553778  1  0  0.123739  0  0.915339  0  0  0.140876  0  0.965456  0  0  0.143795  0  0.964116  0  0  0.108147  0.138739  0  0.96667  0
H  H19  1  0.29843494  0.47605777  0.07446763  1  0  0.123761  0  0.915067  0  0  0.140799  0  0.965299  0  0  0.14373  0  0.963963  0  0  0.108119  0.138664  0  0.966508  0
H  H20  1  0.64597201  0.35143356  0.06466698  1  0  0.111043  0  0.950902  0  0  0.121061  0  1.021231  0  0  0.123785  0  1.020155  0  0  0.100691  0.11917  0  1.022095  0
H  H21  1  0.35403929  0.64855533  0.93533909  1  0  0.111009  0  0.951157  0  0  0.120974  0  1.021505  0  0  0.12371  0  1.02043  0  0  0.100632  0.119084  0  1.022365  0
C  C22  1  0.60891198  0.90150232  0.72390461  1  0  0.123985  0  3.691901  0  0  0.092288  0  3.939242  0  0  0.098521  0  3.959798  0  0  0.043874  0.088231  0  3.92512  0
C  C23  1  0.39107442  0.09849231  0.27609645  1  0  0.124053  0  3.691933  0  0  0.092321  0  3.939302  0  0  0.098566  0  3.959849  0  0  0.043846  0.088254  0  3.925192  0
C  C24  1  0.97354338  0.88713514  0.33648713  1  0  -0.155733  0  3.713365  0  0  -0.176567  0  3.966756  0  0  -0.183877  0  3.987512  0  0  -0.080017  -0.172083  0  3.953055  0
C  C25  1  0.02645609  0.11286714  0.66351184  1  0  -0.155634  0  3.713089  0  0  -0.176495  0  3.966457  0  0  -0.183807  0  3.987218  0  0  -0.079966  -0.172011  0  3.952769  0
C  C26  1  0.73201359  0.03496821  0.49037427  1  0  0.08806  0  3.745774  0  0  0.10059  0  3.977798  0  0  0.103638  0  4.000231  0  0  0.011201  0.098473  0  3.962604  0
C  C27  1  0.26798341  0.96502793  0.50962149  1  0  0.088122  0  3.745719  0  0  0.100598  0  3.977751  0  0  0.103647  0  4.000182  0  0  0.011232  0.098487  0  3.962554  0
C  C28  1  0.00759294  0.17583944  0.13538463  1  0  0.109246  0  3.695964  0  0  0.079723  0  3.942662  0  0  0.086169  0  3.961444  0  0  0.042187  0.07548  0  3.930103  0
C  C29  1  0.99240927  0.82416288  0.86461563  1  0  0.109188  0  3.696155  0  0  0.079708  0  3.942838  0  0  0.086149  0  3.961618  0  0  0.042203  0.075465  0  3.930265  0
C  C30  1  0.47501455  0.17299400  0.62704442  1  0  0.128226  0  3.690916  0  0  0.095265  0  3.939041  0  0  0.101839  0  3.958129  0  0  0.048327  0.090957  0  3.926237  0
C  C31  1  0.52497602  0.82700561  0.37295803  1  0  0.128116  0  3.690988  0  0  0.09518  0  3.939092  0  0  0.101749  0  3.958189  0  0  0.048226  0.09085  0  3.926275  0
C  C32  1  0.88574927  0.17982182  0.25700302  1  0  -0.159123  0  3.699445  0  0  -0.176587  0  3.947193  0  0  -0.184631  0  3.968574  0  0  -0.083579  -0.171164  0  3.932542  0
C  C33  1  0.11425355  0.82017304  0.74300390  1  0  -0.159074  0  3.699525  0  0  -0.176569  0  3.947233  0  0  -0.184615  0  3.968616  0  0  -0.083549  -0.171148  0  3.932585  0
C  C34  1  0.86397699  0.03324133  0.36118543  1  0  0.089537  0  3.761119  0  0  0.096026  0  4.00031  0  0  0.100607  0  4.0218  0  0  0.009376  0.09332  0  3.985428  0
C  C35  1  0.13601893  0.96674854  0.63881790  1  0  0.089437  0  3.760971  0  0  0.096018  0  4.000073  0  0  0.100601  0  4.021563  0  0  0.009335  0.093312  0  3.985183  0
C  C36  1  0.73587882  0.89559696  0.60481929  1  0  -0.146332  0  3.714006  0  0  -0.166561  0  3.96177  0  0  -0.173536  0  3.984092  0  0  -0.077277  -0.16161  0  3.946427  0
C  C37  1  0.26410419  0.10440005  0.39518266  1  0  -0.146367  0  3.714012  0  0  -0.16656  0  3.961812  0  0  -0.173534  0  3.984132  0  0  -0.077217  -0.161614  0  3.946481  0
C  C38  1  0.59638509  0.17641813  0.50386426  1  0  -0.147288  0  3.66688  0  0  -0.162332  0  3.904137  0  0  -0.169579  0  3.925774  0  0  -0.0768  -0.157828  0  3.890014  0
C  C39  1  0.40361257  0.82357553  0.49613393  1  0  -0.147382  0  3.666983  0  0  -0.162384  0  3.904255  0  0  -0.16963  0  3.925889  0  0  -0.076836  -0.157893  0  3.890143  0
C  C40  1  0.09452976  0.89216780  0.21298136  1  0  0.117914  0  3.699598  0  0  0.087516  0  3.949022  0  0  0.095029  0  3.966039  0  0  0.045201  0.082516  0  3.937817  0
C  C41  1  0.90546803  0.10783559  0.78702313  1  0  0.117711  0  3.699342  0  0  0.087309  0  3.948735  0  0  0.094819  0  3.965768  0  0  0.045097  0.082307  0  3.937545  0
C  C42  1  0.59620717  0.48279035  0.01632785  1  0  -0.280061  0  3.663098  0  0  -0.318056  0  3.91981  0  0  -0.32321  0  3.928419  0  0  -0.164667  -0.314569  0  3.914108  0
C  C43  1  0.40380978  0.51721857  0.98366020  1  0  -0.279923  0  3.663182  0  0  -0.317775  0  3.919915  0  0  -0.322946  0  3.928468  0  0  -0.164505  -0.314274  0  3.914194  0
S  S44  1  0.58888179  0.58816794  0.13108192  1  0  1.31324  0  5.649663  0  0  1.230997  0  6.171203  0  0  1.275693  0  6.15083  0  0  0.477309  1.200144  0  6.184164  0
S  S45  1  0.41113202  0.41183210  0.86892130  1  0  1.313228  0  5.650178  0  0  1.23097  0  6.171697  0  0  1.275677  0  6.151333  0  0  0.477305  1.200106  0  6.184678  0
N  N46  1  0.47917569  0.03765093  0.73567815  1  0  -0.29313  0  3.365098  0  0  -0.202759  0  3.644829  0  0  -0.221674  0  3.662996  0  0  -0.350654  -0.190036  0  3.632177  0
N  N47  1  0.52081185  0.96235484  0.26431849  1  0  -0.293081  0  3.364943  0  0  -0.202663  0  3.644606  0  0  -0.221578  0  3.662772  0  0  -0.35057  -0.189927  0  3.631948  0
N  N48  1  0.11060834  0.03432011  0.11280100  1  0  -0.299174  0  3.381513  0  0  -0.210522  0  3.665473  0  0  -0.22933  0  3.681928  0  0  -0.351625  -0.197671  0  3.654114  0
N  N49  1  0.88939345  0.96567350  0.88720557  1  0  -0.29911  0  3.381394  0  0  -0.210503  0  3.665395  0  0  -0.229311  0  3.681851  0  0  -0.351642  -0.197651  0  3.654035  0
O  O50  1  0.50561786  0.76134186  0.06445833  1  0  -0.728109  0  2.059113  0  0  -0.66543  0  2.356047  0  0  -0.687101  0  2.336848  0  0  -0.3712  -0.649866  0  2.368513  0
O  O51  1  0.49439189  0.23866310  0.93553874  1  0  -0.728026  0  2.059217  0  0  -0.665415  0  2.356206  0  0  -0.687091  0  2.337011  0  0  -0.371199  -0.649836  0  2.368648  0
O  O52  1  0.78463061  0.56608192  0.14143983  1  0  -0.684928  0  1.884779  0  0  -0.640533  0  2.124075  0  0  -0.659744  0  2.109205  0  0  -0.36546  -0.626863  0  2.133771  0
O  O53  1  0.21539133  0.43391346  0.85855671  1  0  -0.685009  0  1.885022  0  0  -0.640576  0  2.124278  0  0  -0.659788  0  2.109402  0  0  -0.365467  -0.626903  0  2.133978  0
O  O54  1  0.46844978  0.51334053  0.25842685  1  0  -0.678928  0  1.858621  0  0  -0.636726  0  2.087713  0  0  -0.655893  0  2.074861  0  0  -0.373783  -0.622875  0  2.095936  0
O  O55  1  0.53156190  0.48665208  0.74157714  1  0  -0.678952  0  1.858644  0  0  -0.636741  0  2.08774  0  0  -0.65591  0  2.074888  0  0  -0.373822  -0.622887  0  2.095965  0
