# generated using pymatgen
data_AgH6C12N3O5
_symmetry_space_group_name_H-M   'P 1'
_cell_length_a   9.43432939
_cell_length_b   10.44961153
_cell_length_c   12.16150000
_cell_angle_alpha   90.00000000
_cell_angle_beta   99.84071880
_cell_angle_gamma   90.00000000
_symmetry_Int_Tables_number   1
_chemical_formula_structural   AgH6C12N3O5
_chemical_formula_sum   'Ag4 H24 C48 N12 O20'
_cell_volume   1181.30199949
_cell_formula_units_Z   4
loop_
 _symmetry_equiv_pos_site_id
 _symmetry_equiv_pos_as_xyz
  1  'x, y, z'
loop_
 _atom_site_type_symbol
 _atom_site_label
 _atom_site_symmetry_multiplicity
 _atom_site_fract_x
 _atom_site_fract_y
 _atom_site_fract_z
 _atom_site_occupancy
 _atom_site_pbe_bader_charge
 _atom_site_pbe_bader_spin_density
 _atom_site_pbe_cm5_charge
 _atom_site_pbe_ddec_charge
 _atom_site_pbe_ddec_spin_density
 _atom_site_pbe_ddec_sum_bond_order
 _atom_site_pbe_magmom
Ag  Ag0  1  0.22908887  0.15019888  0.49541892  1  0.649012  0  0.456561  0.40208  0  1.785734  0
Ag  Ag1  1  0.27091117  0.65020120  0.00458104  1  0.64901  0  0.456564  0.402085  0  1.785668  0
Ag  Ag2  1  0.77091122  0.84980097  0.50458018  1  0.649021  0  0.456567  0.402083  0  1.78567  0
Ag  Ag3  1  0.72908999  0.34979961  0.99541739  1  0.648891  0  0.456577  0.402136  0  1.785622  0
H  H4  1  0.32985893  0.88848470  0.41223622  1  0.12744  0  0.112999  0.087305  0  1.030741  0
H  H5  1  0.17014112  0.38848813  0.08776703  1  0.127328  0  0.112998  0.08733  0  1.030776  0
H  H6  1  0.67013901  0.11151132  0.58776589  1  0.127387  0  0.113002  0.087321  0  1.030793  0
H  H7  1  0.82986328  0.61151268  0.91223511  1  0.12739  0  0.113013  0.087338  0  1.030779  0
H  H8  1  0.49547959  0.80049387  0.28913380  1  0.120569  0  0.112106  0.120956  0  1.017466  0
H  H9  1  0.00451723  0.30049442  0.21086492  1  0.120606  0  0.112102  0.120939  0  1.017502  0
H  H10  1  0.50451728  0.19950694  0.71086324  1  0.120601  0  0.112102  0.120935  0  1.017495  0
H  H11  1  0.99548394  0.69950543  0.78913516  1  0.120581  0  0.112107  0.120939  0  1.0175  0
H  H12  1  0.62786273  0.95500009  0.18554848  1  0.149476  0  0.11236  0.113861  0  1.02053  0
H  H13  1  0.87213096  0.45499873  0.31444892  1  0.149479  0  0.11237  0.113811  0  1.02057  0
H  H14  1  0.37213521  0.04500263  0.81445117  1  0.149442  0  0.11238  0.113803  0  1.020559  0
H  H15  1  0.12786806  0.54500304  0.68554758  1  0.149444  0  0.112377  0.113827  0  1.020525  0
H  H16  1  0.51004144  0.59284501  0.24943720  1  0.148047  0  0.113246  0.118992  0  1.01676  0
H  H17  1  0.98996085  0.09284173  0.25056791  1  0.148015  0  0.113231  0.11903  0  1.016732  0
H  H18  1  0.48995972  0.40715772  0.75056863  1  0.147989  0  0.113235  0.119029  0  1.016787  0
H  H19  1  0.01004893  0.90715334  0.74943412  1  0.147965  0  0.113251  0.119052  0  1.016799  0
H  H20  1  0.34703495  0.65566169  0.38974187  1  0.113894  0  0.105942  0.113049  0  1.032118  0
H  H21  1  0.15296402  0.15566033  0.11026124  1  0.1139  0  0.105944  0.113055  0  1.03206  0
H  H22  1  0.65296192  0.34433912  0.61025928  1  0.113892  0  0.105936  0.113028  0  1.032093  0
H  H23  1  0.84703822  0.84434144  0.88973980  1  0.113918  0  0.105959  0.113034  0  1.03213  0
H  H24  1  0.24220595  0.48163800  0.48928483  1  0.109687  0  0.115501  0.089894  0  1.001899  0
H  H25  1  0.25779303  0.98163649  0.01071828  1  0.109738  0  0.115523  0.089931  0  1.001874  0
H  H26  1  0.75778877  0.51836185  0.51071521  1  0.109739  0  0.115506  0.089919  0  1.001902  0
H  H27  1  0.74220922  0.01836432  0.98928029  1  0.109793  0  0.115484  0.08991  0  1.001767  0
C  C28  1  0.39112178  0.95178275  0.36653145  1  0.470132  0  0.050309  0.097812  0  3.942722  0
C  C29  1  0.10887181  0.45178522  0.13346602  1  0.470717  0  0.050357  0.097801  0  3.942725  0
C  C30  1  0.60886971  0.04821519  0.63346488  1  0.470805  0  0.050378  0.097817  0  3.942728  0
C  C31  1  0.89113043  0.54821559  0.86653420  1  0.470808  0  0.050354  0.097786  0  3.942739  0
C  C32  1  0.48249914  0.90305558  0.29808747  1  -0.042161  0  -0.080063  -0.127122  0  3.973989  0
C  C33  1  0.01749445  0.40305996  0.20191164  1  -0.042355  0  -0.080101  -0.127193  0  3.974192  0
C  C34  1  0.51749772  0.09694140  0.70191368  1  -0.042419  0  -0.080125  -0.127261  0  3.974171  0
C  C35  1  0.98250457  0.59694277  0.79808815  1  -0.042493  0  -0.080104  -0.127134  0  3.974153  0
C  C36  1  0.55529981  0.98837263  0.24011972  1  -0.001271  0  -0.049103  -0.009548  0  3.881844  0
C  C37  1  0.94469280  0.48837414  0.25987918  1  -0.001578  0  -0.049094  -0.009432  0  3.88191  0
C  C38  1  0.44469598  0.01162723  0.75988129  1  -0.001569  0  -0.049074  -0.009315  0  3.881804  0
C  C39  1  0.05530729  0.51162763  0.74012240  1  -0.001566  0  -0.049109  -0.009542  0  3.881854  0
C  C40  1  0.53524391  0.11958626  0.25318731  1  -0.007873  0  -0.007011  -0.063613  0  3.955572  0
C  C41  1  0.96475623  0.61958858  0.24681505  1  -0.00794  0  -0.006993  -0.063577  0  3.955553  0
C  C42  1  0.46475834  0.88041359  0.74681620  1  -0.007979  0  -0.007001  -0.063619  0  3.955475  0
C  C43  1  0.03524601  0.38041318  0.75318434  1  -0.007929  0  -0.006998  -0.06348  0  3.955246  0
C  C44  1  0.61230577  0.21116287  0.19280216  1  0.956998  0  0.156808  0.299315  0  3.988021  0
C  C45  1  0.88769329  0.71116328  0.30719924  1  0.957075  0  0.156748  0.299272  0  3.988016  0
C  C46  1  0.38769325  0.78883794  0.80720010  1  0.9571  0  0.156732  0.299312  0  3.987897  0
C  C47  1  0.11231433  0.28883562  0.69280498  1  0.956991  0  0.156776  0.299314  0  3.987841  0
C  C48  1  0.57856478  0.35378349  0.20080902  1  0.963037  0  0.158977  0.30651  0  3.962099  0
C  C49  1  0.92143321  0.85378389  0.29919388  1  0.963071  0  0.159064  0.306678  0  3.962005  0
C  C50  1  0.42143316  0.64621732  0.79919474  1  0.963056  0  0.159009  0.306572  0  3.962122  0
C  C51  1  0.07856904  0.14621596  0.70080551  1  0.963107  0  0.159063  0.306669  0  3.96213  0
C  C52  1  0.48350285  0.39248923  0.27872377  1  -0.008751  0  -0.004987  -0.053101  0  3.937377  0
C  C53  1  0.01649827  0.89248677  0.22127716  1  -0.00928  0  -0.00499  -0.053179  0  3.937441  0
C  C54  1  0.51649509  0.60751349  0.72127669  1  -0.009287  0  -0.004995  -0.053167  0  3.937483  0
C  C55  1  0.98350828  0.10750926  0.77872034  1  -0.009265  0  -0.004983  -0.053282  0  3.937441  0
C  C56  1  0.45856288  0.52248354  0.29593105  1  -0.045788  0  -0.050859  -0.0291  0  3.880632  0
C  C57  1  0.04143717  0.02248218  0.20407056  1  -0.044905  0  -0.050863  -0.02924  0  3.880616  0
C  C58  1  0.54143506  0.47751727  0.70407024  1  -0.045417  0  -0.050872  -0.029234  0  3.880674  0
C  C59  1  0.95856723  0.97751481  0.79592665  1  -0.045464  0  -0.050846  -0.029179  0  3.880704  0
C  C60  1  0.37058823  0.55663792  0.37187629  1  0.001695  0  -0.080953  -0.122479  0  3.947223  0
C  C61  1  0.12941289  0.05663656  0.12812628  1  0.000863  0  -0.080943  -0.122348  0  3.947041  0
C  C62  1  0.62941079  0.44336289  0.62812514  1  0.001405  0  -0.08092  -0.122329  0  3.947062  0
C  C63  1  0.87059258  0.94336138  0.87187271  1  0.008915  0  -0.080991  -0.12238  0  3.947102  0
C  C64  1  0.31004616  0.45932999  0.42773789  1  0.508949  0  0.060975  0.123056  0  3.926337  0
C  C65  1  0.18995174  0.95932944  0.07226426  1  0.508943  0  0.060923  0.122929  0  3.926339  0
C  C66  1  0.68994963  0.54067082  0.57226229  1  0.508961  0  0.060969  0.122983  0  3.926318  0
C  C67  1  0.81005051  0.04067137  0.92773349  1  0.501125  0  0.061037  0.123058  0  3.926067  0
C  C68  1  0.41778839  0.30052313  0.33861036  1  0.52675  0  0.13181  0.155757  0  3.953117  0
C  C69  1  0.08221488  0.80052258  0.16139414  1  0.52612  0  0.131834  0.155943  0  3.953127  0
C  C70  1  0.58221062  0.69947672  0.66139271  1  0.526768  0  0.13181  0.155892  0  3.953232  0
C  C71  1  0.91779274  0.19947631  0.83860679  1  0.52623  0  0.131862  0.156061  0  3.953129  0
C  C72  1  0.44113943  0.16204143  0.32377845  1  0.548688  0  0.131444  0.157764  0  3.938076  0
C  C73  1  0.05886277  0.66204279  0.17622509  1  0.548657  0  0.131442  0.157666  0  3.938224  0
C  C74  1  0.55886066  0.83795747  0.67622477  1  0.548657  0  0.131435  0.157655  0  3.938205  0
C  C75  1  0.94114055  0.33795802  0.82377527  1  0.549155  0  0.131429  0.15762  0  3.938021  0
N  N76  1  0.33255163  0.33483159  0.41127185  1  -1.200216  0  -0.316899  -0.257942  0  3.465421  0
N  N77  1  0.16744950  0.83483199  0.08873073  1  -1.199606  0  -0.316904  -0.257993  0  3.465471  0
N  N78  1  0.66744632  0.66516827  0.58872944  1  -1.200222  0  -0.316927  -0.258009  0  3.465479  0
N  N79  1  0.83255060  0.16516978  0.91126509  1  -1.199884  0  -0.316992  -0.258155  0  3.465745  0
N  N80  1  0.37085395  0.07795122  0.37924861  1  -1.187096  0  -0.331752  -0.247683  0  3.578969  0
N  N81  1  0.12914179  0.57795354  0.12075079  1  -1.187058  0  -0.331752  -0.24762  0  3.578976  0
N  N82  1  0.62913969  0.92204576  0.62074882  1  -1.187083  0  -0.331765  -0.247605  0  3.578933  0
N  N83  1  0.87085722  0.42204631  0.87924818  1  -1.186963  0  -0.33178  -0.24768  0  3.578976  0
N  N84  1  0.86556650  0.25059688  0.46127335  1  0.84619  0  0.106327  0.70499  0  4.419201  0
N  N85  1  0.63443364  0.75059728  0.03872736  1  0.846187  0  0.106392  0.705093  0  4.419174  0
N  N86  1  0.13443251  0.74940298  0.53872808  1  0.846206  0  0.106369  0.704942  0  4.419114  0
N  N87  1  0.36556646  0.24940353  0.96127339  1  0.846203  0  0.106383  0.705026  0  4.419094  0
O  O88  1  0.63621299  0.43262278  0.14638177  1  -1.068947  0  -0.246839  -0.348033  0  2.33996  0
O  O89  1  0.86378608  0.93262510  0.35361963  1  -1.068533  0  -0.246897  -0.348107  0  2.340016  0
O  O90  1  0.36378711  0.56737707  0.85362063  1  -1.068503  0  -0.246845  -0.348039  0  2.340048  0
O  O91  1  0.13621724  0.06737667  0.64637744  1  -1.068571  0  -0.246938  -0.348139  0  2.340042  0
O  O92  1  0.70291825  0.17621803  0.13708907  1  -1.07568  0  -0.237387  -0.3495  0  2.268942  0
O  O93  1  0.79706361  0.67622227  0.36289935  1  -1.075782  0  -0.237367  -0.349514  0  2.268769  0
O  O94  1  0.29706356  0.82377895  0.86290021  1  -1.075794  0  -0.237355  -0.349523  0  2.268763  0
O  O95  1  0.20293756  0.32377663  0.63710154  1  -1.075738  0  -0.23736  -0.349523  0  2.268816  0
O  O96  1  0.97502139  0.23086408  0.41679094  1  -0.525497  0  -0.178928  -0.418543  0  2.053784  0
O  O97  1  0.52497982  0.73086353  0.08320910  1  -0.525486  0  -0.17902  -0.4187  0  2.053892  0
O  O98  1  0.02497870  0.76913673  0.58320981  1  -0.525522  0  -0.178947  -0.418558  0  2.053837  0
O  O99  1  0.47502134  0.26913728  0.91679015  1  -0.525488  0  -0.178982  -0.418611  0  2.05378  0
O  O100  1  0.86783211  0.22877501  0.56501328  1  -0.544206  0  -0.166431  -0.434182  0  2.00474  0
O  O101  1  0.63216803  0.72877542  0.93498744  1  -0.544198  0  -0.166404  -0.43415  0  2.004708  0
O  O102  1  0.13216691  0.77122484  0.43498733  1  -0.544175  0  -0.166445  -0.434158  0  2.004678  0
O  O103  1  0.36783099  0.27122635  0.06501317  1  -0.544217  0  -0.166453  -0.434206  0  2.004672  0
O  O104  1  0.75081767  0.29405686  0.40475457  1  -0.533002  0  -0.174155  -0.430504  0  1.988375  0
O  O105  1  0.74918355  0.79405823  0.09524547  1  -0.533029  0  -0.174155  -0.430502  0  1.988364  0
O  O106  1  0.24918350  0.70594203  0.59524633  1  -0.533032  0  -0.174175  -0.430481  0  1.988336  0
O  O107  1  0.25081762  0.20594258  0.90475460  1  -0.532998  0  -0.174129  -0.430452  0  1.988382  0
