# generated using pymatgen
data_AgH20C28S2N17O7
_symmetry_space_group_name_H-M   'P 1'
_cell_length_a   7.29289131
_cell_length_b   15.11126628
_cell_length_c   15.11116317
_cell_angle_alpha   80.60998920
_cell_angle_beta   79.85552571
_cell_angle_gamma   79.85610930
_symmetry_Int_Tables_number   1
_chemical_formula_structural   AgH20C28S2N17O7
_chemical_formula_sum   'Ag2 H40 C56 S4 N34 O14'
_cell_volume   1598.59071892
_cell_formula_units_Z   2
loop_
 _symmetry_equiv_pos_site_id
 _symmetry_equiv_pos_as_xyz
  1  'x, y, z'
loop_
 _atom_site_type_symbol
 _atom_site_label
 _atom_site_symmetry_multiplicity
 _atom_site_fract_x
 _atom_site_fract_y
 _atom_site_fract_z
 _atom_site_occupancy
 _atom_site_hle17_bader_spin_density
 _atom_site_hle17_ddec_charge
 _atom_site_hle17_ddec_spin_density
 _atom_site_hle17_ddec_sum_bond_order
 _atom_site_hle17_magmom
 _atom_site_hse06_10hf_bader_spin_density
 _atom_site_hse06_10hf_ddec_charge
 _atom_site_hse06_10hf_ddec_spin_density
 _atom_site_hse06_10hf_ddec_sum_bond_order
 _atom_site_hse06_10hf_magmom
 _atom_site_hse06_bader_spin_density
 _atom_site_hse06_ddec_charge
 _atom_site_hse06_ddec_spin_density
 _atom_site_hse06_ddec_sum_bond_order
 _atom_site_hse06_magmom
 _atom_site_pbe_bader_spin_density
 _atom_site_pbe_cm5_charge
 _atom_site_pbe_ddec_charge
 _atom_site_pbe_ddec_spin_density
 _atom_site_pbe_ddec_sum_bond_order
 _atom_site_pbe_magmom
Ag  Ag0  1  0.24999401  0.72260196  0.27739355  1  0  0.512546  0  1.457356  0  0  0.351466  0  1.915142  0  0  0.376559  0  1.873271  0  0  0.485074  0.334565  0  1.944219  0
Ag  Ag1  1  0.74999816  0.27740027  0.72260092  1  0  0.512507  0  1.457398  0  0  0.351366  0  1.91522  0  0  0.376458  0  1.873357  0  0  0.485076  0.334455  0  1.944306  0
H  H2  1  0.98461239  0.96352275  0.71494140  1  0  0.104168  0  0.967319  0  0  0.107323  0  1.042249  0  0  0.110617  0  1.039625  0  0  0.107733  0.104834  0  1.0444  0
H  H3  1  0.51538952  0.28506231  0.03646157  1  0  0.104017  0  0.967519  0  0  0.1073  0  1.042223  0  0  0.110594  0  1.039602  0  0  0.107697  0.104809  0  1.044375  0
H  H4  1  0.01536998  0.03646948  0.28505779  1  0  0.10412  0  0.967388  0  0  0.107356  0  1.042164  0  0  0.11065  0  1.039541  0  0  0.107743  0.104867  0  1.044315  0
H  H5  1  0.48459803  0.71493709  0.96352984  1  0  0.104045  0  0.967334  0  0  0.10725  0  1.042227  0  0  0.110544  0  1.039605  0  0  0.107676  0.104759  0  1.044382  0
H  H6  1  0.02133293  0.96165646  0.87538673  1  0  0.127348  0  0.956291  0  0  0.127493  0  1.031152  0  0  0.131481  0  1.028109  0  0  0.114467  0.124536  0  1.033604  0
H  H7  1  0.47865085  0.12461521  0.03833912  1  0  0.127216  0  0.956343  0  0  0.127374  0  1.031261  0  0  0.13136  0  1.02822  0  0  0.114513  0.124421  0  1.033707  0
H  H8  1  0.97864366  0.03835138  0.12460981  1  0  0.127318  0  0.956421  0  0  0.12744  0  1.031315  0  0  0.131427  0  1.028274  0  0  0.114428  0.124486  0  1.033763  0
H  H9  1  0.52134766  0.87537896  0.96165911  1  0  0.127219  0  0.956443  0  0  0.127369  0  1.031338  0  0  0.131355  0  1.028298  0  0  0.114473  0.124416  0  1.033785  0
H  H10  1  0.95870837  0.67786210  0.93180034  1  0  0.110982  0  0.958847  0  0  0.116519  0  1.02935  0  0  0.119526  0  1.027774  0  0  0.108162  0.114305  0  1.030659  0
H  H11  1  0.54128672  0.06821519  0.32213695  1  0  0.110948  0  0.958756  0  0  0.116471  0  1.029276  0  0  0.119442  0  1.02774  0  0  0.108135  0.114255  0  1.03059  0
H  H12  1  0.04131482  0.32213648  0.06820905  1  0  0.111001  0  0.958854  0  0  0.116549  0  1.029335  0  0  0.119557  0  1.027758  0  0  0.108186  0.114336  0  1.03065  0
H  H13  1  0.45871764  0.93179201  0.67786422  1  0  0.11098  0  0.958751  0  0  0.116514  0  1.02929  0  0  0.1195  0  1.027737  0  0  0.108169  0.114298  0  1.030606  0
H  H14  1  0.93212173  0.67835269  0.76923751  1  0  0.111344  0  0.964251  0  0  0.119314  0  1.02752  0  0  0.12124  0  1.028095  0  0  0.109519  0.117856  0  1.027283  0
H  H15  1  0.56787549  0.23077415  0.32163396  1  0  0.111487  0  0.964024  0  0  0.119397  0  1.027408  0  0  0.121327  0  1.027979  0  0  0.109583  0.117959  0  1.027113  0
H  H16  1  0.06788806  0.32163386  0.23077660  1  0  0.11147  0  0.964044  0  0  0.119343  0  1.027466  0  0  0.121273  0  1.028034  0  0  0.109536  0.117899  0  1.027189  0
H  H17  1  0.43211745  0.76923546  0.67835766  1  0  0.111404  0  0.964194  0  0  0.119356  0  1.027492  0  0  0.121282  0  1.028069  0  0  0.10953  0.117906  0  1.02723  0
H  H18  1  0.15191659  0.68147919  0.04514430  1  0  0.1212  0  0.943161  0  0  0.129245  0  1.009514  0  0  0.131653  0  1.006207  0  0  0.14671  0.127274  0  1.011589  0
H  H19  1  0.34810060  0.95486544  0.31852868  1  0  0.121204  0  0.943376  0  0  0.129354  0  1.009582  0  0  0.131757  0  1.006275  0  0  0.146692  0.127384  0  1.011655  0
H  H20  1  0.84810321  0.31853688  0.95485857  1  0  0.121253  0  0.943353  0  0  0.129388  0  1.009559  0  0  0.131797  0  1.006257  0  0  0.146734  0.127415  0  1.011634  0
H  H21  1  0.65192870  0.04513216  0.68147381  1  0  0.121193  0  0.943463  0  0  0.129345  0  1.009666  0  0  0.13175  0  1.006362  0  0  0.146709  0.127372  0  1.011741  0
H  H22  1  0.21750872  0.66950395  0.56665837  1  0  0.132601  0  0.953117  0  0  0.135803  0  1.018031  0  0  0.14018  0  1.014203  0  0  0.115747  0.132418  0  1.021132  0
H  H23  1  0.28249392  0.43333773  0.33049334  1  0  0.132517  0  0.953234  0  0  0.135712  0  1.018158  0  0  0.140084  0  1.014332  0  0  0.115699  0.132329  0  1.02126  0
H  H24  1  0.78251255  0.33048759  0.43334526  1  0  0.132634  0  0.953171  0  0  0.135819  0  1.01809  0  0  0.140193  0  1.014261  0  0  0.115731  0.132445  0  1.021164  0
H  H25  1  0.71750710  0.56665769  0.66950247  1  0  0.132676  0  0.953214  0  0  0.135893  0  1.018099  0  0  0.140258  0  1.014281  0  0  0.115771  0.132511  0  1.021195  0
H  H26  1  0.54006657  0.66815976  0.48636821  1  0  0.131878  0  0.96003  0  0  0.135005  0  1.027209  0  0  0.139014  0  1.024661  0  0  0.116703  0.131967  0  1.029357  0
H  H27  1  0.95992825  0.51362497  0.33184103  1  0  0.131918  0  0.960037  0  0  0.135021  0  1.027239  0  0  0.139026  0  1.024689  0  0  0.116699  0.131982  0  1.029389  0
H  H28  1  0.45995457  0.33184199  0.51363474  1  0  0.13199  0  0.959966  0  0  0.135069  0  1.027183  0  0  0.139081  0  1.024631  0  0  0.11673  0.132031  0  1.02933  0
H  H29  1  0.04006020  0.48636524  0.66815941  1  0  0.131938  0  0.960011  0  0  0.135049  0  1.027214  0  0  0.139059  0  1.024669  0  0  0.11671  0.132009  0  1.02936  0
H  H30  1  0.46484210  0.96155819  0.45784961  1  0  0.11094  0  0.977655  0  0  0.116824  0  1.04779  0  0  0.120286  0  1.045521  0  0  0.11001  0.114277  0  1.049716  0
H  H31  1  0.03517344  0.54214873  0.03843764  1  0  0.110826  0  0.977813  0  0  0.116739  0  1.047917  0  0  0.120196  0  1.045658  0  0  0.109988  0.11419  0  1.049848  0
H  H32  1  0.53515895  0.03844040  0.54215748  1  0  0.110856  0  0.977753  0  0  0.116814  0  1.047837  0  0  0.120265  0  1.045573  0  0  0.110019  0.114266  0  1.049764  0
H  H33  1  0.96482180  0.45786177  0.96155959  1  0  0.110814  0  0.977783  0  0  0.116671  0  1.047997  0  0  0.120132  0  1.045728  0  0  0.109946  0.114122  0  1.049928  0
H  H34  1  0.13920222  0.96412238  0.53896345  1  0  0.114191  0  0.958366  0  0  0.11926  0  1.026123  0  0  0.122672  0  1.023814  0  0  0.108079  0.116745  0  1.027948  0
H  H35  1  0.36079625  0.46104336  0.03587770  1  0  0.114148  0  0.958403  0  0  0.119182  0  1.026206  0  0  0.122593  0  1.02389  0  0  0.108072  0.116668  0  1.028032  0
H  H36  1  0.86079283  0.03587285  0.46104411  1  0  0.114114  0  0.958429  0  0  0.119207  0  1.026168  0  0  0.12262  0  1.023861  0  0  0.108057  0.116694  0  1.027993  0
H  H37  1  0.63920989  0.53897736  0.96412065  1  0  0.114118  0  0.958405  0  0  0.119197  0  1.026171  0  0  0.122612  0  1.02386  0  0  0.108084  0.116685  0  1.027995  0
H  H38  1  0.85103111  0.67637202  0.43740002  1  0  0.148074  0  0.957985  0  0  0.15067  0  1.025538  0  0  0.155341  0  1.01897  0  0  0.152549  0.146899  0  1.030081  0
H  H39  1  0.64895936  0.56258546  0.32362359  1  0  0.148017  0  0.95798  0  0  0.150607  0  1.025531  0  0  0.155281  0  1.018956  0  0  0.152543  0.146836  0  1.030074  0
H  H40  1  0.14898789  0.32362339  0.56259773  1  0  0.147954  0  0.958102  0  0  0.150689  0  1.025506  0  0  0.155364  0  1.018928  0  0  0.152549  0.146913  0  1.030056  0
H  H41  1  0.35102976  0.43740743  0.67637562  1  0  0.147983  0  0.958068  0  0  0.150654  0  1.025563  0  0  0.155328  0  1.018987  0  0  0.152565  0.146882  0  1.030104  0
C  C42  1  0.95488203  0.82058268  0.73386227  1  0  -0.119662  0  3.748931  0  0  -0.093118  0  3.991933  0  0  -0.101274  0  4.016845  0  0  -0.020371  -0.087804  0  3.975413  0
C  C43  1  0.54511695  0.26613973  0.17940530  1  0  -0.119562  0  3.748475  0  0  -0.093184  0  3.991708  0  0  -0.101311  0  4.016572  0  0  -0.020365  -0.087872  0  3.975194  0
C  C44  1  0.04512412  0.17940879  0.26613789  1  0  -0.119638  0  3.74873  0  0  -0.093198  0  3.991808  0  0  -0.101336  0  4.016687  0  0  -0.020356  -0.087891  0  3.97531  0
C  C45  1  0.45487701  0.73386166  0.82058522  1  0  -0.119672  0  3.748898  0  0  -0.093193  0  3.991968  0  0  -0.101342  0  4.016871  0  0  -0.020332  -0.087879  0  3.97545  0
C  C46  1  0.97988654  0.90080167  0.76212706  1  0  -0.056135  0  3.741578  0  0  -0.078874  0  3.990533  0  0  -0.078719  0  4.012646  0  0  -0.082303  -0.078799  0  3.97586  0
C  C47  1  0.52010472  0.23788060  0.09918478  1  0  -0.056114  0  3.741497  0  0  -0.078853  0  3.990517  0  0  -0.07871  0  4.012632  0  0  -0.082313  -0.078779  0  3.975849  0
C  C48  1  0.02010732  0.09919342  0.23787664  1  0  -0.056168  0  3.741537  0  0  -0.078887  0  3.990491  0  0  -0.078735  0  4.012598  0  0  -0.082361  -0.078811  0  3.97582  0
C  C49  1  0.47987249  0.76212091  0.90080700  1  0  -0.055984  0  3.741202  0  0  -0.078738  0  3.990225  0  0  -0.078587  0  4.012337  0  0  -0.082248  -0.078665  0  3.97556  0
C  C50  1  0.00095034  0.90017759  0.85192845  1  0  -0.118079  0  3.675746  0  0  -0.140379  0  3.932289  0  0  -0.144709  0  3.949521  0  0  -0.077544  -0.137459  0  3.918934  0
C  C51  1  0.49905881  0.14807696  0.09981062  1  0  -0.117784  0  3.675494  0  0  -0.140217  0  3.932117  0  0  -0.144547  0  3.949337  0  0  -0.07758  -0.137298  0  3.918763  0
C  C52  1  0.99904162  0.09981949  0.14807368  1  0  -0.118146  0  3.675599  0  0  -0.140473  0  3.932262  0  0  -0.144806  0  3.949513  0  0  -0.077548  -0.137553  0  3.918906  0
C  C53  1  0.50093942  0.85192327  0.90018577  1  0  -0.117842  0  3.675648  0  0  -0.140265  0  3.932291  0  0  -0.144594  0  3.949522  0  0  -0.077563  -0.137347  0  3.918938  0
C  C54  1  0.99514424  0.81914279  0.91152383  1  0  0.174879  0  3.766046  0  0  0.157196  0  4.01016  0  0  0.173294  0  4.032277  0  0  0.106642  0.153253  0  3.995465  0
C  C55  1  0.50484515  0.08849075  0.18085323  1  0  0.174651  0  3.76617  0  0  0.1571  0  4.010181  0  0  0.173261  0  4.032275  0  0  0.106596  0.15316  0  3.995484  0
C  C56  1  0.00484967  0.18085651  0.08848301  1  0  0.174999  0  3.765802  0  0  0.157315  0  4.009971  0  0  0.173367  0  4.032095  0  0  0.106709  0.153374  0  3.995278  0
C  C57  1  0.49514605  0.91151383  0.81914880  1  0  0.174604  0  3.766565  0  0  0.157062  0  4.010569  0  0  0.173152  0  4.032667  0  0  0.106601  0.153123  0  3.995872  0
C  C58  1  0.96802805  0.73935833  0.88359382  1  0  -0.130592  0  3.711507  0  0  -0.152713  0  3.969799  0  0  -0.157208  0  3.986483  0  0  -0.082585  -0.149597  0  3.956655  0
C  C59  1  0.53196716  0.11641355  0.26063491  1  0  -0.130437  0  3.711515  0  0  -0.152491  0  3.969654  0  0  -0.156964  0  3.986347  0  0  -0.082506  -0.149378  0  3.95651  0
C  C60  1  0.03197076  0.26063880  0.11641043  1  0  -0.13056  0  3.711647  0  0  -0.152632  0  3.969873  0  0  -0.157135  0  3.986583  0  0  -0.082533  -0.149524  0  3.956735  0
C  C61  1  0.46802249  0.88359169  0.73936644  1  0  -0.130391  0  3.711651  0  0  -0.15253  0  3.969882  0  0  -0.157015  0  3.986587  0  0  -0.082501  -0.149416  0  3.956735  0
C  C62  1  0.95061111  0.73975093  0.79332515  1  0  -0.032402  0  3.722541  0  0  -0.056388  0  3.969428  0  0  -0.054681  0  3.990093  0  0  -0.075622  -0.057431  0  3.955656  0
C  C63  1  0.54939713  0.20667676  0.26023971  1  0  -0.032399  0  3.722076  0  0  -0.056333  0  3.968988  0  0  -0.054627  0  3.989629  0  0  -0.075575  -0.057371  0  3.95523  0
C  C64  1  0.04940278  0.26024257  0.20667535  1  0  -0.032426  0  3.7223  0  0  -0.056341  0  3.969232  0  0  -0.05463  0  3.989881  0  0  -0.075598  -0.05738  0  3.95547  0
C  C65  1  0.45061195  0.79332469  0.73975428  1  0  -0.032459  0  3.722545  0  0  -0.056407  0  3.969433  0  0  -0.054703  0  3.990097  0  0  -0.075626  -0.057447  0  3.955662  0
C  C66  1  0.09077970  0.74851964  0.06191331  1  0  0.153094  0  3.639411  0  0  0.077998  0  3.91035  0  0  0.099582  0  3.925287  0  0  0.170246  0.070629  0  3.902447  0
C  C67  1  0.40923006  0.93809874  0.25148814  1  0  0.152841  0  3.639748  0  0  0.077699  0  3.910782  0  0  0.099345  0  3.925731  0  0  0.170193  0.070331  0  3.902875  0
C  C68  1  0.90922547  0.25149864  0.93809223  1  0  0.152993  0  3.639494  0  0  0.077863  0  3.910522  0  0  0.099399  0  3.925448  0  0  0.170241  0.070494  0  3.90262  0
C  C69  1  0.59079093  0.06190365  0.74851404  1  0  0.152948  0  3.639505  0  0  0.077768  0  3.910527  0  0  0.099339  0  3.925453  0  0  0.170219  0.070399  0  3.902623  0
C  C70  1  0.15936335  0.81727250  0.55915603  1  0  -0.12869  0  3.752568  0  0  -0.106082  0  4.002989  0  0  -0.115326  0  4.028447  0  0  -0.025144  -0.100141  0  3.986175  0
C  C71  1  0.34063814  0.44085092  0.18272399  1  0  -0.128681  0  3.752491  0  0  -0.105999  0  4.002828  0  0  -0.115239  0  4.028287  0  0  -0.025183  -0.100074  0  3.986047  0
C  C72  1  0.84064126  0.18271857  0.44085096  1  0  -0.128536  0  3.752385  0  0  -0.106048  0  4.002904  0  0  -0.115286  0  4.028364  0  0  -0.025191  -0.100092  0  3.986069  0
C  C73  1  0.65934621  0.55915361  0.81727592  1  0  -0.128599  0  3.7521  0  0  -0.106178  0  4.002748  0  0  -0.115416  0  4.028206  0  0  -0.025242  -0.100229  0  3.985932  0
C  C74  1  0.26946255  0.73408032  0.54400219  1  0  -0.017228  0  3.685099  0  0  -0.043253  0  3.937426  0  0  -0.039953  0  3.954115  0  0  -0.063796  -0.045351  0  3.926807  0
C  C75  1  0.23052510  0.45599470  0.26592448  1  0  -0.017027  0  3.684895  0  0  -0.043095  0  3.937275  0  0  -0.039786  0  3.953962  0  0  -0.063682  -0.045191  0  3.926661  0
C  C76  1  0.73054590  0.26591842  0.45599239  1  0  -0.017365  0  3.684792  0  0  -0.043337  0  3.937176  0  0  -0.040025  0  3.953848  0  0  -0.063694  -0.045442  0  3.926566  0
C  C77  1  0.76944536  0.54399979  0.73407847  1  0  -0.017321  0  3.684725  0  0  -0.043279  0  3.93712  0  0  -0.039968  0  3.953813  0  0  -0.063734  -0.045381  0  3.926496  0
C  C78  1  0.45267985  0.73300165  0.49737114  1  0  -0.121967  0  3.648914  0  0  -0.140814  0  3.906584  0  0  -0.146043  0  3.921207  0  0  -0.072564  -0.137467  0  3.895135  0
C  C79  1  0.04730907  0.50262669  0.26699891  1  0  -0.122083  0  3.649192  0  0  -0.140977  0  3.906897  0  0  -0.146207  0  3.92152  0  0  -0.072644  -0.13763  0  3.895449  0
C  C80  1  0.54733263  0.26700144  0.50263023  1  0  -0.122038  0  3.648651  0  0  -0.140855  0  3.906359  0  0  -0.146104  0  3.921028  0  0  -0.072644  -0.137512  0  3.894911  0
C  C81  1  0.95266833  0.49736884  0.73299669  1  0  -0.122033  0  3.648727  0  0  -0.140892  0  3.906405  0  0  -0.146134  0  3.921043  0  0  -0.072615  -0.137543  0  3.894952  0
C  C82  1  0.52139062  0.81516328  0.46780770  1  0  0.180582  0  3.75159  0  0  0.157524  0  4.002115  0  0  0.17532  0  4.024167  0  0  0.10848  0.152994  0  3.987619  0
C  C83  1  0.97860687  0.53219090  0.18483470  1  0  0.180459  0  3.75189  0  0  0.157509  0  4.002261  0  0  0.175311  0  4.024291  0  0  0.108485  0.152977  0  3.987766  0
C  C84  1  0.47862474  0.18483866  0.53219963  1  0  0.180649  0  3.751317  0  0  0.157538  0  4.002008  0  0  0.175316  0  4.024051  0  0  0.10858  0.153016  0  3.9875  0
C  C85  1  0.02138982  0.46781052  0.81515693  1  0  0.180415  0  3.751627  0  0  0.157376  0  4.002192  0  0  0.175176  0  4.02423  0  0  0.108465  0.152847  0  3.987693  0
C  C86  1  0.40977375  0.89840353  0.48260880  1  0  -0.146999  0  3.725552  0  0  -0.168136  0  3.983504  0  0  -0.173477  0  4.000384  0  0  -0.091097  -0.164639  0  3.970336  0
C  C87  1  0.09022596  0.51738688  0.10159411  1  0  -0.146941  0  3.725749  0  0  -0.168102  0  3.98361  0  0  -0.173451  0  4.000499  0  0  -0.091056  -0.164608  0  3.97045  0
C  C88  1  0.59021945  0.10159419  0.51739244  1  0  -0.147107  0  3.725427  0  0  -0.168323  0  3.983463  0  0  -0.173653  0  4.000337  0  0  -0.091228  -0.164829  0  3.970306  0
C  C89  1  0.90977731  0.48262011  0.89840122  1  0  -0.146832  0  3.725653  0  0  -0.16793  0  3.983539  0  0  -0.173281  0  4.000446  0  0  -0.091047  -0.164436  0  3.970378  0
C  C90  1  0.22723490  0.89959426  0.52844394  1  0  -0.044204  0  3.737122  0  0  -0.067476  0  3.985192  0  0  -0.066039  0  4.005998  0  0  -0.079141  -0.068247  0  3.97139  0
C  C91  1  0.27276175  0.47155679  0.10040363  1  0  -0.044122  0  3.737363  0  0  -0.067406  0  3.985452  0  0  -0.065959  0  4.006246  0  0  -0.079166  -0.068169  0  3.971638  0
C  C92  1  0.77276068  0.10039951  0.47156121  1  0  -0.044141  0  3.737083  0  0  -0.067399  0  3.985204  0  0  -0.065963  0  4.006008  0  0  -0.07916  -0.068167  0  3.971374  0
C  C93  1  0.72724116  0.52845100  0.89959489  1  0  -0.044205  0  3.737126  0  0  -0.067484  0  3.985319  0  0  -0.066041  0  4.006108  0  0  -0.079135  -0.068244  0  3.971479  0
C  C94  1  0.85433975  0.74794083  0.40986387  1  0  0.168096  0  3.551429  0  0  0.094832  0  3.808015  0  0  0.118949  0  3.820361  0  0  0.183827  0.086025  0  3.802278  0
C  C95  1  0.64566134  0.59013346  0.25205367  1  0  0.168206  0  3.550938  0  0  0.094934  0  3.807558  0  0  0.119055  0  3.819893  0  0  0.183889  0.086126  0  3.801823  0
C  C96  1  0.14567435  0.25205623  0.59014055  1  0  0.16837  0  3.551208  0  0  0.09499  0  3.807784  0  0  0.119094  0  3.820108  0  0  0.183908  0.086183  0  3.802044  0
C  C97  1  0.35432769  0.40986481  0.74794381  1  0  0.168185  0  3.551236  0  0  0.094829  0  3.807832  0  0  0.118954  0  3.820166  0  0  0.183795  0.086023  0  3.802092  0
S  S98  1  0.92680220  0.82103440  0.61923301  1  0  1.06527  0  5.237458  0  0  0.991564  0  5.724352  0  0  1.031673  0  5.713023  0  0  0.471238  0.963379  0  5.732597  0
S  S99  1  0.57320143  0.38076997  0.17895617  1  0  1.065015  0  5.236981  0  0  0.991337  0  5.723927  0  0  1.031443  0  5.712582  0  0  0.471377  0.963155  0  5.732178  0
S  S100  1  0.07320835  0.17895103  0.38077000  1  0  1.064906  0  5.236975  0  0  0.991377  0  5.723824  0  0  1.031484  0  5.712484  0  0  0.471358  0.963189  0  5.732062  0
S  S101  1  0.42678406  0.61923686  0.82103326  1  0  1.065251  0  5.237598  0  0  0.991694  0  5.724444  0  0  1.031799  0  5.71311  0  0  0.471301  0.963505  0  5.732693  0
N  N102  1  0.01835083  0.81761773  0.00289883  1  0  -0.006239  0  3.568298  0  0  0.107754  0  3.74888  0  0  0.065666  0  3.808581  0  0  -0.104162  0.115646  0  3.733514  0
N  N103  1  0.48164703  0.99711253  0.18238296  1  0  -0.006063  0  3.567917  0  0  0.107659  0  3.748763  0  0  0.065421  0  3.808619  0  0  -0.104236  0.11555  0  3.733397  0
N  N104  1  0.98164895  0.18239513  0.99710687  1  0  -0.006494  0  3.568132  0  0  0.107299  0  3.749072  0  0  0.065354  0  3.808586  0  0  -0.104453  0.11519  0  3.73371  0
N  N105  1  0.51835874  0.00288988  0.81761772  1  0  -0.006153  0  3.568092  0  0  0.107679  0  3.748824  0  0  0.065639  0  3.80849  0  0  -0.104191  0.115569  0  3.733459  0
N  N106  1  0.96411103  0.89241559  0.04616985  1  0  -0.079715  0  2.854071  0  0  -0.098126  0  3.144527  0  0  -0.086475  0  3.158032  0  0  -0.061282  -0.099348  0  3.1389  0
N  N107  1  0.53589472  0.95382954  0.10758813  1  0  -0.079563  0  2.85401  0  0  -0.097816  0  3.144435  0  0  -0.086113  0  3.157957  0  0  -0.061124  -0.09904  0  3.13881  0
N  N108  1  0.03589063  0.10760114  0.95383030  1  0  -0.079432  0  2.854223  0  0  -0.097701  0  3.144611  0  0  -0.086097  0  3.158097  0  0  -0.061108  -0.098925  0  3.138986  0
N  N109  1  0.46411610  0.04617005  0.89241074  1  0  -0.079724  0  2.854119  0  0  -0.098026  0  3.144559  0  0  -0.086389  0  3.158054  0  0  -0.061274  -0.099251  0  3.138936  0
N  N110  1  0.00134437  0.86801824  0.12805540  1  0  -0.044873  0  2.91284  0  0  -0.046128  0  3.224013  0  0  -0.044301  0  3.230256  0  0  -0.071632  -0.046833  0  3.217462  0
N  N111  1  0.49866715  0.87194520  0.13199673  1  0  -0.045398  0  2.913037  0  0  -0.04672  0  3.224247  0  0  -0.044897  0  3.230473  0  0  -0.071952  -0.047425  0  3.217699  0
N  N112  1  0.99866166  0.13200256  0.87194493  1  0  -0.045535  0  2.912976  0  0  -0.046873  0  3.224202  0  0  -0.045047  0  3.230458  0  0  -0.071966  -0.047578  0  3.217652  0
N  N113  1  0.50135472  0.12805386  0.86800736  1  0  -0.04531  0  2.912976  0  0  -0.04663  0  3.224185  0  0  -0.044805  0  3.230429  0  0  -0.071894  -0.047334  0  3.217634  0
N  N114  1  0.08056591  0.77862284  0.14024932  1  0  -0.255401  0  3.052163  0  0  -0.212604  0  3.373071  0  0  -0.225014  0  3.378842  0  0  -0.21913  -0.204198  0  3.366748  0
N  N115  1  0.41944466  0.85975768  0.22139253  1  0  -0.254937  0  3.05193  0  0  -0.212084  0  3.372737  0  0  -0.224498  0  3.378504  0  0  -0.218902  -0.203679  0  3.366412  0
N  N116  1  0.91944275  0.22139807  0.85975411  1  0  -0.254772  0  3.051729  0  0  -0.211897  0  3.372495  0  0  -0.22431  0  3.378298  0  0  -0.218836  -0.203489  0  3.366165  0
N  N117  1  0.58058237  0.14024271  0.77861157  1  0  -0.25483  0  3.051614  0  0  -0.21196  0  3.37243  0  0  -0.224371  0  3.378212  0  0  -0.218866  -0.203552  0  3.3661  0
N  N118  1  0.70808962  0.81610766  0.42081400  1  0  -0.002052  0  3.545066  0  0  0.110205  0  3.729894  0  0  0.066756  0  3.790022  0  0  -0.101367  0.117729  0  3.715421  0
N  N119  1  0.79190957  0.57917895  0.18388405  1  0  -0.002076  0  3.544979  0  0  0.110128  0  3.729824  0  0  0.066685  0  3.789928  0  0  -0.101439  0.117655  0  3.715346  0
N  N120  1  0.29192226  0.18388738  0.57919098  1  0  -0.002024  0  3.544917  0  0  0.110213  0  3.729832  0  0  0.06682  0  3.7899  0  0  -0.101338  0.117733  0  3.715357  0
N  N121  1  0.20808276  0.42081784  0.81611082  1  0  -0.002048  0  3.54502  0  0  0.110201  0  3.729875  0  0  0.06675  0  3.790002  0  0  -0.101401  0.117724  0  3.715401  0
N  N122  1  0.76786817  0.89588676  0.38037177  1  0  -0.098491  0  2.872832  0  0  -0.109562  0  3.162252  0  0  -0.098627  0  3.176334  0  0  -0.065413  -0.109851  0  3.156237  0
N  N123  1  0.73213743  0.61962579  0.10410328  1  0  -0.098163  0  2.872611  0  0  -0.109191  0  3.161951  0  0  -0.098254  0  3.176037  0  0  -0.065211  -0.10948  0  3.155939  0
N  N124  1  0.23213383  0.10410844  0.61963593  1  0  -0.098515  0  2.872659  0  0  -0.109556  0  3.162063  0  0  -0.098634  0  3.176136  0  0  -0.06549  -0.109843  0  3.15605  0
N  N125  1  0.26785931  0.38037505  0.89589112  1  0  -0.098021  0  2.87264  0  0  -0.10904  0  3.161959  0  0  -0.098101  0  3.176044  0  0  -0.065187  -0.10933  0  3.155948  0
N  N126  1  0.94272237  0.87626294  0.34622365  1  0  -0.043767  0  2.920922  0  0  -0.043999  0  3.227997  0  0  -0.039856  0  3.232864  0  0  -0.067775  -0.046312  0  3.222266  0
N  N127  1  0.55728743  0.65377777  0.12372776  1  0  -0.044131  0  2.921082  0  0  -0.044385  0  3.228219  0  0  -0.040244  0  3.233086  0  0  -0.067999  -0.046699  0  3.222492  0
N  N128  1  0.05728245  0.12373701  0.65378356  1  0  -0.04383  0  2.920825  0  0  -0.044054  0  3.227876  0  0  -0.039914  0  3.23275  0  0  -0.067796  -0.046368  0  3.222144  0
N  N129  1  0.44270726  0.34622093  0.87626390  1  0  -0.044245  0  2.921161  0  0  -0.04454  0  3.228295  0  0  -0.040397  0  3.233156  0  0  -0.068013  -0.046856  0  3.222569  0
N  N130  1  0.00081712  0.78473589  0.36320114  1  0  -0.233598  0  3.193521  0  0  -0.167754  0  3.516563  0  0  -0.18375  0  3.523214  0  0  -0.235471  -0.157047  0  3.509599  0
N  N131  1  0.49918539  0.63679934  0.21525400  1  0  -0.233473  0  3.193127  0  0  -0.167628  0  3.516151  0  0  -0.183624  0  3.522799  0  0  -0.235407  -0.156921  0  3.509188  0
N  N132  1  0.99919101  0.21526257  0.63680346  1  0  -0.233657  0  3.193381  0  0  -0.167814  0  3.516486  0  0  -0.183808  0  3.523132  0  0  -0.23546  -0.157105  0  3.509518  0
N  N133  1  0.50080356  0.36319527  0.78473692  1  0  -0.233521  0  3.193266  0  0  -0.167609  0  3.516287  0  0  -0.183605  0  3.522928  0  0  -0.235405  -0.156903  0  3.509324  0
N  N134  1  0.24999012  0.50943507  0.49056353  1  0  0.712822  0  4.150518  0  0  0.739982  0  4.454949  0  0  0.768569  0  4.460499  0  0  0.102741  0.720612  0  4.450628  0
N  N135  1  0.74999218  0.49056253  0.50943327  1  0  0.712653  0  4.150776  0  0  0.739875  0  4.455159  0  0  0.768465  0  4.460704  0  0  0.102637  0.720497  0  4.45085  0
O  O136  1  0.85684334  0.73857134  0.61315000  1  0  -0.554937  0  1.944528  0  0  -0.506921  0  2.184968  0  0  -0.52772  0  2.177237  0  0  -0.29779  -0.492202  0  2.189707  0
O  O137  1  0.64315720  0.38685435  0.26142006  1  0  -0.554893  0  1.944378  0  0  -0.506848  0  2.18475  0  0  -0.527683  0  2.177097  0  0  -0.297878  -0.492137  0  2.189493  0
O  O138  1  0.14317953  0.26140515  0.38685252  1  0  -0.554764  0  1.944563  0  0  -0.506708  0  2.184854  0  0  -0.527575  0  2.177268  0  0  -0.297778  -0.49199  0  2.189584  0
O  O139  1  0.35682932  0.61314798  0.73857615  1  0  -0.554936  0  1.944963  0  0  -0.506916  0  2.185314  0  0  -0.527748  0  2.177658  0  0  -0.29782  -0.492199  0  2.190056  0
O  O140  1  0.82153629  0.90906562  0.58967376  1  0  -0.599433  0  1.959987  0  0  -0.553558  0  2.21716  0  0  -0.574706  0  2.20888  0  0  -0.319089  -0.538477  0  2.222354  0
O  O141  1  0.67845962  0.41032983  0.09091990  1  0  -0.599349  0  1.959702  0  0  -0.553496  0  2.216922  0  0  -0.574659  0  2.208684  0  0  -0.319131  -0.538408  0  2.222099  0
O  O142  1  0.17845847  0.09090804  0.41032285  1  0  -0.599289  0  1.959521  0  0  -0.553547  0  2.21675  0  0  -0.57469  0  2.208474  0  0  -0.319184  -0.538485  0  2.221986  0
O  O143  1  0.32152127  0.58967842  0.90907026  1  0  -0.599458  0  1.95977  0  0  -0.553605  0  2.216892  0  0  -0.574759  0  2.208633  0  0  -0.319096  -0.538519  0  2.222079  0
O  O144  1  0.24997310  0.57386758  0.42613461  1  0  -0.4896  0  1.752243  0  0  -0.483498  0  1.996728  0  0  -0.497984  0  1.988379  0  0  -0.210338  -0.472665  0  2.00199  0
O  O145  1  0.74999023  0.42613292  0.57386439  1  0  -0.489578  0  1.752251  0  0  -0.483508  0  1.996736  0  0  -0.497992  0  1.98838  0  0  -0.210347  -0.472687  0  2.002033  0
O  O146  1  0.20890434  0.43362727  0.48023188  1  0  -0.4882  0  1.765221  0  0  -0.472629  0  1.978861  0  0  -0.488919  0  1.972382  0  0  -0.205603  -0.460827  0  1.982981  0
O  O147  1  0.29108844  0.51976944  0.56637030  1  0  -0.487957  0  1.76505  0  0  -0.47262  0  1.978899  0  0  -0.488926  0  1.97244  0  0  -0.205506  -0.460817  0  1.983015  0
O  O148  1  0.79107971  0.56636898  0.51976571  1  0  -0.487867  0  1.765145  0  0  -0.47252  0  1.978973  0  0  -0.488819  0  1.972495  0  0  -0.205431  -0.460716  0  1.983092  0
O  O149  1  0.70890319  0.48022949  0.43362685  1  0  -0.488163  0  1.765394  0  0  -0.472571  0  1.979012  0  0  -0.488871  0  1.97254  0  0  -0.205556  -0.460772  0  1.983134  0
