# generated using pymatgen
data_SmH12C18(NO2)3
_symmetry_space_group_name_H-M   'P 1'
_cell_length_a   7.66730686
_cell_length_b   10.90843335
_cell_length_c   11.26462790
_cell_angle_alpha   117.98067835
_cell_angle_beta   89.99998712
_cell_angle_gamma   89.99996386
_symmetry_Int_Tables_number   1
_chemical_formula_structural   SmH12C18(NO2)3
_chemical_formula_sum   'Sm2 H24 C36 N6 O12'
_cell_volume   832.02206762
_cell_formula_units_Z   2
loop_
 _symmetry_equiv_pos_site_id
 _symmetry_equiv_pos_as_xyz
  1  'x, y, z'
loop_
 _atom_site_type_symbol
 _atom_site_label
 _atom_site_symmetry_multiplicity
 _atom_site_fract_x
 _atom_site_fract_y
 _atom_site_fract_z
 _atom_site_occupancy
 _atom_site_hle17_bader_spin_density
 _atom_site_hle17_ddec_charge
 _atom_site_hle17_ddec_spin_density
 _atom_site_hle17_ddec_sum_bond_order
 _atom_site_hle17_magmom
 _atom_site_hse06_10hf_bader_spin_density
 _atom_site_hse06_10hf_ddec_charge
 _atom_site_hse06_10hf_ddec_spin_density
 _atom_site_hse06_10hf_ddec_sum_bond_order
 _atom_site_hse06_10hf_magmom
 _atom_site_hse06_bader_spin_density
 _atom_site_hse06_ddec_charge
 _atom_site_hse06_ddec_spin_density
 _atom_site_hse06_ddec_sum_bond_order
 _atom_site_hse06_magmom
 _atom_site_pbe_bader_spin_density
 _atom_site_pbe_cm5_charge
 _atom_site_pbe_ddec_charge
 _atom_site_pbe_ddec_spin_density
 _atom_site_pbe_ddec_sum_bond_order
 _atom_site_pbe_magmom
Sm  Sm0  1  0.80680557  0.98450597  0.53245200  1  0  2.207778  0  1.610121  0  0  1.996834  0  2.102574  0  0  2.050226  0  2.058184  0  0  1.472149  1.956506  0  2.136787  0
Sm  Sm1  1  0.30680516  0.01549411  0.46754813  1  0  2.207752  0  1.610178  0  0  1.996806  0  2.102635  0  0  2.0502  0  2.05824  0  0  1.472135  1.956472  0  2.136845  0
H  H2  1  0.05699107  0.44305887  0.34972657  1  0  0.108293  0  0.954831  0  0  0.116006  0  1.016781  0  0  0.119363  0  1.016167  0  0  0.10632  0.113564  0  1.017395  0
H  H3  1  0.55699051  0.55693826  0.65027404  1  0  0.10828  0  0.954825  0  0  0.11601  0  1.016765  0  0  0.119367  0  1.01615  0  0  0.106331  0.113568  0  1.017379  0
H  H4  1  0.77193969  0.31608735  0.32073689  1  0  0.106063  0  0.9719  0  0  0.1153  0  1.033119  0  0  0.118091  0  1.03174  0  0  0.107491  0.113313  0  1.034087  0
H  H5  1  0.27193991  0.68391172  0.67926634  1  0  0.106102  0  0.971873  0  0  0.115336  0  1.033091  0  0  0.118127  0  1.031712  0  0  0.107517  0.113351  0  1.034063  0
H  H6  1  0.49187127  0.45439561  0.35635658  1  0  0.106307  0  0.947217  0  0  0.115923  0  1.005623  0  0  0.118916  0  1.00545  0  0  0.106968  0.113748  0  1.005951  0
H  H7  1  0.99186942  0.54560332  0.64364655  1  0  0.106269  0  0.947235  0  0  0.11589  0  1.005637  0  0  0.118883  0  1.005468  0  0  0.106939  0.113717  0  1.005959  0
H  H8  1  0.51049437  0.70378432  0.42692606  1  0  0.09089  0  0.986938  0  0  0.09362  0  1.058489  0  0  0.097633  0  1.054508  0  0  0.120787  0.090544  0  1.061601  0
H  H9  1  0.01049236  0.29621388  0.57307326  1  0  0.090927  0  0.986968  0  0  0.093653  0  1.058504  0  0  0.097666  0  1.054524  0  0  0.1208  0.09058  0  1.061608  0
H  H10  1  0.50339786  0.84499602  0.89990822  1  0  0.10937  0  0.951301  0  0  0.116331  0  1.014823  0  0  0.119656  0  1.014309  0  0  0.10793  0.113866  0  1.015414  0
H  H11  1  0.00339745  0.15500010  0.10008927  1  0  0.109389  0  0.951272  0  0  0.116347  0  1.014797  0  0  0.119672  0  1.014282  0  0  0.107932  0.113883  0  1.015385  0
H  H12  1  0.77694911  0.80830036  0.00513229  1  0  0.108073  0  0.970786  0  0  0.116457  0  1.03292  0  0  0.119651  0  1.030992  0  0  0.107886  0.114203  0  1.034279  0
H  H13  1  0.27694704  0.19169870  0.99486560  1  0  0.108053  0  0.970788  0  0  0.116433  0  1.032927  0  0  0.119628  0  1.031  0  0  0.107878  0.11418  0  1.034284  0
H  H14  1  0.06732427  0.83471555  0.91378195  1  0  0.100263  0  0.951394  0  0  0.110217  0  1.010969  0  0  0.112717  0  1.011635  0  0  0.106808  0.108337  0  1.010721  0
H  H15  1  0.56732558  0.16528676  0.08621744  1  0  0.100287  0  0.951334  0  0  0.110222  0  1.010927  0  0  0.112737  0  1.011576  0  0  0.106804  0.108342  0  1.010681  0
H  H16  1  0.07291816  0.89783957  0.72830001  1  0  0.103153  0  0.978892  0  0  0.105878  0  1.048941  0  0  0.109849  0  1.045092  0  0  0.123574  0.102831  0  1.052026  0
H  H17  1  0.57291945  0.10216066  0.27169844  1  0  0.103141  0  0.978923  0  0  0.105871  0  1.048963  0  0  0.109841  0  1.045117  0  0  0.123579  0.102818  0  1.052055  0
H  H18  1  0.06237504  0.39927293  0.02554318  1  0  0.112399  0  0.950072  0  0  0.121274  0  1.00992  0  0  0.124728  0  1.008879  0  0  0.110626  0.118764  0  1.010858  0
H  H19  1  0.56238085  0.60073250  0.97446029  1  0  0.112393  0  0.950056  0  0  0.121272  0  1.009895  0  0  0.124732  0  1.008852  0  0  0.110634  0.118763  0  1.01083  0
H  H20  1  0.77701313  0.49998217  0.14300971  1  0  0.098717  0  0.970053  0  0  0.107741  0  1.031235  0  0  0.10951  0  1.032032  0  0  0.106044  0.106394  0  1.030809  0
H  H21  1  0.27701736  0.50001690  0.85699173  1  0  0.098688  0  0.970044  0  0  0.107714  0  1.031221  0  0  0.109476  0  1.032042  0  0  0.106037  0.106365  0  1.030789  0
H  H22  1  0.49819431  0.38724841  0.02129068  1  0  0.108461  0  0.942287  0  0  0.120208  0  0.997265  0  0  0.123074  0  0.99683  0  0  0.111287  0.118057  0  0.997865  0
H  H23  1  0.99820011  0.61275155  0.97871025  1  0  0.108474  0  0.942296  0  0  0.120229  0  0.997261  0  0  0.123093  0  0.996825  0  0  0.111294  0.118078  0  0.997859  0
H  H24  1  0.51462897  0.19549354  0.78976683  1  0  0.090995  0  0.98915  0  0  0.092743  0  1.062046  0  0  0.096655  0  1.058202  0  0  0.121874  0.089776  0  1.065117  0
H  H25  1  0.01463056  0.80450569  0.21023207  1  0  0.090976  0  0.989178  0  0  0.09275  0  1.062045  0  0  0.096659  0  1.058208  0  0  0.12188  0.089785  0  1.065124  0
C  C26  1  0.93108146  0.63761781  0.40536339  1  0  0.096767  0  3.747678  0  0  0.1036  0  3.985931  0  0  0.104066  0  4.005299  0  0  0.111289  0.103103  0  3.973123  0
C  C27  1  0.43107808  0.36238012  0.59463574  1  0  0.096649  0  3.747604  0  0  0.103468  0  3.985906  0  0  0.103934  0  4.00527  0  0  0.111211  0.102976  0  3.973092  0
C  C28  1  0.93190450  0.49584815  0.36649972  1  0  -0.116082  0  3.712048  0  0  -0.134321  0  3.957131  0  0  -0.13926  0  3.977777  0  0  -0.076457  -0.131093  0  3.943232  0
C  C29  1  0.43190229  0.50414978  0.63350030  1  0  -0.11604  0  3.712081  0  0  -0.134305  0  3.957209  0  0  -0.139242  0  3.977851  0  0  -0.076476  -0.13108  0  3.943317  0
C  C30  1  0.77370166  0.42660995  0.35002960  1  0  -0.010953  0  3.704386  0  0  -0.030917  0  3.956408  0  0  -0.028654  0  3.97466  0  0  -0.067479  -0.031957  0  3.943592  0
C  C31  1  0.27370068  0.57338808  0.64997227  1  0  -0.010966  0  3.704482  0  0  -0.030922  0  3.956514  0  0  -0.028659  0  3.974766  0  0  -0.067466  -0.031975  0  3.943715  0
C  C32  1  0.62008445  0.50221049  0.37029717  1  0  -0.104416  0  3.701662  0  0  -0.116088  0  3.952006  0  0  -0.12149  0  3.97223  0  0  -0.077278  -0.112544  0  3.938406  0
C  C33  1  0.12008355  0.49778868  0.62970523  1  0  -0.104349  0  3.701756  0  0  -0.116023  0  3.952082  0  0  -0.121426  0  3.972306  0  0  -0.077247  -0.112486  0  3.938487  0
C  C34  1  0.63000181  0.64398944  0.41008563  1  0  0.136655  0  3.67821  0  0  0.108677  0  3.931556  0  0  0.114097  0  3.948054  0  0  0.048775  0.10514  0  3.920634  0
C  C35  1  0.12999844  0.35600972  0.58991321  1  0  0.136586  0  3.678151  0  0  0.10862  0  3.931493  0  0  0.114042  0  3.947988  0  0  0.048744  0.105083  0  3.920564  0
C  C36  1  0.09976997  0.71463726  0.42141126  1  0  0.640229  0  3.921377  0  0  0.590596  0  4.222313  0  0  0.623762  0  4.21267  0  0  0.21806  0.56803  0  4.228029  0
C  C37  1  0.59976707  0.28535984  0.57858666  1  0  0.640333  0  3.921371  0  0  0.590715  0  4.222285  0  0  0.623881  0  4.212637  0  0  0.218082  0.568145  0  4.227997  0
C  C38  1  0.64701804  0.89004321  0.76182535  1  0  0.094921  0  3.748147  0  0  0.103355  0  3.98399  0  0  0.103535  0  4.004407  0  0  0.112201  0.10299  0  3.970317  0
C  C39  1  0.14701893  0.10995698  0.23817396  1  0  0.094869  0  3.748257  0  0  0.103334  0  3.984081  0  0  0.103518  0  4.00449  0  0  0.112184  0.102959  0  3.970419  0
C  C40  1  0.63295443  0.85453756  0.86547823  1  0  -0.11193  0  3.707247  0  0  -0.130906  0  3.950916  0  0  -0.13581  0  3.97188  0  0  -0.074892  -0.127699  0  3.936976  0
C  C41  1  0.13295533  0.14546056  0.13451926  1  0  -0.111939  0  3.707339  0  0  -0.130917  0  3.950992  0  0  -0.135821  0  3.971953  0  0  -0.074892  -0.127713  0  3.937053  0
C  C42  1  0.78442613  0.83412605  0.92262675  1  0  -0.008223  0  3.692421  0  0  -0.02608  0  3.93903  0  0  -0.02345  0  3.956177  0  0  -0.065212  -0.027676  0  3.927281  0
C  C43  1  0.28442573  0.16587300  0.07737203  1  0  -0.008205  0  3.692507  0  0  -0.026058  0  3.939107  0  0  -0.02343  0  3.956261  0  0  -0.065199  -0.027654  0  3.927357  0
C  C44  1  0.94499881  0.84907149  0.87263818  1  0  -0.100765  0  3.703314  0  0  -0.113049  0  3.954221  0  0  -0.118372  0  3.974635  0  0  -0.07675  -0.109528  0  3.940491  0
C  C45  1  0.44499971  0.15093057  0.12736194  1  0  -0.100738  0  3.703282  0  0  -0.113008  0  3.954193  0  0  -0.118346  0  3.974602  0  0  -0.076714  -0.109495  0  3.940466  0
C  C46  1  0.94900283  0.88427624  0.76843983  1  0  0.133355  0  3.667782  0  0  0.104869  0  3.923415  0  0  0.110474  0  3.939751  0  0  0.05086  0.101134  0  3.91234  0
C  C47  1  0.44900372  0.11572478  0.23155893  1  0  0.133344  0  3.667753  0  0  0.104856  0  3.923392  0  0  0.11046  0  3.939734  0  0  0.050851  0.101134  0  3.912309  0
C  C48  1  0.48500809  0.91568478  0.70011583  1  0  0.646145  0  3.899683  0  0  0.593035  0  4.205016  0  0  0.626493  0  4.194784  0  0  0.224989  0.570453  0  4.211041  0
C  C49  1  0.98500939  0.08431311  0.29988239  1  0  0.646167  0  3.899568  0  0  0.593009  0  4.204972  0  0  0.626467  0  4.194738  0  0  0.224995  0.57043  0  4.210998  0
C  C50  1  0.93492514  0.24957817  0.84654460  1  0  0.101749  0  3.749367  0  0  0.109377  0  3.985615  0  0  0.109618  0  4.005489  0  0  0.114298  0.109092  0  3.972227  0
C  C51  1  0.43492680  0.75042494  0.15345599  1  0  0.101554  0  3.7494  0  0  0.109152  0  3.985705  0  0  0.109391  0  4.005582  0  0  0.11425  0.10887  0  3.972313  0
C  C52  1  0.93725835  0.35771774  0.97803946  1  0  -0.11891  0  3.711518  0  0  -0.13703  0  3.953449  0  0  -0.142179  0  3.974218  0  0  -0.076434  -0.133609  0  3.93941  0
C  C53  1  0.43726276  0.64228641  0.02196338  1  0  -0.118782  0  3.711448  0  0  -0.13689  0  3.95337  0  0  -0.142044  0  3.974142  0  0  -0.076403  -0.133472  0  3.939321  0
C  C54  1  0.77949776  0.41142678  0.04301485  1  0  -0.00885  0  3.723759  0  0  -0.027066  0  3.973152  0  0  -0.024336  0  3.991711  0  0  -0.066318  -0.028574  0  3.960278  0
C  C55  1  0.27950318  0.58857436  0.95698665  1  0  -0.008878  0  3.723701  0  0  -0.027096  0  3.973101  0  0  -0.024368  0  3.991654  0  0  -0.066344  -0.028585  0  3.960201  0
C  C56  1  0.62543831  0.35071410  0.97537387  1  0  -0.107577  0  3.701323  0  0  -0.118983  0  3.950221  0  0  -0.12424  0  3.969908  0  0  -0.077344  -0.115349  0  3.936743  0
C  C57  1  0.12544141  0.64928714  0.02462769  1  0  -0.107556  0  3.701314  0  0  -0.118964  0  3.950226  0  0  -0.124217  0  3.969909  0  0  -0.077324  -0.115328  0  3.936747  0
C  C58  1  0.63427721  0.24195243  0.84440077  1  0  0.140182  0  3.676442  0  0  0.111863  0  3.930043  0  0  0.117294  0  3.946803  0  0  0.051046  0.108385  0  3.918562  0
C  C59  1  0.13428016  0.75804881  0.15559990  1  0  0.140209  0  3.676337  0  0  0.111855  0  3.929975  0  0  0.117285  0  3.946734  0  0  0.051039  0.108368  0  3.918519  0
C  C60  1  0.10252077  0.19479222  0.77073942  1  0  0.645268  0  3.916882  0  0  0.592191  0  4.221208  0  0  0.625966  0  4.210747  0  0  0.223034  0.569408  0  4.227424  0
C  C61  1  0.60252146  0.80521215  0.22926356  1  0  0.645415  0  3.916712  0  0  0.592338  0  4.221055  0  0  0.626111  0  4.210598  0  0  0.22307  0.569564  0  4.227264  0
N  N62  1  0.78227819  0.71163044  0.42883143  1  0  -0.417051  0  3.269673  0  0  -0.362308  0  3.527075  0  0  -0.376578  0  3.547726  0  0  -0.369614  -0.352589  0  3.513376  0
N  N63  1  0.28227489  0.28836758  0.57116688  1  0  -0.417008  0  3.269482  0  0  -0.362258  0  3.526879  0  0  -0.376526  0  3.547526  0  0  -0.369573  -0.352536  0  3.513166  0
N  N64  1  0.80289025  0.90476488  0.71429837  1  0  -0.425859  0  3.312848  0  0  -0.371207  0  3.568913  0  0  -0.38633  0  3.591323  0  0  -0.388302  -0.360436  0  3.553543  0
N  N65  1  0.30288853  0.09523624  0.28570223  1  0  -0.425857  0  3.312858  0  0  -0.371212  0  3.568914  0  0  -0.386336  0  3.591322  0  0  -0.388315  -0.36044  0  3.553542  0
N  N66  1  0.78585589  0.19266852  0.77984751  1  0  -0.407367  0  3.267034  0  0  -0.352311  0  3.520395  0  0  -0.366439  0  3.541235  0  0  -0.365748  -0.34243  0  3.506129  0
N  N67  1  0.28585747  0.80733365  0.22015357  1  0  -0.407319  0  3.266942  0  0  -0.352237  0  3.520311  0  0  -0.366365  0  3.541153  0  0  -0.365727  -0.342354  0  3.506054  0
O  O68  1  0.08254873  0.84748823  0.46345983  1  0  -0.819774  0  2.180401  0  0  -0.752392  0  2.454031  0  0  -0.779034  0  2.442053  0  0  -0.440317  -0.73305  0  2.461447  0
O  O69  1  0.58254597  0.15250992  0.53654034  1  0  -0.819834  0  2.180406  0  0  -0.752451  0  2.454027  0  0  -0.77909  0  2.442046  0  0  -0.440365  -0.733107  0  2.461437  0
O  O70  1  0.24021306  0.65064311  0.39358905  1  0  -0.567322  0  1.917897  0  0  -0.529652  0  2.14107  0  0  -0.550818  0  2.133797  0  0  -0.295667  -0.514629  0  2.145583  0
O  O71  1  0.74021010  0.34935286  0.60640833  1  0  -0.567357  0  1.917942  0  0  -0.529695  0  2.141111  0  0  -0.550868  0  2.133846  0  0  -0.295652  -0.514677  0  2.145624  0
O  O72  1  0.51208670  0.95245058  0.60689976  1  0  -0.811812  0  2.13531  0  0  -0.744672  0  2.409147  0  0  -0.770411  0  2.395768  0  0  -0.430363  -0.725995  0  2.417399  0
O  O73  1  0.01208759  0.04754762  0.39309956  1  0  -0.811801  0  2.135253  0  0  -0.744654  0  2.409123  0  0  -0.770389  0  2.395736  0  0  -0.430359  -0.725979  0  2.41738  0
O  O74  1  0.34000803  0.90142410  0.74083485  1  0  -0.560186  0  1.950115  0  0  -0.517821  0  2.17701  0  0  -0.538696  0  2.168398  0  0  -0.286619  -0.503262  0  2.182502  0
O  O75  1  0.84000933  0.09857388  0.25916432  1  0  -0.560184  0  1.950081  0  0  -0.5178  0  2.17699  0  0  -0.538673  0  2.168376  0  0  -0.286633  -0.503239  0  2.182483  0
O  O76  1  0.24451715  0.24252677  0.82684218  1  0  -0.576959  0  1.953535  0  0  -0.536855  0  2.188377  0  0  -0.558356  0  2.179888  0  0  -0.289039  -0.521939  0  2.193878  0
O  O77  1  0.74452311  0.75747750  0.17315808  1  0  -0.577048  0  1.953346  0  0  -0.536955  0  2.188207  0  0  -0.558459  0  2.179722  0  0  -0.289081  -0.52204  0  2.193715  0
O  O78  1  0.08376980  0.09986777  0.64689101  1  0  -0.811995  0  2.201409  0  0  -0.744433  0  2.476893  0  0  -0.770915  0  2.464811  0  0  -0.440443  -0.72527  0  2.484352  0
O  O79  1  0.58377557  0.90013142  0.35310875  1  0  -0.811998  0  2.201481  0  0  -0.744436  0  2.476975  0  0  -0.770917  0  2.464894  0  0  -0.440439  -0.72528  0  2.484446  0
