# generated using pymatgen
data_Zr3H20C31O21
_symmetry_space_group_name_H-M   'P 1'
_cell_length_a   14.90660730
_cell_length_b   14.84312698
_cell_length_c   14.84815782
_cell_angle_alpha   59.71172417
_cell_angle_beta   59.81313770
_cell_angle_gamma   59.85204548
_symmetry_Int_Tables_number   1
_chemical_formula_structural   Zr3H20C31O21
_chemical_formula_sum   'Zr6 H40 C62 O42'
_cell_volume   2312.10627657
_cell_formula_units_Z   2
loop_
 _symmetry_equiv_pos_site_id
 _symmetry_equiv_pos_as_xyz
  1  'x, y, z'
loop_
 _atom_site_type_symbol
 _atom_site_label
 _atom_site_symmetry_multiplicity
 _atom_site_fract_x
 _atom_site_fract_y
 _atom_site_fract_z
 _atom_site_occupancy
 _atom_site_pbe_bader_charge
 _atom_site_pbe_bader_spin_density
 _atom_site_pbe_cm5_charge
 _atom_site_pbe_ddec_charge
 _atom_site_pbe_ddec_spin_density
 _atom_site_pbe_ddec_sum_bond_order
 _atom_site_pbe_magmom
Zr  Zr0  1  0.88385808  0.37726298  0.61909152  1  2.632065  0  1.632608  2.368009  0  2.761726  0
Zr  Zr1  1  0.12169816  0.61617231  0.37999048  1  2.63531  0  1.632382  2.369668  0  2.750295  0
Zr  Zr2  1  0.12126568  0.37719328  0.61949661  1  2.629342  0  1.630727  2.36773  0  2.762601  0
Zr  Zr3  1  0.88464182  0.61604150  0.37970303  1  2.638801  0  1.633336  2.369363  0  2.7502  0
Zr  Zr4  1  0.88445308  0.61373731  0.61952054  1  2.633362  0  1.633794  2.363117  0  2.778471  0
Zr  Zr5  1  0.12138428  0.37642555  0.38283089  1  2.627948  0  1.632781  2.364412  0  2.770183  0
H  H6  1  0.90769935  0.40366750  0.78272066  1  0.597323  0  0.332184  0.424298  0  0.856552  0
H  H7  1  0.90894838  0.77783717  0.40744516  1  0.595774  0  0.330314  0.42097  0  0.861212  0
H  H8  1  0.28367054  0.40234018  0.40686411  1  0.594067  0  0.333365  0.427641  0  0.851525  0
H  H9  1  0.90986002  0.40252943  0.40641928  1  0.606531  0  0.333879  0.426473  0  0.853171  0
H  H10  1  0.53262215  0.76475365  0.86792060  1  0.087025  0  0.095872  0.112677  0  1.004441  0
H  H11  1  0.62018930  0.67479414  0.94999075  1  0.028548  0  0.092226  0.098413  0  1.01968  0
H  H12  1  0.45536398  0.66838847  0.12249085  1  0.059743  0  0.096184  0.110031  0  0.990256  0
H  H13  1  0.36713582  0.75996088  0.04130760  1  0.055276  0  0.095521  0.103057  0  0.990183  0
H  H14  1  0.24809402  0.05483799  0.30640272  1  0.034684  0  0.09136  0.097059  0  1.03386  0
H  H15  1  0.15035989  0.13311180  0.23629913  1  0.072716  0  0.095248  0.110311  0  0.998728  0
H  H16  1  0.15843974  0.95711184  0.24205680  1  0.047684  0  0.095787  0.105113  0  0.982917  0
H  H17  1  0.25185574  0.87895915  0.31793196  1  0.068786  0  0.095745  0.110314  0  0.9953  0
H  H18  1  0.52220233  0.85510432  0.35323368  1  0.082924  0  0.096212  0.115133  0  0.999742  0
H  H19  1  0.61526476  0.93106125  0.25892066  1  0.040148  0  0.093842  0.105655  0  1.00306  0
H  H20  1  0.45529777  0.10914304  0.25252505  1  0.069476  0  0.096158  0.10928  0  0.991198  0
H  H21  1  0.36315435  0.03183931  0.34229678  1  0.044639  0  0.093855  0.103587  0  1.0244  0
H  H22  1  0.84146383  0.75825872  0.03806587  1  0.051244  0  0.098202  0.110014  0  0.977083  0
H  H23  1  0.75522116  0.67443495  0.12065511  1  0.041142  0  0.094368  0.106191  0  0.994007  0
H  H24  1  0.75558287  0.68027249  0.94898730  1  0.021196  0  0.090682  0.094894  0  1.022966  0
H  H25  1  0.84366445  0.76203011  0.86605809  1  0.056958  0  0.095893  0.112991  0  1.006758  0
H  H26  1  0.79686225  0.25752333  0.92580677  1  0.064681  0  0.094863  0.094172  0  1.062048  0
H  H27  1  0.63194898  0.25588224  0.09194084  1  0.076684  0  0.098329  0.09527  0  1.026719  0
H  H28  1  0.80116728  0.92572782  0.26634912  1  0.06537  0  0.096591  0.096439  0  1.05321  0
H  H29  1  0.63559569  0.09056854  0.26437473  1  0.079489  0  0.100156  0.096229  0  1.027993  0
H  H30  1  0.17330446  0.84400512  0.01565231  1  0.088474  0  0.110585  0.114455  0  0.993082  0
H  H31  1  0.17301179  0.01335910  0.84696383  1  0.087355  0  0.110988  0.116794  0  0.985341  0
H  H32  1  0.54091637  0.32393691  0.76192857  1  0.065776  0  0.095551  0.114051  0  1.006554  0
H  H33  1  0.62658770  0.24090806  0.67464200  1  0.065728  0  0.094897  0.108809  0  0.991145  0
H  H34  1  0.45846866  0.24148783  0.67421826  1  0.070766  0  0.094494  0.107836  0  0.993669  0
H  H35  1  0.37359927  0.32406308  0.76189631  1  0.070708  0  0.09608  0.112427  0  0.996269  0
H  H36  1  0.34041665  0.35538531  0.14369233  1  0.642422  0  0.310295  0.348659  0  0.971264  0
H  H37  1  0.64188042  0.36278606  0.83069893  1  0.649197  0  0.313908  0.352257  0  0.965974  0
H  H38  1  0.85933813  0.83468655  0.65964270  1  0.636207  0  0.311771  0.34965  0  0.968492  0
H  H39  1  0.86096512  0.14152414  0.65876770  1  0.640827  0  0.31164  0.352004  0  0.967738  0
H  H40  1  0.34425806  0.14419102  0.65594946  1  0.642839  0  0.311436  0.350749  0  0.971026  0
H  H41  1  0.65092311  0.83579911  0.65627795  1  0.628372  0  0.311679  0.35372  0  0.964364  0
H  H42  1  0.15406207  0.34812764  0.84475592  1  0.637548  0  0.31123  0.350559  0  0.970872  0
H  H43  1  0.15406498  0.34573281  0.15292402  1  0.640202  0  0.310914  0.34788  0  0.971543  0
H  H44  1  0.34284358  0.65224427  0.35762618  1  0.637835  0  0.310383  0.349429  0  0.973706  0
H  H45  1  0.65141233  0.64985990  0.35587259  1  0.649219  0  0.311495  0.35084  0  0.9704  0
C  C46  1  0.69140133  0.50636889  0.79737651  1  1.469255  0  0.235347  0.658216  0  4.083526  0
C  C47  1  0.00566091  0.79740255  0.50204604  1  1.481328  0  0.235305  0.66006  0  4.080615  0
C  C48  1  0.30107450  0.50310737  0.19080267  1  1.471687  0  0.235202  0.661451  0  4.080496  0
C  C49  1  0.00720762  0.18935931  0.50039545  1  1.5069  0  0.23406  0.657045  0  4.081989  0
C  C50  1  0.00331352  0.19172971  0.80291095  1  1.539561  0  0.242535  0.658405  0  4.072051  0
C  C51  1  0.69562509  0.49596727  0.50589386  1  1.490261  0  0.23497  0.661403  0  4.073177  0
C  C52  1  0.00439774  0.79985775  0.19547659  1  1.550635  0  0.241179  0.651546  0  4.084435  0
C  C53  1  0.30304714  0.49714432  0.50679882  1  1.483159  0  0.234288  0.658508  0  4.07488  0
C  C54  1  0.00379712  0.50200132  0.80125561  1  1.480889  0  0.235396  0.660639  0  4.079694  0
C  C55  1  0.30259772  0.18716114  0.50326518  1  1.464323  0  0.234687  0.658439  0  4.083709  0
C  C56  1  0.00600923  0.50126728  0.19239077  1  1.483531  0  0.235563  0.661887  0  4.080967  0
C  C57  1  0.69369730  0.79415452  0.50414275  1  1.489229  0  0.23446  0.658016  0  4.083668  0
C  C58  1  0.58794280  0.51086217  0.89104034  1  -0.013479  0  -0.035079  -0.226586  0  4.017886  0
C  C59  1  0.39528452  0.50747480  0.08777697  1  0.00072  0  -0.036892  -0.228557  0  4.029385  0
C  C60  1  0.53737016  0.58996310  0.94312675  1  0.009853  0  -0.020537  0.052199  0  3.940766  0
C  C61  1  0.44234615  0.42834319  0.03557748  1  0.561393  0  0.087482  0.200616  0  4.025649  0
C  C62  1  0.44529973  0.58815434  0.03726150  1  -0.004534  0  -0.021349  0.04827  0  3.953316  0
C  C63  1  0.53675157  0.43093333  0.93745800  1  0.584701  0  0.089765  0.20408  0  4.018028  0
C  C64  1  0.54536249  0.68965385  0.93971779  1  -0.031419  0  -0.151731  -0.189806  0  3.864776  0
C  C65  1  0.44099792  0.68642313  0.04844200  1  -0.00644  0  -0.150681  -0.188647  0  3.871816  0
C  C66  1  0.00497920  0.09202046  0.49990280  1  0.03249  0  -0.03597  -0.227592  0  4.020757  0
C  C67  1  0.00487834  0.89630029  0.50220385  1  -0.004757  0  -0.036677  -0.228605  0  4.032311  0
C  C68  1  0.07985959  0.04546083  0.41543124  1  -0.060897  0  -0.021696  0.048126  0  3.943562  0
C  C69  1  0.92645613  0.94256729  0.58720622  1  0.600677  0  0.089882  0.207037  0  4.014167  0
C  C70  1  0.08048665  0.95119148  0.41737660  1  0.008985  0  -0.020486  0.052498  0  3.950673  0
C  C71  1  0.92671921  0.03911691  0.58639387  1  0.568015  0  0.090808  0.209963  0  4.012622  0
C  C72  1  0.17284675  0.05938358  0.30540391  1  -0.01732  0  -0.151176  -0.187927  0  3.866929  0
C  C73  1  0.17590289  0.94928050  0.30979104  1  -0.028283  0  -0.151682  -0.190658  0  3.870217  0
C  C74  1  0.59195941  0.88952768  0.50791089  1  -0.009672  0  -0.035963  -0.227624  0  4.019797  0
C  C75  1  0.39925287  0.08623245  0.50602152  1  0.025206  0  -0.036385  -0.226748  0  4.023377  0
C  C76  1  0.53939232  0.93842484  0.42968017  1  -0.027395  0  -0.020975  0.049147  0  3.950256  0
C  C77  1  0.44812092  0.03684556  0.58836980  1  0.585802  0  0.088746  0.206587  0  4.015171  0
C  C78  1  0.44838373  0.03349036  0.42783035  1  0.004547  0  -0.023253  0.04322  0  3.960291  0
C  C79  1  0.54389163  0.94000493  0.58879225  1  0.563788  0  0.089867  0.208498  0  4.012181  0
C  C80  1  0.54117052  0.92727732  0.33261800  1  -0.029782  0  -0.153813  -0.197244  0  3.862361  0
C  C81  1  0.43968586  0.03836976  0.32799622  1  -0.029038  0  -0.151432  -0.192921  0  3.876018  0
C  C82  1  0.00695670  0.50161370  0.09316202  1  0.021304  0  -0.037044  -0.229891  0  4.029055  0
C  C83  1  0.00613250  0.50306177  0.89823148  1  0.029468  0  -0.035713  -0.227062  0  4.016622  0
C  C84  1  0.92856348  0.58394790  0.04091682  1  -0.067643  0  -0.020954  0.050175  0  3.953876  0
C  C85  1  0.08663041  0.41875834  0.94889926  1  0.567653  0  0.090455  0.209424  0  4.011043  0
C  C86  1  0.92826212  0.58501143  0.94755673  1  -0.01774  0  -0.021029  0.049583  0  3.941282  0
C  C87  1  0.08668463  0.41781028  0.04556502  1  0.609265  0  0.08999  0.20855  0  4.009901  0
C  C88  1  0.82815615  0.68713112  0.04747317  1  0.005144  0  -0.150203  -0.188275  0  3.870698  0
C  C89  1  0.82876283  0.68965365  0.93944751  1  0.017304  0  -0.151782  -0.188616  0  3.865796  0
C  C90  1  0.99930218  0.09530232  0.90818904  1  -0.040538  0  -0.007832  -0.076441  0  3.925613  0
C  C91  1  0.89873385  0.09337667  0.99982588  1  0.011488  0  0.002218  0.06285  0  3.944683  0
C  C92  1  0.09655475  0.00826644  0.91600306  1  0.013395  0  -0.078481  -0.086607  0  3.981697  0
C  C93  1  0.79959639  0.18533892  0.00048118  1  -0.007448  0  -0.095745  -0.134095  0  3.981539  0
C  C94  1  0.70691966  0.18432804  0.09352831  1  -0.076748  0  -0.088909  -0.067835  0  4.015074  0
C  C95  1  0.00022766  0.90540532  0.09926815  1  -0.011339  0  -0.006485  -0.071493  0  3.924838  0
C  C96  1  0.09687739  0.91317646  0.01117883  1  -0.049724  0  -0.079194  -0.093316  0  3.988676  0
C  C97  1  0.89960325  0.99674496  0.09793975  1  -0.014325  0  0.0019  0.062388  0  3.946098  0
C  C98  1  0.80215663  0.99858918  0.19198685  1  -0.00308  0  -0.093159  -0.134879  0  3.981977  0
C  C99  1  0.70860413  0.09066684  0.19043093  1  -0.058108  0  -0.088607  -0.072427  0  4.017377  0
C  C100  1  0.59552848  0.49758403  0.50731484  1  0.009949  0  -0.036058  -0.227183  0  4.0168  0
C  C101  1  0.40040012  0.49851090  0.50786039  1  0.064317  0  -0.036027  -0.226097  0  4.016078  0
C  C102  1  0.54502589  0.41676130  0.58732694  1  -0.02704  0  -0.020002  0.051641  0  3.940554  0
C  C103  1  0.44885337  0.58182930  0.42641509  1  0.519816  0  0.086411  0.204521  0  4.012715  0
C  C104  1  0.45195217  0.41716585  0.58743577  1  -0.020587  0  -0.019654  0.05245  0  3.939707  0
C  C105  1  0.54529111  0.58108493  0.42594691  1  0.597654  0  0.086303  0.203039  0  4.014312  0
C  C106  1  0.55275363  0.31292923  0.68841592  1  -0.018307  0  -0.152565  -0.192702  0  3.855489  0
C  C107  1  0.44655320  0.31325002  0.68836040  1  -0.052023  0  -0.151837  -0.190066  0  3.857553  0
O  O108  1  0.73437287  0.42664039  0.75865393  1  -1.187229  0  -0.35632  -0.642104  0  2.332075  0
O  O109  1  0.08094101  0.75676627  0.42614008  1  -1.182953  0  -0.350218  -0.600874  0  2.266732  0
O  O110  1  0.26289846  0.57604879  0.23415110  1  -1.17296  0  -0.349861  -0.59985  0  2.271909  0
O  O111  1  0.93138971  0.22913845  0.57928691  1  -1.186918  0  -0.356176  -0.63658  0  2.322247  0
O  O112  1  0.08208933  0.22886221  0.76080334  1  -1.18079  0  -0.357136  -0.623262  0  2.25385  0
O  O113  1  0.73724864  0.57299302  0.42720706  1  -1.193088  0  -0.351973  -0.636533  0  2.310014  0
O  O114  1  0.92936061  0.75885180  0.23429468  1  -1.178653  0  -0.351735  -0.617885  0  2.285195  0
O  O115  1  0.26311922  0.42001127  0.58118135  1  -1.180326  0  -0.352821  -0.606301  0  2.256603  0
O  O116  1  0.92740811  0.57657151  0.76109245  1  -1.181065  0  -0.351565  -0.603804  0  2.263969  0
O  O117  1  0.26319306  0.22953509  0.42626585  1  -1.175424  0  -0.350428  -0.601357  0  2.262864  0
O  O118  1  0.08258165  0.42275146  0.23425828  1  -1.188027  0  -0.357567  -0.640036  0  2.323812  0
O  O119  1  0.73701059  0.75598537  0.57892684  1  -1.183736  0  -0.355292  -0.637051  0  2.331269  0
O  O120  1  0.26271442  0.22906969  0.57974753  1  -1.185379  0  -0.354838  -0.635506  0  2.324696  0
O  O121  1  0.93008961  0.57646400  0.23383944  1  -1.176443  0  -0.351682  -0.601038  0  2.268297  0
O  O122  1  0.73635534  0.75512519  0.42669488  1  -1.179466  0  -0.350015  -0.602204  0  2.272165  0
O  O123  1  0.07963735  0.42289310  0.76168781  1  -1.181832  0  -0.357318  -0.639644  0  2.322946  0
O  O124  1  0.92809298  0.23106987  0.76186791  1  -1.173644  0  -0.355573  -0.620161  0  2.275982  0
O  O125  1  0.26302120  0.57443936  0.42828699  1  -1.184551  0  -0.352189  -0.635195  0  2.309609  0
O  O126  1  0.08321453  0.75748388  0.23243791  1  -1.174748  0  -0.354345  -0.620355  0  2.266327  0
O  O127  1  0.73806144  0.41899240  0.58043936  1  -1.192397  0  -0.353754  -0.608311  0  2.257601  0
O  O128  1  0.08216529  0.23104979  0.42403035  1  -1.187625  0  -0.351707  -0.602406  0  2.261935  0
O  O129  1  0.73591980  0.57797363  0.76027702  1  -1.17287  0  -0.350166  -0.599278  0  2.268001  0
O  O130  1  0.92768532  0.75678714  0.57928924  1  -1.182248  0  -0.359136  -0.639839  0  2.321321  0
O  O131  1  0.26239037  0.42347539  0.23348816  1  -1.188798  0  -0.356804  -0.639558  0  2.317352  0
O  O132  1  0.93625190  0.42913236  0.43318056  1  -1.229555  0  -0.697083  -1.070854  0  2.369164  0
O  O133  1  0.20385145  0.42892293  0.43337893  1  -1.222078  0  -0.695457  -1.072724  0  2.359131  0
O  O134  1  0.93570532  0.69763103  0.43284592  1  -1.224408  0  -0.694505  -1.06887  0  2.364214  0
O  O135  1  0.93477431  0.42884725  0.70249334  1  -1.226175  0  -0.696317  -1.071791  0  2.364244  0
O  O136  1  0.05214346  0.54536042  0.54972936  1  -1.198322  0  -0.793897  -1.147822  0  2.138196  0
O  O137  1  0.85485493  0.54545468  0.54933079  1  -1.196151  0  -0.792875  -1.146776  0  2.134538  0
O  O138  1  0.05226524  0.54564325  0.35238430  1  -1.195193  0  -0.791158  -1.146208  0  2.132771  0
O  O139  1  0.05189634  0.34765272  0.55046114  1  -1.196175  0  -0.79496  -1.146287  0  2.142928  0
O  O140  1  0.40391020  0.34575751  0.07507097  1  -1.127582  0  -0.341409  -0.4032  0  2.298156  0
O  O141  1  0.57412749  0.35194532  0.89509094  1  -1.142118  0  -0.335472  -0.404205  0  2.322739  0
O  O142  1  0.84850782  0.89948081  0.67300740  1  -1.131838  0  -0.338546  -0.403839  0  2.312166  0
O  O143  1  0.84917007  0.07481387  0.67185059  1  -1.130936  0  -0.341437  -0.405795  0  2.290417  0
O  O144  1  0.40944638  0.07714346  0.66934640  1  -1.133193  0  -0.341903  -0.408957  0  2.294816  0
O  O145  1  0.58448059  0.90155738  0.66937995  1  -1.11605  0  -0.339049  -0.407416  0  2.305706  0
O  O146  1  0.16632559  0.33520537  0.91111793  1  -1.125737  0  -0.34006  -0.40616  0  2.299421  0
O  O147  1  0.16562770  0.33288334  0.08753714  1  -1.139416  0  -0.33962  -0.404392  0  2.310197  0
O  O148  1  0.40840452  0.66522878  0.34519496  1  -1.133412  0  -0.344767  -0.418352  0  2.308408  0
O  O149  1  0.58475025  0.66349493  0.34390812  1  -1.148926  0  -0.342442  -0.416432  0  2.319799  0
