# generated using pymatgen
data_KNaH12(C2O5)2
_symmetry_space_group_name_H-M   'P 1'
_cell_length_a   6.19669031
_cell_length_b   11.64419691
_cell_length_c   14.26600063
_cell_angle_alpha   89.99994156
_cell_angle_beta   90.00004915
_cell_angle_gamma   89.99967052
_symmetry_Int_Tables_number   1
_chemical_formula_structural   KNaH12(C2O5)2
_chemical_formula_sum   'K4 Na4 H48 C16 O40'
_cell_volume   1029.37015480
_cell_formula_units_Z   4
loop_
 _symmetry_equiv_pos_site_id
 _symmetry_equiv_pos_as_xyz
  1  'x, y, z'
loop_
 _atom_site_type_symbol
 _atom_site_label
 _atom_site_symmetry_multiplicity
 _atom_site_fract_x
 _atom_site_fract_y
 _atom_site_fract_z
 _atom_site_occupancy
 _atom_site_hle17_bader_spin_density
 _atom_site_hle17_ddec_charge
 _atom_site_hle17_ddec_spin_density
 _atom_site_hle17_ddec_sum_bond_order
 _atom_site_hle17_magmom
 _atom_site_hse06_10hf_bader_spin_density
 _atom_site_hse06_10hf_ddec_charge
 _atom_site_hse06_10hf_ddec_spin_density
 _atom_site_hse06_10hf_ddec_sum_bond_order
 _atom_site_hse06_10hf_magmom
 _atom_site_hse06_bader_spin_density
 _atom_site_hse06_ddec_charge
 _atom_site_hse06_ddec_spin_density
 _atom_site_hse06_ddec_sum_bond_order
 _atom_site_hse06_magmom
 _atom_site_pbe_bader_spin_density
 _atom_site_pbe_cm5_charge
 _atom_site_pbe_ddec_charge
 _atom_site_pbe_ddec_spin_density
 _atom_site_pbe_ddec_sum_bond_order
 _atom_site_pbe_magmom
K  K0  1  0.17161466  0.00000114  0.50000352  1  0  0.915197  0  0.429406  0  0  0.861996  0  0.607315  0  0  0.878247  0  0.582176  0  0  0.706126  0.849752  0  0.625368  0
K  K1  1  0.82837272  0.49999822  0.99999430  1  0  0.915187  0  0.429424  0  0  0.861983  0  0.60732  0  0  0.878241  0  0.582171  0  0  0.706104  0.849738  0  0.625374  0
K  K2  1  0.97126627  0.50000261  0.50000837  1  0  0.935291  0  0.378564  0  0  0.898622  0  0.534552  0  0  0.911389  0  0.513447  0  0  0.700398  0.888433  0  0.550317  0
K  K3  1  0.02869478  0.99999186  0.99999955  1  0  0.935265  0  0.378568  0  0  0.898619  0  0.534548  0  0  0.911377  0  0.513452  0  0  0.700382  0.888434  0  0.550301  0
Na  Na4  1  0.47571103  0.26949715  0.49408800  1  0  0.903906  0  0.397556  0  0  0.865056  0  0.549103  0  0  0.873251  0  0.529429  0  0  0.694239  0.858689  0  0.56348  0
Na  Na5  1  0.47571019  0.73050274  0.50591103  1  0  0.903902  0  0.397555  0  0  0.865057  0  0.549099  0  0  0.873252  0  0.529425  0  0  0.694238  0.858685  0  0.563476  0
Na  Na6  1  0.52428441  0.23050137  0.99408800  1  0  0.903899  0  0.397558  0  0  0.865057  0  0.549095  0  0  0.873252  0  0.529422  0  0  0.69423  0.858683  0  0.563473  0
Na  Na7  1  0.52428705  0.76949665  0.00591174  1  0  0.903917  0  0.397551  0  0  0.8651  0  0.549052  0  0  0.87329  0  0.529381  0  0  0.694251  0.858727  0  0.563426  0
H  H8  1  0.55204615  0.46739027  0.77903395  1  0  0.069296  0  0.93882  0  0  0.079398  0  1.000736  0  0  0.081595  0  0.998933  0  0  0.118393  0.077748  0  1.002275  0
H  H9  1  0.55203559  0.53261367  0.22096651  1  0  0.069285  0  0.938768  0  0  0.07937  0  1.000696  0  0  0.081567  0  0.99889  0  0  0.118386  0.07772  0  1.002238  0
H  H10  1  0.44795857  0.03260937  0.27903343  1  0  0.069261  0  0.938756  0  0  0.079356  0  1.000707  0  0  0.081552  0  0.998906  0  0  0.118365  0.077705  0  1.002248  0
H  H11  1  0.44795882  0.96738717  0.72096629  1  0  0.069318  0  0.93873  0  0  0.079391  0  1.000685  0  0  0.081586  0  0.998882  0  0  0.118391  0.077743  0  1.002227  0
H  H12  1  0.26944260  0.35365341  0.70322643  1  0  0.08436  0  0.921878  0  0  0.094917  0  0.981201  0  0  0.096469  0  0.980583  0  0  0.127315  0.093771  0  0.98179  0
H  H13  1  0.26943420  0.64635398  0.29677252  1  0  0.084417  0  0.921927  0  0  0.094968  0  0.981241  0  0  0.096521  0  0.980623  0  0  0.127357  0.093817  0  0.981827  0
H  H14  1  0.73056682  0.14634546  0.20323013  1  0  0.084342  0  0.921916  0  0  0.094868  0  0.981224  0  0  0.096419  0  0.980609  0  0  0.127327  0.093719  0  0.981809  0
H  H15  1  0.73057004  0.85365020  0.79677180  1  0  0.084353  0  0.921954  0  0  0.094899  0  0.98126  0  0  0.096452  0  0.980641  0  0  0.127312  0.093752  0  0.981842  0
H  H16  1  0.43822415  0.16072437  0.80766997  1  0  0.371249  0  0.914528  0  0  0.342567  0  0.993677  0  0  0.353741  0  0.980717  0  0  0.295588  0.334631  0  1.002914  0
H  H17  1  0.43821671  0.83927993  0.19232904  1  0  0.37137  0  0.91438  0  0  0.342652  0  0.993579  0  0  0.353828  0  0.980611  0  0  0.295608  0.334715  0  1.002829  0
H  H18  1  0.56177901  0.33927609  0.30766994  1  0  0.371266  0  0.914565  0  0  0.342561  0  0.993764  0  0  0.353737  0  0.980796  0  0  0.295571  0.334621  0  1.003012  0
H  H19  1  0.56178249  0.66072181  0.69232912  1  0  0.371303  0  0.914459  0  0  0.34261  0  0.993628  0  0  0.353786  0  0.980663  0  0  0.295595  0.334672  0  1.002873  0
H  H20  1  0.64761531  0.06020458  0.60308643  1  0  0.426902  0  0.868658  0  0  0.401644  0  0.922847  0  0  0.411124  0  0.908889  0  0  0.297717  0.394939  0  0.932734  0
H  H21  1  0.64761686  0.93979821  0.39691546  1  0  0.426934  0  0.868602  0  0  0.401682  0  0.922786  0  0  0.411161  0  0.908828  0  0  0.297722  0.394975  0  0.932677  0
H  H22  1  0.35238747  0.43979786  0.10308554  1  0  0.426951  0  0.868582  0  0  0.401685  0  0.922787  0  0  0.411166  0  0.908827  0  0  0.297722  0.394978  0  0.932679  0
H  H23  1  0.35238434  0.56020498  0.89691063  1  0  0.426918  0  0.868637  0  0  0.401658  0  0.922831  0  0  0.41114  0  0.90887  0  0  0.297722  0.394952  0  0.93272  0
H  H24  1  0.80821129  0.29423750  0.83146783  1  0  0.373628  0  0.879106  0  0  0.349721  0  0.95115  0  0  0.359588  0  0.940257  0  0  0.311387  0.342719  0  0.958883  0
H  H25  1  0.80821008  0.70576050  0.16853133  1  0  0.373591  0  0.879096  0  0  0.349653  0  0.951148  0  0  0.359515  0  0.940268  0  0  0.311353  0.342651  0  0.95888  0
H  H26  1  0.19178869  0.20576036  0.33146636  1  0  0.37359  0  0.879122  0  0  0.349642  0  0.951165  0  0  0.359501  0  0.940292  0  0  0.311374  0.342639  0  0.9589  0
H  H27  1  0.19179554  0.79423611  0.66853326  1  0  0.373598  0  0.879092  0  0  0.34966  0  0.951136  0  0  0.35952  0  0.940259  0  0  0.311358  0.342659  0  0.958869  0
H  H28  1  0.03096083  0.26614845  0.60386430  1  0  0.417895  0  0.890872  0  0  0.387985  0  0.953956  0  0  0.399145  0  0.937432  0  0  0.285756  0.380126  0  0.965584  0
H  H29  1  0.03095813  0.73385280  0.39613525  1  0  0.417966  0  0.890749  0  0  0.388051  0  0.953842  0  0  0.39921  0  0.93732  0  0  0.285806  0.380192  0  0.965469  0
H  H30  1  0.96904356  0.23384711  0.10386242  1  0  0.417968  0  0.890772  0  0  0.38802  0  0.953923  0  0  0.399182  0  0.937394  0  0  0.28578  0.380156  0  0.965556  0
H  H31  1  0.96904468  0.76614180  0.89613330  1  0  0.417953  0  0.890767  0  0  0.388047  0  0.953847  0  0  0.399203  0  0.937331  0  0  0.285829  0.38019  0  0.965469  0
H  H32  1  0.49204262  0.49713934  0.38666117  1  0  0.416866  0  0.894384  0  0  0.385133  0  0.960799  0  0  0.396278  0  0.944563  0  0  0.29131  0.37728  0  0.972212  0
H  H33  1  0.49204442  0.50285964  0.61333787  1  0  0.416835  0  0.894438  0  0  0.385089  0  0.960874  0  0  0.396236  0  0.944636  0  0  0.2913  0.377235  0  0.972287  0
H  H34  1  0.50795746  0.00285931  0.88666135  1  0  0.416867  0  0.894384  0  0  0.385135  0  0.9608  0  0  0.396277  0  0.944566  0  0  0.291319  0.37728  0  0.972215  0
H  H35  1  0.50795786  0.99714047  0.11333699  1  0  0.416831  0  0.894444  0  0  0.385122  0  0.960824  0  0  0.396261  0  0.944589  0  0  0.291288  0.377268  0  0.972239  0
H  H36  1  0.27822399  0.42651653  0.35354465  1  0  0.415628  0  0.895674  0  0  0.38492  0  0.960517  0  0  0.395564  0  0.94485  0  0  0.285106  0.377373  0  0.971615  0
H  H37  1  0.27822671  0.57348569  0.64645570  1  0  0.415675  0  0.895613  0  0  0.384965  0  0.960454  0  0  0.39562  0  0.944776  0  0  0.285136  0.377417  0  0.971553  0
H  H38  1  0.72177280  0.07348302  0.85354416  1  0  0.415655  0  0.895635  0  0  0.384948  0  0.96048  0  0  0.395599  0  0.944806  0  0  0.285127  0.377399  0  0.97158  0
H  H39  1  0.72177402  0.92651524  0.14645706  1  0  0.415639  0  0.895665  0  0  0.38492  0  0.960522  0  0  0.395576  0  0.944844  0  0  0.285099  0.377373  0  0.97162  0
H  H40  1  0.93988778  0.62119509  0.71005667  1  0  0.428368  0  0.85235  0  0  0.394369  0  0.929513  0  0  0.404618  0  0.914282  0  0  0.301484  0.387053  0  0.940376  0
H  H41  1  0.93988869  0.37880508  0.28994183  1  0  0.428342  0  0.852391  0  0  0.39434  0  0.929556  0  0  0.404589  0  0.914324  0  0  0.301476  0.38702  0  0.940424  0
H  H42  1  0.06010984  0.87880748  0.21006062  1  0  0.428365  0  0.852347  0  0  0.394343  0  0.929557  0  0  0.404593  0  0.914324  0  0  0.301456  0.387024  0  0.940424  0
H  H43  1  0.06010960  0.12119540  0.78994385  1  0  0.428377  0  0.852308  0  0  0.394363  0  0.929517  0  0  0.404612  0  0.914286  0  0  0.301477  0.387046  0  0.940381  0
H  H44  1  0.07175236  0.52018127  0.75686854  1  0  0.422556  0  0.880753  0  0  0.391208  0  0.945471  0  0  0.401761  0  0.930207  0  0  0.290406  0.383738  0  0.95626  0
H  H45  1  0.07174725  0.47982072  0.24313103  1  0  0.422552  0  0.880757  0  0  0.391203  0  0.945504  0  0  0.401755  0  0.930244  0  0  0.290404  0.383726  0  0.956301  0
H  H46  1  0.92824697  0.97981952  0.25687415  1  0  0.422492  0  0.880846  0  0  0.391136  0  0.945596  0  0  0.401688  0  0.930337  0  0  0.290357  0.383659  0  0.956393  0
H  H47  1  0.92825256  0.02017983  0.74313136  1  0  0.422532  0  0.880784  0  0  0.39118  0  0.945511  0  0  0.401733  0  0.930247  0  0  0.290399  0.383707  0  0.956305  0
H  H48  1  0.00260379  0.24199834  0.49608918  1  0  0.407064  0  0.912588  0  0  0.376935  0  0.97754  0  0  0.388189  0  0.960826  0  0  0.282196  0.369027  0  0.98926  0
H  H49  1  0.00260426  0.75800558  0.50390966  1  0  0.407079  0  0.912556  0  0  0.376949  0  0.977513  0  0  0.388204  0  0.960794  0  0  0.282198  0.369039  0  0.989239  0
H  H50  1  0.99739489  0.25799759  0.99608724  1  0  0.40703  0  0.912634  0  0  0.3769  0  0.977591  0  0  0.388155  0  0.960875  0  0  0.282166  0.368989  0  0.989317  0
H  H51  1  0.99739459  0.74199295  0.00390988  1  0  0.407024  0  0.912638  0  0  0.376898  0  0.97759  0  0  0.388153  0  0.960872  0  0  0.2822  0.368989  0  0.989311  0
H  H52  1  0.46989264  0.13923131  0.64897940  1  0  0.406193  0  0.905236  0  0  0.375363  0  0.970812  0  0  0.385685  0  0.955418  0  0  0.285724  0.368036  0  0.981718  0
H  H53  1  0.46988688  0.86077546  0.35102594  1  0  0.40628  0  0.905133  0  0  0.375458  0  0.970691  0  0  0.385777  0  0.955296  0  0  0.285741  0.368134  0  0.981591  0
H  H54  1  0.53011022  0.36077193  0.14897724  1  0  0.406211  0  0.905227  0  0  0.375367  0  0.970796  0  0  0.385698  0  0.955409  0  0  0.285705  0.36804  0  0.981698  0
H  H55  1  0.53010939  0.63922951  0.85101971  1  0  0.406247  0  0.905177  0  0  0.375387  0  0.970791  0  0  0.385717  0  0.955395  0  0  0.285732  0.368059  0  0.981696  0
C  C56  1  0.71088957  0.34696443  0.68799520  1  0  0.646818  0  3.898273  0  0  0.589989  0  4.214724  0  0  0.622942  0  4.206305  0  0  0.208876  0.567591  0  4.219812  0
C  C57  1  0.71088273  0.65303473  0.31200392  1  0  0.646816  0  3.898333  0  0  0.589982  0  4.214794  0  0  0.622939  0  4.206376  0  0  0.20888  0.567585  0  4.21988  0
C  C58  1  0.28911337  0.15303275  0.18799452  1  0  0.646919  0  3.898251  0  0  0.590064  0  4.214738  0  0  0.623021  0  4.20631  0  0  0.208913  0.567663  0  4.21983  0
C  C59  1  0.28911992  0.84696514  0.81200584  1  0  0.646867  0  3.898377  0  0  0.589999  0  4.214891  0  0  0.622953  0  4.206471  0  0  0.20887  0.567597  0  4.21998  0
C  C60  1  0.57307723  0.37371783  0.77464173  1  0  0.046508  0  3.655645  0  0  0.022334  0  3.909838  0  0  0.023076  0  3.916935  0  0  -0.011036  0.021649  0  3.905308  0
C  C61  1  0.57306245  0.62628605  0.22535664  1  0  0.046656  0  3.655383  0  0  0.022469  0  3.90963  0  0  0.023217  0  3.916718  0  0  -0.011074  0.021775  0  3.905118  0
C  C62  1  0.42692748  0.12628181  0.27464253  1  0  0.046627  0  3.65534  0  0  0.022405  0  3.909529  0  0  0.023149  0  3.916619  0  0  -0.010999  0.021714  0  3.90502  0
C  C63  1  0.42693036  0.87371479  0.72535788  1  0  0.04656  0  3.655391  0  0  0.022383  0  3.909618  0  0  0.02313  0  3.916707  0  0  -0.011075  0.02169  0  3.905107  0
C  C64  1  0.21325147  0.35095077  0.85201164  1  0  0.649625  0  3.881032  0  0  0.594193  0  4.19586  0  0  0.626907  0  4.186825  0  0  0.21  0.571956  0  4.201413  0
C  C65  1  0.21324760  0.64905507  0.14798939  1  0  0.649601  0  3.881121  0  0  0.594208  0  4.195897  0  0  0.626923  0  4.186861  0  0  0.210028  0.571968  0  4.201453  0
C  C66  1  0.78674693  0.14904877  0.35201325  1  0  0.649674  0  3.88105  0  0  0.594212  0  4.195861  0  0  0.626927  0  4.186823  0  0  0.21001  0.571977  0  4.201417  0
C  C67  1  0.78675314  0.85094757  0.64798660  1  0  0.649701  0  3.880931  0  0  0.594242  0  4.195797  0  0  0.626957  0  4.186758  0  0  0.210022  0.572003  0  4.201356  0
C  C68  1  0.34860285  0.31836615  0.76567143  1  0  0.056039  0  3.634963  0  0  0.027291  0  3.887106  0  0  0.028851  0  3.894469  0  0  -0.005879  0.026145  0  3.882185  0
C  C69  1  0.34859556  0.68164014  0.23432895  1  0  0.055872  0  3.635221  0  0  0.027086  0  3.88738  0  0  0.028643  0  3.894742  0  0  -0.00597  0.02595  0  3.882452  0
C  C70  1  0.65140185  0.18163351  0.26567227  1  0  0.056062  0  3.634908  0  0  0.027451  0  3.886852  0  0  0.029012  0  3.894215  0  0  -0.005879  0.026306  0  3.881926  0
C  C71  1  0.65140695  0.81836154  0.73432893  1  0  0.055949  0  3.63514  0  0  0.027245  0  3.887252  0  0  0.028804  0  3.894614  0  0  -0.005879  0.026105  0  3.882323  0
O  O72  1  0.87678330  0.28664056  0.70227186  1  0  -0.613637  0  2.001821  0  0  -0.549206  0  2.220111  0  0  -0.574615  0  2.210529  0  0  -0.296062  -0.531653  0  2.226468  0
O  O73  1  0.87677256  0.71335895  0.29772943  1  0  -0.613685  0  2.002121  0  0  -0.549207  0  2.220367  0  0  -0.574618  0  2.21079  0  0  -0.296017  -0.531663  0  2.226724  0
O  O74  1  0.12322289  0.21336004  0.20226826  1  0  -0.613796  0  2.002066  0  0  -0.549275  0  2.220291  0  0  -0.57469  0  2.210716  0  0  -0.296041  -0.531725  0  2.226648  0
O  O75  1  0.12323168  0.78664093  0.79773063  1  0  -0.613714  0  2.002111  0  0  -0.549226  0  2.220371  0  0  -0.574632  0  2.210792  0  0  -0.296003  -0.531673  0  2.226724  0
O  O76  1  0.67931488  0.33337306  0.85715543  1  0  -0.593499  0  2.082089  0  0  -0.550855  0  2.313963  0  0  -0.564892  0  2.302377  0  0  -0.464711  -0.540738  0  2.321953  0
O  O77  1  0.67930919  0.66662706  0.14284368  1  0  -0.593488  0  2.08194  0  0  -0.550781  0  2.313851  0  0  -0.564815  0  2.302261  0  0  -0.464651  -0.540665  0  2.321845  0
O  O78  1  0.32068515  0.16662563  0.35715615  1  0  -0.59348  0  2.081937  0  0  -0.550772  0  2.313894  0  0  -0.564805  0  2.30231  0  0  -0.46471  -0.54066  0  2.321893  0
O  O79  1  0.32068991  0.83337216  0.64284422  1  0  -0.59345  0  2.081863  0  0  -0.550759  0  2.313828  0  0  -0.564792  0  2.30224  0  0  -0.46466  -0.540639  0  2.321823  0
O  O80  1  0.36055826  0.19705077  0.75299659  1  0  -0.559634  0  2.135094  0  0  -0.494685  0  2.344435  0  0  -0.511899  0  2.332216  0  0  -0.379983  -0.482547  0  2.352989  0
O  O81  1  0.36055292  0.80295548  0.24700309  1  0  -0.559744  0  2.135058  0  0  -0.494706  0  2.344355  0  0  -0.511923  0  2.332132  0  0  -0.37999  -0.482589  0  2.352922  0
O  O82  1  0.63944319  0.30294804  0.25299732  1  0  -0.559656  0  2.135033  0  0  -0.494721  0  2.344285  0  0  -0.511929  0  2.332073  0  0  -0.37999  -0.482589  0  2.352845  0
O  O83  1  0.63945284  0.69704704  0.74700177  1  0  -0.559678  0  2.135162  0  0  -0.494723  0  2.344498  0  0  -0.51195  0  2.332294  0  0  -0.379995  -0.482584  0  2.353052  0
O  O84  1  0.64659206  0.38601923  0.60912794  1  0  -0.731269  0  1.996666  0  0  -0.679225  0  2.241445  0  0  -0.703207  0  2.228605  0  0  -0.424046  -0.662226  0  2.249751  0
O  O85  1  0.64658256  0.61397841  0.39087256  1  0  -0.73127  0  1.996449  0  0  -0.679272  0  2.241313  0  0  -0.703251  0  2.228464  0  0  -0.424102  -0.662282  0  2.249623  0
O  O86  1  0.35341719  0.11397719  0.10912731  1  0  -0.731253  0  1.996425  0  0  -0.679297  0  2.241358  0  0  -0.703271  0  2.2285  0  0  -0.4241  -0.66231  0  2.249669  0
O  O87  1  0.35341701  0.88602135  0.89087377  1  0  -0.731228  0  1.99641  0  0  -0.679245  0  2.241342  0  0  -0.703216  0  2.22848  0  0  -0.42408  -0.662243  0  2.249642  0
O  O88  1  0.42135853  0.41947243  0.38577726  1  0  -0.902053  0  1.853844  0  0  -0.85377  0  2.034815  0  0  -0.871616  0  2.000746  0  0  -0.646918  -0.840961  0  2.058585  0
O  O89  1  0.42136111  0.58052676  0.61422174  1  0  -0.902071  0  1.853816  0  0  -0.853773  0  2.034807  0  0  -0.871634  0  2.0007  0  0  -0.646936  -0.840959  0  2.05857  0
O  O90  1  0.57864155  0.08052622  0.88577882  1  0  -0.902073  0  1.853806  0  0  -0.853783  0  2.034741  0  0  -0.871635  0  2.000657  0  0  -0.646955  -0.840972  0  2.058505  0
O  O91  1  0.57864279  0.91947249  0.11422025  1  0  -0.902083  0  1.853919  0  0  -0.853799  0  2.034881  0  0  -0.871649  0  2.000798  0  0  -0.6469  -0.840975  0  2.05862  0
O  O92  1  0.51836218  0.10604994  0.58843547  1  0  -0.903841  0  1.788614  0  0  -0.862535  0  1.958157  0  0  -0.879484  0  1.92788  0  0  -0.711242  -0.850357  0  1.979336  0
O  O93  1  0.51835941  0.89395668  0.41156848  1  0  -0.903943  0  1.788501  0  0  -0.862652  0  1.958025  0  0  -0.8796  0  1.927774  0  0  -0.711266  -0.850481  0  1.9792  0
O  O94  1  0.48164057  0.39395252  0.08843397  1  0  -0.903898  0  1.788522  0  0  -0.862565  0  1.958143  0  0  -0.879545  0  1.927826  0  0  -0.711232  -0.850394  0  1.979326  0
O  O95  1  0.48163698  0.60604992  0.91156296  1  0  -0.903911  0  1.788547  0  0  -0.862587  0  1.958153  0  0  -0.879536  0  1.927816  0  0  -0.711265  -0.85041  0  1.979334  0
O  O96  1  0.14792573  0.45460336  0.85859647  1  0  -0.686022  0  1.990408  0  0  -0.624717  0  2.213336  0  0  -0.649786  0  2.201527  0  0  -0.360117  -0.60716  0  2.221078  0
O  O97  1  0.14792779  0.54540183  0.14140173  1  0  -0.686022  0  1.990451  0  0  -0.62472  0  2.213358  0  0  -0.649796  0  2.201564  0  0  -0.360136  -0.607171  0  2.221111  0
O  O98  1  0.85207592  0.04539790  0.35859960  1  0  -0.686063  0  1.990471  0  0  -0.624753  0  2.213426  0  0  -0.649823  0  2.201618  0  0  -0.360133  -0.6072  0  2.221174  0
O  O99  1  0.85207615  0.95460168  0.64140168  1  0  -0.686044  0  1.990239  0  0  -0.624733  0  2.213183  0  0  -0.649798  0  2.201373  0  0  -0.360141  -0.607183  0  2.220936  0
O  O100  1  0.18154147  0.27243270  0.91188198  1  0  -0.674387  0  1.994952  0  0  -0.618625  0  2.229984  0  0  -0.641589  0  2.21706  0  0  -0.352774  -0.602552  0  2.238437  0
O  O101  1  0.18153987  0.72756981  0.08811693  1  0  -0.674342  0  1.994948  0  0  -0.618615  0  2.229994  0  0  -0.641578  0  2.217073  0  0  -0.352764  -0.602551  0  2.238456  0
O  O102  1  0.81845220  0.22756419  0.41188495  1  0  -0.674425  0  1.995028  0  0  -0.61867  0  2.23007  0  0  -0.641636  0  2.217147  0  0  -0.352783  -0.602608  0  2.238533  0
O  O103  1  0.81845429  0.77243549  0.58811561  1  0  -0.674446  0  1.995111  0  0  -0.618681  0  2.230177  0  0  -0.641644  0  2.21725  0  0  -0.352807  -0.60261  0  2.238636  0
O  O104  1  0.11357102  0.26273980  0.54388535  1  0  -0.94426  0  1.758619  0  0  -0.90244  0  1.932464  0  0  -0.919722  0  1.899096  0  0  -0.714838  -0.889956  0  1.955635  0
O  O105  1  0.11357324  0.73726206  0.45611353  1  0  -0.944342  0  1.7585  0  0  -0.902522  0  1.932355  0  0  -0.919801  0  1.898992  0  0  -0.7149  -0.890056  0  1.955525  0
O  O106  1  0.88642842  0.23725584  0.04388413  1  0  -0.94428  0  1.758565  0  0  -0.902442  0  1.932431  0  0  -0.919722  0  1.899062  0  0  -0.714849  -0.889964  0  1.955596  0
O  O107  1  0.88642969  0.76273247  0.95611155  1  0  -0.94429  0  1.75859  0  0  -0.902483  0  1.932434  0  0  -0.919765  0  1.899076  0  0  -0.714927  -0.890023  0  1.955622  0
O  O108  1  0.03351557  0.55562392  0.69508877  1  0  -0.85954  0  1.836817  0  0  -0.807259  0  2.016395  0  0  -0.826777  0  1.986023  0  0  -0.621106  -0.793343  0  2.037726  0
O  O109  1  0.03351419  0.44437561  0.30491009  1  0  -0.859481  0  1.836767  0  0  -0.807221  0  2.016292  0  0  -0.826734  0  1.985906  0  0  -0.62107  -0.7933  0  2.037636  0
O  O110  1  0.96647880  0.94437695  0.19509372  1  0  -0.859455  0  1.836773  0  0  -0.807165  0  2.016329  0  0  -0.826682  0  1.985945  0  0  -0.621045  -0.793249  0  2.037673  0
O  O111  1  0.96648413  0.05562399  0.80491111  1  0  -0.859521  0  1.836787  0  0  -0.807214  0  2.0164  0  0  -0.826732  0  1.986031  0  0  -0.621076  -0.793295  0  2.037734  0
