# generated using pymatgen
data_CsH8C7NO6
_symmetry_space_group_name_H-M   'P 1'
_cell_length_a   6.00897655
_cell_length_b   7.08162965
_cell_length_c   24.40994940
_cell_angle_alpha   89.99784394
_cell_angle_beta   93.52635481
_cell_angle_gamma   89.99979502
_symmetry_Int_Tables_number   1
_chemical_formula_structural   CsH8C7NO6
_chemical_formula_sum   'Cs4 H32 C28 N4 O24'
_cell_volume   1036.75832363
_cell_formula_units_Z   4
loop_
 _symmetry_equiv_pos_site_id
 _symmetry_equiv_pos_as_xyz
  1  'x, y, z'
loop_
 _atom_site_type_symbol
 _atom_site_label
 _atom_site_symmetry_multiplicity
 _atom_site_fract_x
 _atom_site_fract_y
 _atom_site_fract_z
 _atom_site_occupancy
 _atom_site_hle17_bader_spin_density
 _atom_site_hle17_ddec_charge
 _atom_site_hle17_ddec_spin_density
 _atom_site_hle17_ddec_sum_bond_order
 _atom_site_hle17_magmom
 _atom_site_hse06_10hf_bader_spin_density
 _atom_site_hse06_10hf_ddec_charge
 _atom_site_hse06_10hf_ddec_spin_density
 _atom_site_hse06_10hf_ddec_sum_bond_order
 _atom_site_hse06_10hf_magmom
 _atom_site_hse06_bader_spin_density
 _atom_site_hse06_ddec_charge
 _atom_site_hse06_ddec_spin_density
 _atom_site_hse06_ddec_sum_bond_order
 _atom_site_hse06_magmom
 _atom_site_pbe_bader_spin_density
 _atom_site_pbe_cm5_charge
 _atom_site_pbe_ddec_charge
 _atom_site_pbe_ddec_spin_density
 _atom_site_pbe_ddec_sum_bond_order
 _atom_site_pbe_magmom
Cs  Cs0  1  0.25208991  0.19203894  0.47250894  1  0  0.94489  0  0.582132  0  0  0.891925  0  0.820868  0  0  0.908016  0  0.793578  0  0  0.865872  0.879986  0  0.840362  0
Cs  Cs1  1  0.24790866  0.69203657  0.02749220  1  0  0.944914  0  0.582138  0  0  0.891987  0  0.820857  0  0  0.908075  0  0.793533  0  0  0.865854  0.880051  0  0.84031  0
Cs  Cs2  1  0.74791766  0.80796262  0.52749044  1  0  0.944895  0  0.582104  0  0  0.891919  0  0.820872  0  0  0.908015  0  0.793547  0  0  0.865836  0.879988  0  0.84033  0
Cs  Cs3  1  0.75208722  0.30796357  0.97250864  1  0  0.944902  0  0.582145  0  0  0.891989  0  0.820801  0  0  0.908073  0  0.793514  0  0  0.865861  0.880049  0  0.840289  0
H  H4  1  0.69343419  0.11747997  0.17389521  1  0  0.108229  0  0.95098  0  0  0.114788  0  1.014308  0  0  0.118258  0  1.012679  0  0  0.10889  0.112261  0  1.015597  0
H  H5  1  0.80658738  0.61747672  0.32609590  1  0  0.108301  0  0.95073  0  0  0.114811  0  1.014124  0  0  0.118273  0  1.012484  0  0  0.108882  0.112289  0  1.015385  0
H  H6  1  0.30657679  0.88250464  0.82609644  1  0  0.108214  0  0.950955  0  0  0.114724  0  1.014349  0  0  0.118236  0  1.012645  0  0  0.108846  0.112203  0  1.015605  0
H  H7  1  0.19340855  0.38251637  0.67390002  1  0  0.108249  0  0.950649  0  0  0.11473  0  1.014063  0  0  0.118207  0  1.012428  0  0  0.108863  0.112203  0  1.015354  0
H  H8  1  0.88700459  0.13805399  0.26742590  1  0  0.110441  0  0.972422  0  0  0.115972  0  1.040087  0  0  0.118643  0  1.039795  0  0  0.109525  0.113892  0  1.040764  0
H  H9  1  0.61301176  0.63805425  0.23256736  1  0  0.110447  0  0.972391  0  0  0.115896  0  1.040176  0  0  0.118547  0  1.039885  0  0  0.109472  0.113794  0  1.04086  0
H  H10  1  0.11299804  0.86194051  0.73256767  1  0  0.110456  0  0.972387  0  0  0.115984  0  1.040039  0  0  0.118635  0  1.039749  0  0  0.10949  0.113882  0  1.040722  0
H  H11  1  0.38695244  0.36193601  0.76743298  1  0  0.110483  0  0.972436  0  0  0.115906  0  1.040254  0  0  0.118572  0  1.039967  0  0  0.109483  0.11383  0  1.040929  0
H  H12  1  0.31817632  0.88240828  0.33705724  1  0  0.123271  0  0.942489  0  0  0.129923  0  1.004332  0  0  0.133934  0  1.001549  0  0  0.1196  0.127077  0  1.006363  0
H  H13  1  0.18184706  0.38239739  0.16294501  1  0  0.123268  0  0.942503  0  0  0.129957  0  1.004393  0  0  0.133937  0  1.00157  0  0  0.119579  0.127094  0  1.006383  0
H  H14  1  0.68183951  0.11758904  0.66294924  1  0  0.123344  0  0.942657  0  0  0.12999  0  1.004517  0  0  0.134005  0  1.001679  0  0  0.119629  0.127132  0  1.006507  0
H  H15  1  0.81814546  0.61762676  0.83705740  1  0  0.123143  0  0.942487  0  0  0.129917  0  1.004252  0  0  0.133849  0  1.001536  0  0  0.119583  0.127069  0  1.006282  0
H  H16  1  0.12580274  0.86205602  0.24263146  1  0  0.10271  0  0.972532  0  0  0.108673  0  1.039657  0  0  0.111394  0  1.039688  0  0  0.103011  0.106539  0  1.040164  0
H  H17  1  0.37423252  0.36204715  0.25736998  1  0  0.102899  0  0.972532  0  0  0.1089  0  1.039697  0  0  0.11161  0  1.039741  0  0  0.103113  0.1068  0  1.040097  0
H  H18  1  0.87422646  0.13792718  0.75737277  1  0  0.10273  0  0.972443  0  0  0.108706  0  1.03961  0  0  0.111431  0  1.039627  0  0  0.102988  0.106572  0  1.040104  0
H  H19  1  0.62578837  0.63796570  0.74263125  1  0  0.102841  0  0.97257  0  0  0.108856  0  1.03968  0  0  0.111575  0  1.039708  0  0  0.103108  0.106733  0  1.040149  0
H  H20  1  0.39130546  0.52768704  0.59352355  1  0  0.413867  0  0.897979  0  0  0.380664  0  0.966836  0  0  0.392383  0  0.94966  0  0  0.28091  0.372398  0  0.978924  0
H  H21  1  0.10865825  0.02766681  0.90647984  1  0  0.413865  0  0.897968  0  0  0.380633  0  0.966884  0  0  0.392351  0  0.949709  0  0  0.280901  0.372366  0  0.978973  0
H  H22  1  0.60870044  0.47230746  0.40647580  1  0  0.413922  0  0.897917  0  0  0.380733  0  0.966746  0  0  0.392451  0  0.949574  0  0  0.280929  0.372469  0  0.978832  0
H  H23  1  0.89132760  0.97233192  0.09352289  1  0  0.413859  0  0.897975  0  0  0.380645  0  0.966859  0  0  0.392362  0  0.949685  0  0  0.280941  0.372378  0  0.978946  0
H  H24  1  0.13216923  0.47909585  0.58427015  1  0  0.413422  0  0.897604  0  0  0.381175  0  0.964916  0  0  0.391786  0  0.949351  0  0  0.28518  0.373698  0  0.975854  0
H  H25  1  0.36779843  0.97908973  0.91573313  1  0  0.413378  0  0.897645  0  0  0.381151  0  0.96492  0  0  0.391758  0  0.949363  0  0  0.28516  0.373674  0  0.975869  0
H  H26  1  0.86783002  0.52090853  0.41572745  1  0  0.413458  0  0.897533  0  0  0.381199  0  0.964871  0  0  0.391809  0  0.94931  0  0  0.285165  0.37372  0  0.975817  0
H  H27  1  0.63219578  0.02091041  0.08426849  1  0  0.413289  0  0.897767  0  0  0.381063  0  0.965044  0  0  0.391673  0  0.94948  0  0  0.285126  0.373587  0  0.975987  0
H  H28  1  0.75265652  0.33158909  0.48462461  1  0  0.405375  0  0.913565  0  0  0.376932  0  0.975243  0  0  0.387504  0  0.959724  0  0  0.272641  0.369469  0  0.986187  0
H  H29  1  0.74735453  0.83158542  0.01537703  1  0  0.405403  0  0.913514  0  0  0.376956  0  0.975203  0  0  0.38753  0  0.959678  0  0  0.272666  0.369495  0  0.986141  0
H  H30  1  0.24734939  0.66841247  0.51537433  1  0  0.405409  0  0.913539  0  0  0.376961  0  0.975228  0  0  0.387534  0  0.959703  0  0  0.272644  0.369497  0  0.98617  0
H  H31  1  0.25264302  0.16841614  0.98462383  1  0  0.405459  0  0.913442  0  0  0.377006  0  0.975138  0  0  0.38758  0  0.959617  0  0  0.272693  0.369543  0  0.986083  0
H  H32  1  0.77989564  0.30901818  0.54913196  1  0  0.423152  0  0.879763  0  0  0.39488  0  0.939509  0  0  0.405796  0  0.923395  0  0  0.286774  0.387164  0  0.950872  0
H  H33  1  0.72008753  0.80900923  0.95086963  1  0  0.423152  0  0.879791  0  0  0.394984  0  0.939378  0  0  0.405901  0  0.923265  0  0  0.286817  0.387266  0  0.950748  0
H  H34  1  0.22011194  0.69098762  0.45086578  1  0  0.423189  0  0.879719  0  0  0.394924  0  0.939454  0  0  0.40584  0  0.923346  0  0  0.286795  0.387203  0  0.950828  0
H  H35  1  0.27990834  0.19099233  0.04913243  1  0  0.423083  0  0.879884  0  0  0.394912  0  0.93948  0  0  0.40583  0  0.923363  0  0  0.286792  0.387192  0  0.950849  0
C  C36  1  0.39642058  0.99035933  0.20288098  1  0  -0.033615  0  3.695442  0  0  -0.017576  0  3.931747  0  0  -0.022158  0  3.95217  0  0  -0.002819  -0.014559  0  3.917829  0
C  C37  1  0.10360182  0.49035568  0.29711513  1  0  -0.033706  0  3.695664  0  0  -0.017688  0  3.932094  0  0  -0.022268  0  3.952459  0  0  -0.002999  -0.014677  0  3.918126  0
C  C38  1  0.60358696  0.00962245  0.79712086  1  0  -0.033751  0  3.695692  0  0  -0.017646  0  3.932  0  0  -0.022236  0  3.952384  0  0  -0.002892  -0.014622  0  3.918016  0
C  C39  1  0.89639743  0.50964870  0.70288289  1  0  -0.033812  0  3.695612  0  0  -0.017758  0  3.931905  0  0  -0.022339  0  3.952328  0  0  -0.002956  -0.014744  0  3.917986  0
C  C40  1  0.61159052  0.06671686  0.20957423  1  0  -0.057438  0  3.693534  0  0  -0.080636  0  3.946375  0  0  -0.082475  0  3.966024  0  0  -0.07654  -0.079225  0  3.933082  0
C  C41  1  0.88843985  0.56671235  0.29042004  1  0  -0.057622  0  3.693479  0  0  -0.080771  0  3.946346  0  0  -0.082607  0  3.965959  0  0  -0.076467  -0.079356  0  3.933003  0
C  C42  1  0.38841707  0.93327057  0.79042310  1  0  -0.057502  0  3.69363  0  0  -0.08068  0  3.946473  0  0  -0.082545  0  3.966061  0  0  -0.076492  -0.079268  0  3.933119  0
C  C43  1  0.11155436  0.43327933  0.70958118  1  0  -0.057521  0  3.693475  0  0  -0.080641  0  3.946274  0  0  -0.082491  0  3.96593  0  0  -0.076436  -0.079226  0  3.932981  0
C  C44  1  0.72063168  0.07821231  0.26138696  1  0  -0.093368  0  3.709483  0  0  -0.116271  0  3.967038  0  0  -0.116436  0  3.985643  0  0  -0.074949  -0.115892  0  3.953959  0
C  C45  1  0.77940357  0.57821867  0.23860849  1  0  -0.093076  0  3.70945  0  0  -0.115592  0  3.965797  0  0  -0.116011  0  3.985496  0  0  -0.074844  -0.115481  0  3.953833  0
C  C46  1  0.27938758  0.92178784  0.73861015  1  0  -0.093226  0  3.709449  0  0  -0.115776  0  3.96585  0  0  -0.116208  0  3.98557  0  0  -0.074875  -0.115654  0  3.953864  0
C  C47  1  0.22058231  0.42176877  0.76139218  1  0  -0.093053  0  3.709564  0  0  -0.115848  0  3.967044  0  0  -0.116007  0  3.985655  0  0  -0.07484  -0.115482  0  3.953976  0
C  C48  1  0.61109996  0.01236312  0.30643296  1  0  0.085981  0  3.696251  0  0  0.06793  0  3.945087  0  0  0.071097  0  3.969664  0  0  0.083927  0.069382  0  3.930505  0
C  C49  1  0.88892426  0.51235807  0.19356224  1  0  0.085506  0  3.696533  0  0  0.072756  0  3.948275  0  0  0.070756  0  3.969963  0  0  0.083781  0.069019  0  3.930788  0
C  C50  1  0.38891928  0.98764127  0.69356620  1  0  0.085861  0  3.696424  0  0  0.072954  0  3.948163  0  0  0.070952  0  3.969856  0  0  0.083864  0.069273  0  3.930711  0
C  C51  1  0.11106160  0.48764349  0.80644007  1  0  0.085507  0  3.696227  0  0  0.067477  0  3.945325  0  0  0.070618  0  3.969871  0  0  0.083742  0.068934  0  3.930732  0
C  C52  1  0.39796422  0.93295395  0.30102664  1  0  -0.085435  0  3.684743  0  0  -0.111426  0  3.94311  0  0  -0.111487  0  3.960143  0  0  -0.069604  -0.110941  0  3.930693  0
C  C53  1  0.10207865  0.43295698  0.19897822  1  0  -0.085268  0  3.684737  0  0  -0.111034  0  3.942107  0  0  -0.111307  0  3.960138  0  0  -0.069447  -0.110819  0  3.930746  0
C  C54  1  0.60204835  0.06703914  0.69897241  1  0  -0.085558  0  3.6851  0  0  -0.111269  0  3.942507  0  0  -0.111603  0  3.960524  0  0  -0.069651  -0.111035  0  3.9311  0
C  C55  1  0.89792224  0.56706293  0.80102187  1  0  -0.085194  0  3.684576  0  0  -0.111286  0  3.943013  0  0  -0.111252  0  3.960078  0  0  -0.069449  -0.110815  0  3.930627  0
C  C56  1  0.29222924  0.92208974  0.24880602  1  0  -0.067123  0  3.708964  0  0  -0.085689  0  3.955984  0  0  -0.08802  0  3.977708  0  0  -0.076988  -0.084128  0  3.941722  0
C  C57  1  0.20780875  0.42208749  0.25119765  1  0  -0.06727  0  3.709472  0  0  -0.085991  0  3.95669  0  0  -0.088335  0  3.97833  0  0  -0.077123  -0.08442  0  3.942345  0
C  C58  1  0.70777999  0.07789629  0.75119420  1  0  -0.067149  0  3.708966  0  0  -0.085777  0  3.956057  0  0  -0.088109  0  3.977696  0  0  -0.076994  -0.084221  0  3.941708  0
C  C59  1  0.79220213  0.57793242  0.74880424  1  0  -0.067153  0  3.709373  0  0  -0.08586  0  3.95649  0  0  -0.088192  0  3.978195  0  0  -0.077111  -0.084286  0  3.942221  0
C  C60  1  0.27211166  0.98723228  0.14704888  1  0  0.6373  0  3.948011  0  0  0.585814  0  4.251092  0  0  0.618723  0  4.243783  0  0  0.194477  0.563678  0  4.254982  0
C  C61  1  0.22789070  0.48721722  0.35295268  1  0  0.637514  0  3.947417  0  0  0.586096  0  4.250346  0  0  0.619009  0  4.243058  0  0  0.194622  0.563955  0  4.254283  0
C  C62  1  0.72787423  0.01275798  0.85295016  1  0  0.637437  0  3.947912  0  0  0.585886  0  4.251035  0  0  0.618796  0  4.243754  0  0  0.194474  0.563747  0  4.254959  0
C  C63  1  0.77209683  0.51278151  0.64704925  1  0  0.637514  0  3.947539  0  0  0.586084  0  4.250504  0  0  0.618997  0  4.243181  0  0  0.194554  0.563948  0  4.254405  0
N  N64  1  0.72500775  0.02563763  0.36102671  1  0  0.482206  0  3.932858  0  0  0.5523  0  4.171232  0  0  0.554815  0  4.208296  0  0  0.059047  0.537378  0  4.167532  0
N  N65  1  0.77502132  0.52560004  0.13897170  1  0  0.482422  0  3.932746  0  0  0.53359  0  4.201031  0  0  0.554552  0  4.208794  0  0  0.059224  0.537236  0  4.167808  0
N  N66  1  0.27500984  0.97438793  0.63897160  1  0  0.482258  0  3.932727  0  0  0.533841  0  4.200498  0  0  0.554821  0  4.208218  0  0  0.059143  0.537272  0  4.167593  0
N  N67  1  0.22497455  0.47439022  0.86103036  1  0  0.48272  0  3.9327  0  0  0.552263  0  4.171735  0  0  0.554851  0  4.208757  0  0  0.059253  0.537342  0  4.168029  0
O  O68  1  0.26989371  0.50001733  0.56456908  1  0  -0.886  0  1.832638  0  0  -0.829052  0  1.997809  0  0  -0.849531  0  1.965987  0  0  -0.65956  -0.814371  0  2.019938  0
O  O69  1  0.23007694  0.00002862  0.93543473  1  0  -0.885965  0  1.83274  0  0  -0.828994  0  1.997863  0  0  -0.849482  0  1.96609  0  0  -0.659569  -0.814324  0  2.020001  0
O  O70  1  0.73010554  0.49997434  0.43542894  1  0  -0.886087  0  1.83257  0  0  -0.829139  0  1.997713  0  0  -0.849618  0  1.965908  0  0  -0.65954  -0.814463  0  2.019853  0
O  O71  1  0.76991560  0.99997435  0.06456687  1  0  -0.88588  0  1.832839  0  0  -0.828937  0  1.997982  0  0  -0.849415  0  1.966179  0  0  -0.659589  -0.814263  0  2.020103  0
O  O72  1  0.76242809  0.23516589  0.51463409  1  0  -0.956866  0  1.806477  0  0  -0.908916  0  1.975228  0  0  -0.928764  0  1.94504  0  0  -0.787388  -0.894548  0  1.996197  0
O  O73  1  0.73756912  0.73515540  0.98536937  1  0  -0.956916  0  1.806541  0  0  -0.909069  0  1.975165  0  0  -0.928907  0  1.944952  0  0  -0.78743  -0.894701  0  1.99613  0
O  O74  1  0.23757782  0.76483850  0.48536485  1  0  -0.956927  0  1.806383  0  0  -0.908976  0  1.975121  0  0  -0.928823  0  1.944916  0  0  -0.787389  -0.894604  0  1.996096  0
O  O75  1  0.26242842  0.26484898  0.01463231  1  0  -0.956895  0  1.806518  0  0  -0.90905  0  1.975152  0  0  -0.928884  0  1.944929  0  0  -0.787446  -0.89468  0  1.996124  0
O  O76  1  0.37073326  0.05820282  0.10692687  1  0  -0.682243  0  2.030627  0  0  -0.619365  0  2.25409  0  0  -0.64491  0  2.242891  0  0  -0.354179  -0.601494  0  2.261217  0
O  O77  1  0.12929495  0.55821113  0.39307460  1  0  -0.682246  0  2.030457  0  0  -0.619322  0  2.253865  0  0  -0.644865  0  2.242684  0  0  -0.354114  -0.601456  0  2.261017  0
O  O78  1  0.62925763  0.94179309  0.89307265  1  0  -0.682247  0  2.030628  0  0  -0.619353  0  2.254099  0  0  -0.644897  0  2.24292  0  0  -0.354116  -0.601491  0  2.261249  0
O  O79  1  0.87070095  0.44179466  0.60692460  1  0  -0.682323  0  2.030477  0  0  -0.619421  0  2.253905  0  0  -0.644965  0  2.242705  0  0  -0.354126  -0.601554  0  2.261038  0
O  O80  1  0.07823073  0.91683495  0.14408555  1  0  -0.634298  0  1.967221  0  0  -0.585227  0  2.194496  0  0  -0.610667  0  2.188014  0  0  -0.338848  -0.567397  0  2.198425  0
O  O81  1  0.42176064  0.41677975  0.35591581  1  0  -0.634524  0  1.966863  0  0  -0.585519  0  2.194229  0  0  -0.610949  0  2.187689  0  0  -0.339098  -0.56769  0  2.198104  0
O  O82  1  0.92176016  0.08316237  0.85591398  1  0  -0.634339  0  1.966951  0  0  -0.585268  0  2.194336  0  0  -0.6107  0  2.187803  0  0  -0.338879  -0.567429  0  2.198208  0
O  O83  1  0.57823022  0.58320063  0.64408617  1  0  -0.634417  0  1.966927  0  0  -0.58536  0  2.194164  0  0  -0.610796  0  2.187672  0  0  -0.339005  -0.567539  0  2.198099  0
O  O84  1  0.62124492  0.97578371  0.40113833  1  0  -0.385069  0  1.791243  0  0  -0.383871  0  1.994906  0  0  -0.389377  0  1.99923  0  0  -0.177465  -0.375699  0  1.998809  0
O  O85  1  0.87874806  0.47572274  0.09886222  1  0  -0.385043  0  1.791227  0  0  -0.377289  0  2.004129  0  0  -0.389165  0  1.999401  0  0  -0.177519  -0.375527  0  1.998918  0
O  O86  1  0.37875260  0.02424045  0.59886539  1  0  -0.384915  0  1.791572  0  0  -0.377305  0  2.004306  0  0  -0.38918  0  1.999574  0  0  -0.177336  -0.375476  0  1.999199  0
O  O87  1  0.12122778  0.52427317  0.90114157  1  0  -0.385283  0  1.790901  0  0  -0.383875  0  1.994783  0  0  -0.389406  0  1.999072  0  0  -0.177607  -0.375699  0  1.998682  0
O  O88  1  0.92051911  0.08429187  0.36467089  1  0  -0.369362  0  1.761857  0  0  -0.362902  0  1.953388  0  0  -0.368489  0  1.959196  0  0  -0.151449  -0.35463  0  1.956243  0
O  O89  1  0.57949936  0.58426485  0.13532873  1  0  -0.369452  0  1.761546  0  0  -0.356487  0  1.962328  0  0  -0.368445  0  1.959081  0  0  -0.151521  -0.354617  0  1.956049  0
O  O90  1  0.07946845  0.91574076  0.63532858  1  0  -0.369475  0  1.761385  0  0  -0.356645  0  1.961967  0  0  -0.368616  0  1.958731  0  0  -0.151582  -0.354695  0  1.955789  0
O  O91  1  0.42047649  0.41572258  0.86467383  1  0  -0.369519  0  1.762011  0  0  -0.362801  0  1.953655  0  0  -0.368426  0  1.959487  0  0  -0.151495  -0.35453  0  1.956509  0
