# generated using pymatgen
data_SnH26C18(NCl)2
_symmetry_space_group_name_H-M   'P 1'
_cell_length_a   9.17301795
_cell_length_b   9.26399212
_cell_length_c   9.49953379
_cell_angle_alpha   86.37473713
_cell_angle_beta   60.18190583
_cell_angle_gamma   80.57204876
_symmetry_Int_Tables_number   1
_chemical_formula_structural   SnH26C18(NCl)2
_chemical_formula_sum   'Sn1 H26 C18 N2 Cl2'
_cell_volume   690.76729965
_cell_formula_units_Z   1
loop_
 _symmetry_equiv_pos_site_id
 _symmetry_equiv_pos_as_xyz
  1  'x, y, z'
loop_
 _atom_site_type_symbol
 _atom_site_label
 _atom_site_symmetry_multiplicity
 _atom_site_fract_x
 _atom_site_fract_y
 _atom_site_fract_z
 _atom_site_occupancy
 _atom_site_hle17_bader_spin_density
 _atom_site_hle17_ddec_charge
 _atom_site_hle17_ddec_spin_density
 _atom_site_hle17_ddec_sum_bond_order
 _atom_site_hle17_magmom
 _atom_site_hse06_10hf_bader_spin_density
 _atom_site_hse06_10hf_ddec_charge
 _atom_site_hse06_10hf_ddec_spin_density
 _atom_site_hse06_10hf_ddec_sum_bond_order
 _atom_site_hse06_10hf_magmom
 _atom_site_hse06_bader_spin_density
 _atom_site_hse06_ddec_charge
 _atom_site_hse06_ddec_spin_density
 _atom_site_hse06_ddec_sum_bond_order
 _atom_site_hse06_magmom
 _atom_site_pbe_bader_spin_density
 _atom_site_pbe_cm5_charge
 _atom_site_pbe_ddec_charge
 _atom_site_pbe_ddec_spin_density
 _atom_site_pbe_ddec_sum_bond_order
 _atom_site_pbe_magmom
Sn  Sn0  1  0.31596426  0.07598617  0.58916605  1  0  1.178694  0  2.915522  0  0  1.012743  0  3.410852  0  0  1.054956  0  3.399683  0  0  0.50121  0.984351  0  3.417709  0
H  H1  1  0.43039894  0.72596801  0.50615608  1  0  0.082928  0  0.942061  0  0  0.09087  0  1.004576  0  0  0.093706  0  1.001972  0  0  0.114266  0.088774  0  1.006505  0
H  H2  1  0.64034255  0.51225853  0.49211538  1  0  0.113609  0  0.973393  0  0  0.121476  0  1.036673  0  0  0.125116  0  1.034905  0  0  0.102213  0.118886  0  1.038049  0
H  H3  1  0.85242276  0.80522294  0.65678872  1  0  0.116116  0  0.989356  0  0  0.122881  0  1.054894  0  0  0.126516  0  1.053077  0  0  0.097446  0.120277  0  1.056312  0
H  H4  1  0.63679180  0.00567365  0.65684935  1  0  0.08256  0  0.948408  0  0  0.090949  0  1.011666  0  0  0.093483  0  1.009537  0  0  0.114628  0.089048  0  1.013272  0
H  H5  1  0.26320048  0.43275297  0.58400081  1  0  0.082625  0  0.96201  0  0  0.088284  0  1.028902  0  0  0.091461  0  1.025736  0  0  0.109748  0.085963  0  1.031161  0
H  H6  1  0.07006872  0.64806817  0.56982200  1  0  0.114981  0  0.996125  0  0  0.121147  0  1.062673  0  0  0.124906  0  1.060675  0  0  0.095373  0.118464  0  1.064187  0
H  H7  1  0.75454740  0.34304243  0.57559162  1  0  0.10956  0  0.995495  0  0  0.116787  0  1.061481  0  0  0.120019  0  1.060246  0  0  0.100024  0.114478  0  1.062466  0
H  H8  1  0.96186894  0.14258891  0.59076024  1  0  0.080051  0  0.960056  0  0  0.086367  0  1.027343  0  0  0.089177  0  1.024784  0  0  0.112013  0.084305  0  1.029192  0
H  H9  1  0.24266769  0.96921905  0.87636456  1  0  0.110113  0  0.968583  0  0  0.123569  0  1.028216  0  0  0.126191  0  1.029221  0  0  0.087792  0.121724  0  1.027598  0
H  H10  1  0.27724831  0.15360100  0.87552849  1  0  0.11336  0  0.97974  0  0  0.127658  0  1.039963  0  0  0.12984  0  1.041697  0  0  0.086553  0.126108  0  1.038865  0
H  H11  1  0.98158050  0.24816404  0.94620944  1  0  0.054573  0  0.925199  0  0  0.075832  0  0.979704  0  0  0.076378  0  0.980294  0  0  0.082825  0.075357  0  0.979393  0
H  H12  1  0.95417068  0.08006002  0.89062952  1  0  0.053466  0  0.97168  0  0  0.067346  0  1.043242  0  0  0.067808  0  1.043609  0  0  0.076772  0.066931  0  1.043048  0
H  H13  1  0.96590339  0.95739322  0.12360068  1  0  0.05249  0  0.920805  0  0  0.073408  0  0.973886  0  0  0.074238  0  0.974039  0  0  0.083139  0.07276  0  0.973857  0
H  H14  1  0.79789599  0.10554408  0.18420378  1  0  0.058684  0  0.950037  0  0  0.077649  0  1.011244  0  0  0.077728  0  1.012621  0  0  0.08414  0.077531  0  1.01034  0
H  H15  1  0.93832105  0.10498159  0.34943342  1  0  0.082103  0  0.973149  0  0  0.100517  0  1.042182  0  0  0.101171  0  1.043141  0  0  0.076928  0.100006  0  1.041534  0
H  H16  1  0.96779930  0.26437667  0.23077957  1  0  0.083501  0  0.950562  0  0  0.104551  0  1.01184  0  0  0.105636  0  1.012316  0  0  0.077897  0.103734  0  1.011558  0
H  H17  1  0.13753353  0.11618969  0.17326055  1  0  0.087495  0  0.964961  0  0  0.111164  0  1.02412  0  0  0.111975  0  1.025006  0  0  0.08054  0.110523  0  1.023553  0
H  H18  1  0.54396403  0.97055982  0.29250156  1  0  0.109423  0  0.974212  0  0  0.123392  0  1.035412  0  0  0.125949  0  1.036514  0  0  0.087677  0.121589  0  1.034715  0
H  H19  1  0.33512001  0.97928621  0.32156745  1  0  0.112069  0  0.98036  0  0  0.125463  0  1.041079  0  0  0.12822  0  1.041629  0  0  0.082529  0.123485  0  1.040805  0
H  H20  1  0.52929666  0.24241702  0.24405424  1  0  0.057629  0  0.950704  0  0  0.074186  0  1.01504  0  0  0.075089  0  1.014856  0  0  0.079641  0.073444  0  1.015281  0
H  H21  1  0.32447705  0.25134458  0.26856371  1  0  0.053532  0  0.943479  0  0  0.072607  0  1.003266  0  0  0.072661  0  1.00495  0  0  0.082879  0.072489  0  1.002189  0
H  H22  1  0.64615232  0.06944177  0.00424431  1  0  0.055916  0  0.931446  0  0  0.077859  0  0.986261  0  0  0.078234  0  0.987012  0  0  0.084907  0.077503  0  0.985807  0
H  H23  1  0.43986260  0.07816202  0.03278124  1  0  0.04751  0  0.941874  0  0  0.067074  0  1.002476  0  0  0.067597  0  1.002882  0  0  0.080843  0.066601  0  1.002295  0
H  H24  1  0.58771753  0.25161109  0.81860812  1  0  0.082846  0  0.997395  0  0  0.098666  0  1.070927  0  0  0.099492  0  1.071604  0  0  0.072567  0.097997  0  1.070534  0
H  H25  1  0.64120138  0.33670095  0.94621379  1  0  0.087183  0  0.94958  0  0  0.108969  0  1.008514  0  0  0.110086  0  1.00921  0  0  0.079798  0.108148  0  1.008045  0
H  H26  1  0.42642953  0.35521470  0.99131294  1  0  0.08823  0  0.943492  0  0  0.111046  0  1.000492  0  0  0.112504  0  1.000431  0  0  0.08168  0.109974  0  1.000568  0
C  C27  1  0.52850259  0.73774817  0.53602129  1  0  0.128816  0  3.708129  0  0  0.097348  0  3.956924  0  0  0.104055  0  3.975078  0  0  0.05358  0.093075  0  3.944557  0
C  C28  1  0.64602460  0.61903598  0.52966621  1  0  -0.149505  0  3.683445  0  0  -0.165809  0  3.924664  0  0  -0.173252  0  3.945444  0  0  -0.076436  -0.161008  0  3.910641  0
C  C29  1  0.76712015  0.63895753  0.57341878  1  0  0.102603  0  3.735892  0  0  0.113998  0  3.965009  0  0  0.117741  0  3.986884  0  0  0.017908  0.111693  0  3.949988  0
C  C30  1  0.76309704  0.78083487  0.62075663  1  0  -0.149178  0  3.679234  0  0  -0.165402  0  3.919344  0  0  -0.172909  0  3.94  0  0  -0.077092  -0.160556  0  3.90541  0
C  C31  1  0.64228429  0.89383740  0.62249560  1  0  0.133307  0  3.703307  0  0  0.102183  0  3.951316  0  0  0.10907  0  3.969361  0  0  0.055466  0.097822  0  3.938998  0
C  C32  1  0.14751412  0.41953192  0.58324997  1  0  0.126649  0  3.701761  0  0  0.094414  0  3.949854  0  0  0.101149  0  3.96759  0  0  0.053219  0.090129  0  3.937763  0
C  C33  1  0.03861892  0.53858663  0.57494326  1  0  -0.151187  0  3.683677  0  0  -0.166831  0  3.923678  0  0  -0.174352  0  3.944285  0  0  -0.078164  -0.161968  0  3.909807  0
C  C34  1  0.89156332  0.51540945  0.57375164  1  0  0.098189  0  3.740245  0  0  0.10987  0  3.968941  0  0  0.113748  0  3.990345  0  0  0.016782  0.107454  0  3.954265  0
C  C35  1  0.86512638  0.37009517  0.57679442  1  0  -0.14638  0  3.692432  0  0  -0.163662  0  3.93788  0  0  -0.171038  0  3.958904  0  0  -0.073044  -0.158896  0  3.923744  0
C  C36  1  0.97968637  0.25689550  0.58561256  1  0  0.13329  0  3.684651  0  0  0.101155  0  3.934665  0  0  0.107916  0  3.952619  0  0  0.058919  0.096848  0  3.922452  0
C  C37  1  0.20672003  0.08306250  0.85132925  1  0  -0.44367  0  3.593859  0  0  -0.460836  0  3.862412  0  0  -0.474095  0  3.882348  0  0  -0.233838  -0.451864  0  3.8486  0
C  C38  1  0.01425625  0.12834921  0.94800521  1  0  -0.059917  0  3.73687  0  0  -0.099664  0  3.999306  0  0  -0.098933  0  4.016603  0  0  -0.17326  -0.099915  0  3.987354  0
C  C39  1  0.93728915  0.07792450  0.12446744  1  0  -0.060636  0  3.692909  0  0  -0.090035  0  3.94924  0  0  -0.090952  0  3.964547  0  0  -0.168004  -0.089266  0  3.938586  0
C  C40  1  0.99917980  0.14422844  0.22452823  1  0  -0.280954  0  3.735314  0  0  -0.353261  0  3.98061  0  0  -0.355738  0  3.99302  0  0  -0.252489  -0.35134  0  3.972043  0
C  C41  1  0.42218294  0.04244113  0.32976568  1  0  -0.447357  0  3.615388  0  0  -0.466851  0  3.886144  0  0  -0.480084  0  3.905904  0  0  -0.236185  -0.457895  0  3.872579  0
C  C42  1  0.44681638  0.17891651  0.22803268  1  0  -0.065434  0  3.762091  0  0  -0.104444  0  4.025469  0  0  -0.104021  0  4.043152  0  0  -0.174383  -0.104532  0  4.01329  0
C  C43  1  0.52322660  0.14182723  0.04757177  1  0  -0.058351  0  3.702552  0  0  -0.089475  0  3.961635  0  0  -0.090481  0  3.977432  0  0  -0.16923  -0.088614  0  3.95061  0
C  C44  1  0.54643023  0.27849707  0.94502982  1  0  -0.289882  0  3.748131  0  0  -0.361828  0  3.994428  0  0  -0.364548  0  4.006267  0  0  -0.252599  -0.359721  0  3.986201  0
N  N45  1  0.52636603  0.87314957  0.58138380  1  0  -0.315931  0  3.268918  0  0  -0.234509  0  3.50925  0  0  -0.252283  0  3.531666  0  0  -0.289017  -0.222647  0  3.493897  0
N  N46  1  0.11819137  0.28078720  0.58977244  1  0  -0.308111  0  3.266845  0  0  -0.222047  0  3.504515  0  0  -0.240045  0  3.527462  0  0  -0.287396  -0.210008  0  3.488742  0
Cl  Cl47  1  0.52733060  0.25139463  0.54303981  1  0  -0.560011  0  0.864567  0  0  -0.50929  0  1.093759  0  0  -0.521507  0  1.078011  0  0  -0.251071  -0.500512  0  1.104423  0
Cl  Cl48  1  0.11011984  0.88965987  0.63456247  1  0  -0.587597  0  0.845407  0  0  -0.537484  0  1.061363  0  0  -0.549578  0  1.044393  0  0  -0.279697  -0.528731  0  1.072873  0
