# generated using pymatgen
data_CuH8C10Se2(NO2)2
_symmetry_space_group_name_H-M   'P 1'
_cell_length_a   7.63449224
_cell_length_b   8.06579680
_cell_length_c   10.53235629
_cell_angle_alpha   90.00073116
_cell_angle_beta   89.99978343
_cell_angle_gamma   112.25802037
_symmetry_Int_Tables_number   1
_chemical_formula_structural   CuH8C10Se2(NO2)2
_chemical_formula_sum   'Cu2 H16 C20 Se4 N4 O8'
_cell_volume   600.23805993
_cell_formula_units_Z   2
loop_
 _symmetry_equiv_pos_site_id
 _symmetry_equiv_pos_as_xyz
  1  'x, y, z'
loop_
 _atom_site_type_symbol
 _atom_site_label
 _atom_site_symmetry_multiplicity
 _atom_site_fract_x
 _atom_site_fract_y
 _atom_site_fract_z
 _atom_site_occupancy
 _atom_site_hle17_ddec_charge
 _atom_site_hle17_ddec_spin_density
 _atom_site_hle17_ddec_sum_bond_order
 _atom_site_hle17_magmom
 _atom_site_hse06_10hf_ddec_charge
 _atom_site_hse06_10hf_ddec_spin_density
 _atom_site_hse06_10hf_ddec_sum_bond_order
 _atom_site_hse06_10hf_magmom
 _atom_site_hse06_ddec_charge
 _atom_site_hse06_ddec_spin_density
 _atom_site_hse06_ddec_sum_bond_order
 _atom_site_hse06_magmom
 _atom_site_pbe_cm5_charge
 _atom_site_pbe_ddec_charge
 _atom_site_pbe_ddec_spin_density
 _atom_site_pbe_ddec_sum_bond_order
 _atom_site_pbe_magmom
Cu  Cu0  1  0.49999949  0.99999756  0.50000055  1  0.878219  0.744818  1.917025  0.525  0.863076  0.816618  2.310473  0.639  0.951101  0.892237  2.235942  0.727  0.711573  0.807676  0.755967  2.363587  0.576
Cu  Cu1  1  0.49999764  0.50000287  0.00000075  1  0.878289  -0.744823  1.916772  -0.525  0.86311  -0.816612  2.31032  -0.639  0.951181  -0.892223  2.235653  -0.727  0.711593  0.807689  -0.755957  2.36344  -0.576
H  H2  1  0.11497216  0.93627337  0.58639935  1  0.092101  0.001003  0.97662  0.002  0.098695  0.000784  1.04289  0.002  0.101063  0.000536  1.041228  0.001  0.114766  0.096793  0.001006  1.044399  0.002
H  H3  1  0.88502703  0.56372989  0.08639328  1  0.092237  -0.001005  0.97661  -0.002  0.098813  -0.000785  1.042872  -0.002  0.101186  -0.000537  1.041194  -0.001  0.11482  0.096912  -0.001007  1.044382  -0.002
H  H4  1  0.88502979  0.06372220  0.41359964  1  0.092086  0.001004  0.976648  0.002  0.09868  0.000784  1.042917  0.002  0.101045  0.000536  1.041264  0.001  0.114767  0.096777  0.001006  1.044429  0.002
H  H5  1  0.11496882  0.43627646  0.91360381  1  0.09222  -0.001003  0.976541  -0.002  0.098772  -0.000784  1.042835  -0.002  0.101139  -0.000536  1.041181  -0.001  0.114815  0.096867  -0.001007  1.044342  -0.002
H  H6  1  0.03032857  0.48419630  0.25427498  1  0.111514  0.000799  0.942386  0.001  0.122307  0.000686  1.000326  0.001  0.124994  0.000464  1.000498  0.001  0.10834  0.120367  0.000888  1.000347  0.001
H  H7  1  0.96965747  0.01580504  0.75426473  1  0.11146  -0.0008  0.942243  -0.001  0.122215  -0.000686  1.000271  -0.001  0.124907  -0.000464  1.000438  -0.001  0.10827  0.120276  -0.000888  1.000289  -0.001
H  H8  1  0.96967753  0.51579655  0.74572496  1  0.111588  0.000801  0.942375  0.001  0.122349  0.000686  1.000348  0.001  0.125037  0.000464  1.000515  0.001  0.108403  0.120409  0.000887  1.000363  0.001
H  H9  1  0.03034514  0.98419858  0.24573426  1  0.111488  -0.000797  0.942234  -0.001  0.122237  -0.000686  1.000265  -0.001  0.124927  -0.000464  1.000433  -0.001  0.108264  0.120294  -0.000888  1.000285  -0.001
H  H10  1  0.74005311  0.50560694  0.35239923  1  0.100131  -5.1e-05  0.980522  0.0  0.102891  -0.000281  1.055272  0.0  0.106698  -0.000209  1.052405  0.0  0.100547  0.099982  -0.000336  1.057663  0.0
H  H11  1  0.25993040  0.99439297  0.85238548  1  0.100177  5e-05  0.980537  0.0  0.102932  0.000281  1.055298  0.0  0.106738  0.000209  1.052417  0.0  0.100505  0.099973  0.000336  1.057726  0.0
H  H12  1  0.25995244  0.49438457  0.64760357  1  0.10021  -5.3e-05  0.980411  0.0  0.102943  -0.000281  1.055187  0.0  0.106751  -0.000209  1.052313  0.0  0.100566  0.100027  -0.000336  1.057575  0.0
H  H13  1  0.74006905  0.00560932  0.14761447  1  0.100196  4.9e-05  0.980502  0.0  0.102937  0.000281  1.055277  0.0  0.106743  0.000209  1.052398  0.0  0.100517  0.099999  0.000336  1.057688  0.0
H  H14  1  0.78286460  0.73568015  0.52658734  1  0.127344  0.000112  0.982076  0.0  0.1332  0.000183  1.048441  0.0  0.137481  0.000143  1.046017  0.0  0.102933  0.129878  0.000214  1.050786  0.0
H  H15  1  0.21712726  0.76433017  0.02657489  1  0.127356  -0.000111  0.9822  0.0  0.13316  -0.000183  1.048619  0.0  0.137444  -0.000144  1.04619  0.0  0.102908  0.129841  -0.000214  1.050961  0.0
H  H16  1  0.21713801  0.26430735  0.47341450  1  0.127305  0.000112  0.982132  0.0  0.133122  0.000183  1.048533  0.0  0.1374  0.000143  1.046118  0.0  0.10291  0.1298  0.000214  1.050875  0.0
H  H17  1  0.78286304  0.23567218  0.97342505  1  0.12734  -0.000112  0.982177  0.0  0.133141  -0.000183  1.0486  0.0  0.137421  -0.000143  1.046179  0.0  0.102906  0.129822  -0.000214  1.050941  0.0
C  C18  1  0.21843397  0.69901086  0.36907438  1  0.024517  -0.002684  3.659102  -0.003  0.028945  0.002088  3.929696  0.002  0.034397  0.000293  3.954063  0.0  0.068744  0.025522  0.003654  3.913895  0.004
C  C19  1  0.78155796  0.80099063  0.86906564  1  0.024323  0.002675  3.659329  0.003  0.02891  -0.002088  3.929747  -0.002  0.034367  -0.000293  3.954111  0.0  0.068803  0.025488  -0.003656  3.913944  -0.004
C  C20  1  0.78157059  0.30098469  0.63092557  1  0.024518  -0.002681  3.659222  -0.003  0.029028  0.002089  3.929681  0.002  0.034481  0.000293  3.954051  0.0  0.068789  0.025608  0.003654  3.913878  0.004
C  C21  1  0.21843866  0.19901437  0.13093241  1  0.024396  0.002674  3.659145  0.003  0.028918  -0.002089  3.929655  -0.002  0.034372  -0.000293  3.95402  0.0  0.068771  0.0255  -0.003655  3.913849  -0.004
C  C22  1  0.08595052  0.83346559  0.51373708  1  0.133602  -0.007321  3.645744  -0.008  0.108034  -0.001074  3.895294  -0.002  0.116191  -0.001906  3.91378  -0.003  0.045169  0.102733  -0.000384  3.883288  -0.002
C  C23  1  0.91404033  0.66654854  0.01373194  1  0.133251  0.007321  3.646338  0.008  0.107761  0.001069  3.895797  0.002  0.115922  0.001906  3.914287  0.003  0.045014  0.102458  0.000383  3.883787  0.002
C  C24  1  0.91404643  0.16652731  0.48626381  1  0.133568  -0.007322  3.64573  -0.008  0.107991  -0.001074  3.895311  -0.002  0.116153  -0.001907  3.91378  -0.003  0.045148  0.10269  -0.000384  3.88331  -0.002
C  C25  1  0.08595553  0.33345781  0.98626610  1  0.133308  0.007316  3.645993  0.008  0.10783  0.001071  3.895519  0.002  0.115991  0.001905  3.91399  0.003  0.045039  0.102533  0.000383  3.883506  0.002
C  C26  1  0.04157214  0.58289345  0.32774430  1  -0.116433  0.006553  3.75035  0.006  -0.129218  0.002082  3.993598  0.002  -0.135613  0.002132  4.015702  0.002  -0.083036  -0.124943  0.002105  3.978835  0.002
C  C27  1  0.95841632  0.91710868  0.82774185  1  -0.116209  -0.006545  3.750599  -0.006  -0.129016  -0.002082  3.993842  -0.002  -0.135414  -0.002133  4.015932  -0.002  -0.082977  -0.124741  -0.002104  3.979059  -0.002
C  C28  1  0.95843504  0.41710207  0.67225470  1  -0.11655  0.00654  3.750456  0.006  -0.129341  0.002081  3.99367  0.002  -0.135733  0.002134  4.015768  0.002  -0.083116  -0.125067  0.002105  3.978897  0.002
C  C29  1  0.04158313  0.08289361  0.17225810  1  -0.116342  -0.006554  3.750441  -0.006  -0.129106  -0.002082  3.993688  -0.002  -0.135501  -0.002132  4.015777  -0.002  -0.082984  -0.124833  -0.002104  3.978914  -0.002
C  C30  1  0.88063788  0.59494220  0.38310388  1  0.00339  -0.007807  3.683058  -0.007  -0.014055  -0.002054  3.928278  -0.002  -0.009785  -0.002319  3.944462  -0.002  -0.066573  -0.017031  -0.001804  3.917775  -0.002
C  C31  1  0.11935082  0.90506760  0.88309063  1  0.003181  0.00781  3.683086  0.007  -0.014247  0.002055  3.928213  0.002  -0.010005  0.002321  3.944478  0.002  -0.066629  -0.017193  0.001804  3.917769  0.002
C  C32  1  0.11936767  0.40504931  0.61689417  1  0.003224  -0.007791  3.683106  -0.007  -0.014157  -0.002053  3.928265  -0.002  -0.009893  -0.00232  3.944464  -0.002  -0.066674  -0.017151  -0.001803  3.917814  -0.002
C  C33  1  0.88064841  0.09493737  0.11690646  1  0.003303  0.007816  3.682955  0.007  -0.01413  0.002055  3.928125  0.002  -0.009882  0.002321  3.944372  0.002  -0.066557  -0.017097  0.001804  3.917679  0.002
C  C34  1  0.90372148  0.72184371  0.47860732  1  -0.130507  0.009609  3.709854  0.01  -0.141399  0.003598  3.956733  0.004  -0.14846  0.003197  3.975914  0.004  -0.08502  -0.137176  0.004008  3.944688  0.005
C  C35  1  0.09626800  0.77815297  0.97860238  1  -0.130326  -0.009612  3.709732  -0.01  -0.141199  -0.003597  3.956645  -0.004  -0.148256  -0.003199  3.975804  -0.004  -0.08489  -0.136975  -0.00401  3.944574  -0.005
C  C36  1  0.09628091  0.27814648  0.52139358  1  -0.130258  0.009601  3.709814  0.01  -0.141125  0.003599  3.956702  0.004  -0.148185  0.003198  3.975883  0.004  -0.084899  -0.136901  0.004008  3.94465  0.005
C  C37  1  0.90372622  0.22184935  0.02139661  1  -0.130418  -0.009611  3.709713  -0.01  -0.141274  -0.003599  3.956626  -0.004  -0.148336  -0.003198  3.975804  -0.004  -0.084956  -0.137048  -0.004009  3.944563  -0.005
Se  Se38  1  0.45835986  0.69200423  0.29855888  1  0.980301  0.003963  3.263604  0.002  0.938736  0.010107  3.725658  0.008  0.974146  0.007619  3.708642  0.006  0.532302  0.9121  0.012637  3.738731  0.009
Se  Se39  1  0.54162515  0.80799876  0.79856615  1  0.98022  -0.003956  3.263742  -0.002  0.938606  -0.010106  3.725775  -0.008  0.974019  -0.00762  3.708758  -0.006  0.5322  0.911968  -0.012637  3.738844  -0.009
Se  Se40  1  0.54164373  0.30799535  0.70143916  1  0.980221  0.003963  3.263726  0.002  0.938618  0.010105  3.72578  0.008  0.974028  0.00762  3.708764  0.006  0.532228  0.91198  0.012637  3.738848  0.009
Se  Se41  1  0.45837625  0.19201158  0.20143379  1  0.9802  -0.003958  3.263715  -0.002  0.938591  -0.010103  3.72577  -0.008  0.974002  -0.00762  3.708757  -0.006  0.532218  0.911957  -0.012636  3.738842  -0.009
N  N42  1  0.24107252  0.82210373  0.45950581  1  -0.300311  0.068543  3.394387  0.085  -0.253815  0.04613  3.678711  0.061  -0.283404  0.038021  3.703002  0.053  -0.347201  -0.235498  0.051129  3.664039  0.065
N  N43  1  0.75892029  0.67789126  0.95950446  1  -0.300165  -0.068543  3.394528  -0.085  -0.253772  -0.046131  3.678848  -0.061  -0.283367  -0.038023  3.703126  -0.053  -0.347149  -0.235445  -0.05113  3.664166  -0.065
N  N44  1  0.75892628  0.17789051  0.54049509  1  -0.300292  0.068538  3.394424  0.085  -0.253816  0.046128  3.678722  0.061  -0.283406  0.03802  3.703018  0.053  -0.347171  -0.235501  0.051128  3.664055  0.065
N  N45  1  0.24107687  0.32211507  0.04049548  1  -0.300188  -0.068539  3.394225  -0.085  -0.253786  -0.046128  3.678585  -0.061  -0.283377  -0.038021  3.702859  -0.053  -0.347171  -0.23546  -0.051127  3.663905  -0.065
O  O46  1  0.42889543  0.72230327  0.14267563  1  -0.732309  0.016232  1.689199  0.019  -0.715945  0.009664  1.984298  0.013  -0.743918  0.00635  1.970258  0.008  -0.416982  -0.694546  0.013059  1.993807  0.017
O  O47  1  0.57110030  0.77772113  0.64267966  1  -0.732242  -0.016225  1.689304  -0.019  -0.715914  -0.009665  1.984464  -0.013  -0.743881  -0.00635  1.970432  -0.008  -0.416914  -0.694504  -0.013058  1.993945  -0.017
O  O48  1  0.57110293  0.27769634  0.85732431  1  -0.732288  0.016232  1.689187  0.019  -0.715923  0.009665  1.984299  0.013  -0.743893  0.00635  1.970258  0.008  -0.416966  -0.694539  0.01306  1.993843  0.017
O  O49  1  0.42889687  0.22228521  0.35731839  1  -0.732276  -0.016219  1.689381  -0.019  -0.715916  -0.009663  1.984521  -0.013  -0.743882  -0.006348  1.970493  -0.008  -0.41691  -0.694514  -0.013056  1.994028  -0.017
O  O50  1  0.59863689  0.90208706  0.35825005  1  -0.732477  0.086079  1.834555  0.109  -0.709915  0.049976  2.154657  0.067  -0.749346  0.037544  2.141772  0.053  -0.429791  -0.682007  0.058064  2.164266  0.075
O  O51  1  0.40135829  0.59790616  0.85824998  1  -0.732416  -0.086084  1.834482  -0.109  -0.709843  -0.049978  2.154591  -0.067  -0.749282  -0.037547  2.141684  -0.053  -0.429742  -0.681933  -0.058069  2.164201  -0.075
O  O52  1  0.40136278  0.09791255  0.64174989  1  -0.732416  0.086075  1.834544  0.109  -0.709846  0.049975  2.154653  0.067  -0.749278  0.037544  2.141769  0.053  -0.42976  -0.681932  0.058063  2.164247  0.075
O  O53  1  0.59864497  0.40210551  0.14175376  1  -0.732359  -0.08608  1.834305  -0.109  -0.70979  -0.049978  2.154433  -0.067  -0.749225  -0.037547  2.141522  -0.053  -0.42976  -0.681886  -0.058066  2.164052  -0.075
