# generated using pymatgen
data_CuH5C6NO3
_symmetry_space_group_name_H-M   'P 1'
_cell_length_a   3.60227186
_cell_length_b   12.97533249
_cell_length_c   15.58795428
_cell_angle_alpha   89.99964864
_cell_angle_beta   89.99928880
_cell_angle_gamma   98.47869667
_symmetry_Int_Tables_number   1
_chemical_formula_structural   CuH5C6NO3
_chemical_formula_sum   'Cu4 H20 C24 N4 O12'
_cell_volume   720.62854983
_cell_formula_units_Z   4
loop_
 _symmetry_equiv_pos_site_id
 _symmetry_equiv_pos_as_xyz
  1  'x, y, z'
loop_
 _atom_site_type_symbol
 _atom_site_label
 _atom_site_symmetry_multiplicity
 _atom_site_fract_x
 _atom_site_fract_y
 _atom_site_fract_z
 _atom_site_occupancy
 _atom_site_hle17_ddec_charge
 _atom_site_hle17_ddec_spin_density
 _atom_site_hle17_ddec_sum_bond_order
 _atom_site_hle17_magmom
 _atom_site_hse06_10hf_ddec_charge
 _atom_site_hse06_10hf_ddec_spin_density
 _atom_site_hse06_10hf_ddec_sum_bond_order
 _atom_site_hse06_10hf_magmom
 _atom_site_hse06_ddec_charge
 _atom_site_hse06_ddec_spin_density
 _atom_site_hse06_ddec_sum_bond_order
 _atom_site_hse06_magmom
 _atom_site_pbe_cm5_charge
 _atom_site_pbe_ddec_charge
 _atom_site_pbe_ddec_spin_density
 _atom_site_pbe_ddec_sum_bond_order
 _atom_site_pbe_magmom
Cu  Cu0  1  0.74608842  0.50806780  0.92051024  1  0.969407  -0.658355  1.810729  -0.486  0.982585  -0.779567  2.20541  -0.635  1.07913  -0.865911  2.12785  -0.729  0.700012  0.919955  -0.672711  2.261037  -0.537
Cu  Cu1  1  0.24611344  0.00807604  0.57948551  1  0.969726  0.658449  1.810649  0.486  0.982635  0.779568  2.205441  0.635  1.079294  0.865915  2.127735  0.729  0.700044  0.920004  0.672715  2.261073  0.537
Cu  Cu2  1  0.25389050  0.49192833  0.07948537  1  0.969373  0.658304  1.810671  0.486  0.982618  0.779568  2.205303  0.635  1.079296  0.865905  2.127626  0.729  0.700033  0.919995  0.672724  2.26096  0.537
Cu  Cu3  1  0.75392677  0.99193197  0.42051266  1  0.969364  -0.658384  1.810842  -0.486  0.982448  -0.779566  2.205459  -0.635  1.079167  -0.865908  2.127717  -0.729  0.700019  0.919826  -0.672734  2.261135  -0.537
H  H4  1  0.67559586  0.35444650  0.01017191  1  0.392333  0.000339  0.92414  0.002  0.368635  0.000155  0.98573  0.002  0.382278  0.000286  0.967052  0.002  0.269737  0.358727  1.8e-05  0.999227  0.001
H  H5  1  0.17560944  0.85445711  0.48983156  1  0.391966  -0.000339  0.924591  -0.002  0.368303  -0.000155  0.986165  -0.002  0.381942  -0.000286  0.967499  -0.002  0.269616  0.358399  -1.8e-05  0.999657  -0.001
H  H6  1  0.32440545  0.64554426  0.98983139  1  0.392058  -0.000339  0.924453  -0.002  0.368435  -0.000156  0.98599  -0.002  0.382068  -0.000287  0.967322  -0.002  0.269683  0.358522  -1.9e-05  0.999492  -0.001
H  H7  1  0.82442204  0.14555009  0.51016597  1  0.392222  0.000339  0.924331  0.002  0.368636  0.000155  0.985727  0.002  0.382262  0.000286  0.967051  0.002  0.26974  0.358724  1.9e-05  0.999227  0.001
H  H8  1  0.83357524  0.73056068  0.89959274  1  0.096971  -0.000517  0.926036  -0.001  0.108348  -0.000473  0.981456  -0.001  0.111512  -0.000359  0.978087  -0.001  0.124226  0.105663  -0.000531  0.98437  -0.001
H  H9  1  0.33359283  0.23056714  0.60040609  1  0.096955  0.000516  0.925962  0.001  0.10831  0.000473  0.981423  0.001  0.111469  0.00036  0.978063  0.001  0.124213  0.105627  0.000531  0.984336  0.001
H  H10  1  0.16641593  0.26943782  0.10040735  1  0.097008  0.000516  0.925952  0.001  0.108353  0.000473  0.981419  0.001  0.111515  0.000359  0.978052  0.001  0.124235  0.10567  0.00053  0.984326  0.001
H  H11  1  0.66643639  0.76943539  0.39960042  1  0.09696  -0.000517  0.925911  -0.001  0.10825  -0.000473  0.981431  -0.001  0.111397  -0.000359  0.97807  -0.001  0.124245  0.105576  -0.00053  0.98433  -0.001
H  H12  1  0.66627799  0.85206246  0.78410609  1  0.109937  -0.000182  0.95127  0.0  0.121891  -0.000269  1.00809  0.0  0.125019  -0.000214  1.006908  0.0  0.110409  0.119635  -0.000282  1.009122  0.0
H  H13  1  0.16625583  0.35206147  0.71589522  1  0.109971  0.000183  0.951325  0.0  0.121944  0.000269  1.008116  0.0  0.125067  0.000214  1.006941  0.0  0.11042  0.119689  0.000282  1.009146  0.0
H  H14  1  0.33373214  0.14794078  0.21589914  1  0.109945  0.000183  0.951214  0.0  0.121915  0.000269  1.008018  0.0  0.125039  0.000214  1.006839  0.0  0.110417  0.119668  0.000281  1.009044  0.0
H  H15  1  0.83371587  0.64793696  0.28410680  1  0.110011  -0.000182  0.951257  0.0  0.121954  -0.000269  1.00807  0.0  0.125082  -0.000214  1.006888  0.0  0.110432  0.119706  -0.000281  1.009102  0.0
H  H16  1  0.50024656  0.59169439  0.61130499  1  0.118922  -0.00032  0.927724  0.0  0.130422  -0.000378  0.980569  0.0  0.134423  -0.000279  0.978594  0.0  0.114997  0.127535  -0.000426  0.982182  0.0
H  H17  1  0.00025987  0.09168646  0.88869367  1  0.118936  0.00032  0.927683  0.0  0.130407  0.000378  0.980555  0.0  0.134409  0.000278  0.978579  0.0  0.115003  0.12752  0.000426  0.982165  0.0
H  H18  1  0.49976645  0.40832053  0.38869318  1  0.11889  0.000319  0.927747  0.0  0.130347  0.000378  0.980641  0.0  0.134348  0.000278  0.978666  0.0  0.114962  0.127459  0.000427  0.982242  0.0
H  H19  1  0.99972702  0.90830892  0.11130578  1  0.118945  -0.000319  0.927666  0.0  0.130425  -0.000378  0.980534  0.0  0.134424  -0.000278  0.978562  0.0  0.114991  0.127531  -0.000426  0.982137  0.0
H  H20  1  0.67197697  0.47868406  0.73452066  1  0.082734  -0.000603  0.950861  -0.001  0.091636  -0.00059  1.015054  -0.001  0.093936  -0.000453  1.012868  -0.001  0.117735  0.08979  -0.000648  1.016914  -0.001
H  H21  1  0.17200312  0.97868671  0.76547229  1  0.082699  0.000602  0.950963  0.001  0.091613  0.00059  1.015149  0.001  0.093915  0.000453  1.012962  0.001  0.117757  0.089789  0.000648  1.016986  0.001
H  H22  1  0.32801850  0.52131758  0.26546981  1  0.08271  0.000602  0.950986  0.001  0.091646  0.00059  1.015143  0.001  0.093947  0.000453  1.012956  0.001  0.117751  0.089834  0.000648  1.016975  0.001
H  H23  1  0.82802181  0.02131269  0.23452909  1  0.082694  -0.000603  0.950911  -0.001  0.091595  -0.00059  1.0151  -0.001  0.093895  -0.000453  1.012914  -0.001  0.11772  0.089739  -0.000648  1.016974  -0.001
C  C24  1  0.75757681  0.70321192  0.83485833  1  0.123707  0.006786  3.677763  0.007  0.0987  0.00152  3.928745  0.002  0.107755  0.002194  3.94516  0.003  0.046949  0.092533  0.001022  3.918557  0.001
C  C25  1  0.25757630  0.20321616  0.66514024  1  0.123875  -0.006762  3.677616  -0.007  0.098852  -0.001521  3.928614  -0.002  0.107909  -0.002194  3.945054  -0.003  0.047021  0.092685  -0.001022  3.918424  -0.001
C  C26  1  0.24241677  0.29678581  0.16514433  1  0.12385  -0.006775  3.677686  -0.007  0.098839  -0.001521  3.92872  -0.002  0.107899  -0.002194  3.945148  -0.003  0.047029  0.09269  -0.001024  3.918531  -0.001
C  C27  1  0.74242524  0.79678083  0.33486242  1  0.123809  0.00679  3.677543  0.007  0.098865  0.00152  3.9286  0.002  0.107946  0.002194  3.944998  0.003  0.047014  0.092717  0.001023  3.918419  0.001
C  C28  1  0.66701073  0.76974528  0.77106674  1  -0.121425  -0.007531  3.715146  -0.008  -0.141754  -0.002859  3.958571  -0.004  -0.14732  -0.002993  3.97814  -0.004  -0.078297  -0.138329  -0.002546  3.945949  -0.003
C  C29  1  0.16700533  0.26974579  0.72893370  1  -0.121602  0.007506  3.715279  0.008  -0.141933  0.00286  3.958712  0.004  -0.147499  0.002995  3.978286  0.004  -0.078367  -0.13851  0.002546  3.946092  0.003
C  C30  1  0.33298158  0.23025556  0.22893656  1  -0.121558  0.00752  3.715344  0.008  -0.141902  0.00286  3.958801  0.004  -0.147465  0.002995  3.978367  0.004  -0.078343  -0.138472  0.002544  3.946184  0.003
C  C31  1  0.83297991  0.73025192  0.27106896  1  -0.121606  -0.007534  3.715313  -0.008  -0.141926  -0.00286  3.958732  -0.004  -0.147488  -0.002994  3.978287  -0.004  -0.07835  -0.138494  -0.002544  3.946125  -0.003
C  C32  1  0.56513714  0.72988850  0.68968044  1  0.002947  0.012545  3.705334  0.013  0.021577  0.005978  3.934049  0.007  0.020494  0.005201  3.953696  0.006  0.006009  0.021971  0.006265  3.921311  0.007
C  C33  1  0.06514183  0.22988361  0.81031796  1  0.003072  -0.012526  3.705258  -0.013  0.021754  -0.005979  3.933946  -0.007  0.020664  -0.005202  3.953601  -0.006  0.00614  0.022153  -0.006266  3.921207  -0.007
C  C34  1  0.43485857  0.27011935  0.31031837  1  0.003097  -0.012539  3.705574  -0.013  0.021753  -0.005979  3.93423  -0.007  0.020666  -0.005202  3.953879  -0.006  0.006171  0.02216  -0.006264  3.921515  -0.007
C  C35  1  0.93482837  0.77011171  0.18968214  1  0.003205  0.012551  3.7052  0.013  0.021835  0.005979  3.933918  0.007  0.020748  0.005203  3.953567  0.006  0.006124  0.022238  0.006265  3.921213  0.007
C  C36  1  0.57257406  0.62404641  0.67463960  1  -0.116984  -0.00703  3.708112  -0.007  -0.139123  -0.002483  3.954829  -0.003  -0.144922  -0.002661  3.975043  -0.003  -0.074402  -0.135479  -0.002243  3.94167  -0.003
C  C37  1  0.07258908  0.12404142  0.82535932  1  -0.117017  0.007009  3.708163  0.007  -0.139134  0.002483  3.954881  0.003  -0.14493  0.002661  3.97509  0.003  -0.074427  -0.135492  0.002242  3.941728  0.003
C  C38  1  0.42741962  0.37596299  0.32536050  1  -0.116931  0.007024  3.708329  0.007  -0.139052  0.002483  3.955053  0.003  -0.144847  0.002661  3.975264  0.003  -0.074384  -0.135395  0.002243  3.941901  0.003
C  C39  1  0.92740615  0.87595399  0.17463949  1  -0.116945  -0.007036  3.70796  -0.007  -0.139085  -0.002484  3.954697  -0.003  -0.14488  -0.002661  3.974907  -0.003  -0.074353  -0.135421  -0.002243  3.941532  -0.003
C  C40  1  0.66570867  0.56192922  0.74165353  1  0.119748  0.00627  3.694059  0.007  0.090086  0.001271  3.955902  0.002  0.097811  0.002  3.97469  0.003  0.046414  0.084925  0.000809  3.943945  0.002
C  C41  1  0.16572154  0.06193030  0.75834219  1  0.119767  -0.00625  3.6942  -0.007  0.090066  -0.001272  3.956048  -0.002  0.0978  -0.001999  3.974841  -0.003  0.046329  0.084888  -0.000809  3.944087  -0.002
C  C42  1  0.33429312  0.43807398  0.25834336  1  0.119664  -0.006263  3.694245  -0.007  0.089963  -0.001272  3.956101  -0.002  0.097696  -0.001999  3.974896  -0.003  0.046341  0.084783  -0.000809  3.944159  -0.002
C  C43  1  0.83428872  0.93806750  0.24165726  1  0.11963  0.006277  3.694128  0.007  0.089964  0.001272  3.955984  0.002  0.097692  0.002001  3.974787  0.003  0.046362  0.084823  0.00081  3.944048  0.002
C  C44  1  0.43728172  0.79882954  0.62082730  1  0.638955  -0.001915  3.893228  -0.004  0.593782  0.000273  4.193901  -0.001  0.629744  0.000193  4.186873  -0.001  0.208262  0.568845  0.000319  4.198486  -0.001
C  C45  1  0.93729607  0.29882178  0.87917662  1  0.63908  0.001911  3.893019  0.004  0.593826  -0.000273  4.193781  0.001  0.629789  -0.000195  4.186766  0.001  0.208295  0.568883  -0.00032  4.198369  0.001
C  C46  1  0.56270248  0.20117749  0.37917343  1  0.63883  0.001912  3.89321  0.004  0.593638  -0.000273  4.193894  0.001  0.629596  -0.000194  4.186898  0.001  0.208235  0.56869  -0.000318  4.198505  0.001
C  C47  1  0.06267893  0.70117200  0.12082475  1  0.638754  -0.001914  3.893267  -0.004  0.593531  0.000273  4.194015  -0.001  0.629492  0.000192  4.187002  -0.001  0.208133  0.568584  0.000318  4.19863  -0.001
N  N48  1  0.74961628  0.60039846  0.82061235  1  -0.294665  -0.051018  3.342359  -0.065  -0.249088  -0.04094  3.642134  -0.056  -0.27699  -0.035745  3.659736  -0.051  -0.355087  -0.23202  -0.040185  3.632485  -0.053
N  N49  1  0.24962652  0.10040337  0.67938356  1  -0.294824  0.051001  3.342458  0.065  -0.249136  0.040942  3.642142  0.056  -0.277088  0.035744  3.659777  0.051  -0.355117  -0.232068  0.040188  3.632501  0.053
N  N50  1  0.25037136  0.39959848  0.17938647  1  -0.294784  0.051005  3.342355  0.065  -0.249107  0.04094  3.642095  0.056  -0.277062  0.035745  3.659741  0.051  -0.355133  -0.232044  0.040174  3.632481  0.053
N  N51  1  0.75039601  0.89959680  0.32061718  1  -0.294725  -0.051019  3.342372  -0.065  -0.249039  -0.040942  3.642039  -0.056  -0.276989  -0.035745  3.659673  -0.051  -0.355107  -0.231975  -0.040174  3.632414  -0.053
O  O52  1  0.67360403  0.42871539  0.02684357  1  -0.898299  -0.020119  1.988413  -0.022  -0.919099  -0.009283  2.3189  -0.009  -0.990484  -0.007812  2.288384  -0.007  -0.59253  -0.86985  -0.006781  2.341089  -0.005
O  O53  1  0.17364556  0.92872470  0.47315247  1  -0.898063  0.020099  1.988882  0.022  -0.918673  0.009276  2.319202  0.009  -0.990145  0.007807  2.288786  0.007  -0.592368  -0.869427  0.006777  2.34139  0.005
O  O54  1  0.32640359  0.57127696  0.97315267  1  -0.897832  0.020123  1.98871  0.022  -0.918913  0.009272  2.319118  0.009  -0.990276  0.007809  2.288668  0.007  -0.592505  -0.869656  0.006789  2.341293  0.005
O  O55  1  0.82642689  0.07128110  0.52684314  1  -0.898077  -0.02012  1.988792  -0.022  -0.919116  -0.009272  2.319106  -0.009  -0.990468  -0.00781  2.288599  -0.007  -0.592557  -0.869856  -0.006787  2.341286  -0.005
O  O56  1  0.44550322  0.89437099  0.64422204  1  -0.635682  0.053948  2.077747  0.075  -0.617026  0.037234  2.381869  0.057  -0.657965  0.028167  2.368907  0.045  -0.330934  -0.5886  0.040792  2.39068  0.06
O  O57  1  0.94548189  0.39436177  0.85578010  1  -0.635664  -0.053954  2.077897  -0.075  -0.617052  -0.037236  2.382138  -0.057  -0.657935  -0.028168  2.369096  -0.045  -0.330947  -0.58862  -0.040794  2.390942  -0.06
O  O58  1  0.55454812  0.10563707  0.35577421  1  -0.635512  -0.053962  2.077744  -0.075  -0.616883  -0.037234  2.381893  -0.057  -0.657816  -0.028166  2.368888  -0.045  -0.330943  -0.588459  -0.040781  2.390733  -0.06
O  O59  1  0.05447138  0.60562727  0.14422256  1  -0.635607  0.053975  2.077759  0.075  -0.616983  0.037241  2.381937  0.057  -0.657923  0.028173  2.368971  0.045  -0.330932  -0.588561  0.040787  2.390776  0.06
O  O60  1  0.32920198  0.75826647  0.55023268  1  -0.5887  -0.004412  1.91411  -0.005  -0.541563  -0.003  2.124793  -0.004  -0.564474  -0.002165  2.114641  -0.003  -0.313547  -0.525341  -0.00338  2.131592  -0.004
O  O61  1  0.82926618  0.25825978  0.94977372  1  -0.588859  0.004416  1.913977  0.005  -0.541672  0.003001  2.124723  0.004  -0.564601  0.002165  2.114571  0.003  -0.313582  -0.52545  0.003381  2.13152  0.004
O  O62  1  0.67073673  0.24173262  0.44976805  1  -0.588727  0.004414  1.914165  0.005  -0.54161  0.003001  2.124877  0.004  -0.564542  0.002166  2.114715  0.003  -0.313544  -0.525372  0.003381  2.131673  0.004
O  O63  1  0.17074196  0.74172789  0.05023023  1  -0.58864  -0.004414  1.914222  -0.005  -0.541509  -0.003001  2.124942  -0.004  -0.564433  -0.002165  2.114789  -0.003  -0.313466  -0.52526  -0.003381  2.131713  -0.004
