# generated using pymatgen
data_HgH4C8N5
_symmetry_space_group_name_H-M   'P 1'
_cell_length_a   7.18940919
_cell_length_b   7.90538739
_cell_length_c   16.95917031
_cell_angle_alpha   89.99907718
_cell_angle_beta   92.19764793
_cell_angle_gamma   90.00035793
_symmetry_Int_Tables_number   1
_chemical_formula_structural   HgH4C8N5
_chemical_formula_sum   'Hg4 H16 C32 N20'
_cell_volume   963.16660321
_cell_formula_units_Z   4
loop_
 _symmetry_equiv_pos_site_id
 _symmetry_equiv_pos_as_xyz
  1  'x, y, z'
loop_
 _atom_site_type_symbol
 _atom_site_label
 _atom_site_symmetry_multiplicity
 _atom_site_fract_x
 _atom_site_fract_y
 _atom_site_fract_z
 _atom_site_occupancy
 _atom_site_hle17_bader_spin_density
 _atom_site_hle17_ddec_charge
 _atom_site_hle17_ddec_spin_density
 _atom_site_hle17_ddec_sum_bond_order
 _atom_site_hle17_magmom
 _atom_site_hse06_10hf_bader_spin_density
 _atom_site_hse06_10hf_ddec_charge
 _atom_site_hse06_10hf_ddec_spin_density
 _atom_site_hse06_10hf_ddec_sum_bond_order
 _atom_site_hse06_10hf_magmom
 _atom_site_hse06_bader_spin_density
 _atom_site_hse06_ddec_charge
 _atom_site_hse06_ddec_spin_density
 _atom_site_hse06_ddec_sum_bond_order
 _atom_site_hse06_magmom
 _atom_site_pbe_bader_spin_density
 _atom_site_pbe_cm5_charge
 _atom_site_pbe_ddec_charge
 _atom_site_pbe_ddec_spin_density
 _atom_site_pbe_ddec_sum_bond_order
 _atom_site_pbe_magmom
Hg  Hg0  1  0.22027689  0.73601075  0.19155428  1  0  0.666558  0  2.273967  0  0  0.508847  0  2.739155  0  0  0.548622  0  2.704808  0  0  0.571824  0.481308  0  2.76272  0
Hg  Hg1  1  0.77971538  0.23601357  0.30844678  1  0  0.666619  0  2.27406  0  0  0.50891  0  2.739275  0  0  0.548687  0  2.704919  0  0  0.571838  0.48137  0  2.762841  0
Hg  Hg2  1  0.77973030  0.26398990  0.80844497  1  0  0.666639  0  2.273915  0  0  0.508914  0  2.739123  0  0  0.548697  0  2.704761  0  0  0.571831  0.481369  0  2.762689  0
Hg  Hg3  1  0.22025833  0.76398076  0.69155411  1  0  0.666608  0  2.273943  0  0  0.508878  0  2.739159  0  0  0.548672  0  2.704779  0  0  0.571794  0.481333  0  2.762722  0
H  H4  1  0.62970072  0.62708015  0.10787625  1  0  0.084759  0  0.96486  0  0  0.090318  0  1.031225  0  0  0.092187  0  1.030556  0  0  0.110447  0.089011  0  1.031683  0
H  H5  1  0.37030637  0.12706997  0.39212244  1  0  0.084735  0  0.964839  0  0  0.090289  0  1.031213  0  0  0.092157  0  1.030546  0  0  0.110443  0.088982  0  1.03167  0
H  H6  1  0.37031894  0.37293694  0.89212504  1  0  0.084742  0  0.964822  0  0  0.090298  0  1.031194  0  0  0.092167  0  1.030529  0  0  0.110455  0.088991  0  1.031648  0
H  H7  1  0.62969096  0.87293195  0.60788013  1  0  0.084714  0  0.964774  0  0  0.090292  0  1.031135  0  0  0.09216  0  1.030468  0  0  0.110447  0.088983  0  1.03159  0
H  H8  1  0.81216254  0.61597105  0.98521519  1  0  0.110378  0  0.950678  0  0  0.118526  0  1.012889  0  0  0.120955  0  1.01348  0  0  0.104582  0.116874  0  1.012456  0
H  H9  1  0.18782820  0.11596730  0.51478095  1  0  0.110473  0  0.950636  0  0  0.118562  0  1.012896  0  0  0.121009  0  1.013438  0  0  0.104604  0.116906  0  1.01247  0
H  H10  1  0.18785298  0.38404352  0.01478483  1  0  0.110319  0  0.950513  0  0  0.118419  0  1.012793  0  0  0.120846  0  1.013357  0  0  0.104557  0.116769  0  1.012353  0
H  H11  1  0.81216086  0.88403967  0.48521909  1  0  0.110323  0  0.950539  0  0  0.118423  0  1.012808  0  0  0.120854  0  1.013373  0  0  0.104532  0.116772  0  1.012369  0
H  H12  1  0.67536289  0.74844565  0.86104541  1  0  0.103482  0  0.938345  0  0  0.113731  0  0.99591  0  0  0.115222  0  0.996584  0  0  0.107966  0.11268  0  0.995413  0
H  H13  1  0.32462438  0.24843987  0.63894962  1  0  0.10351  0  0.938341  0  0  0.113786  0  0.995882  0  0  0.115276  0  0.996559  0  0  0.108002  0.112737  0  0.995386  0
H  H14  1  0.32464991  0.25156006  0.13895218  1  0  0.103587  0  0.938283  0  0  0.113707  0  0.995968  0  0  0.115194  0  0.996647  0  0  0.10797  0.11266  0  0.995471  0
H  H15  1  0.67536189  0.75156331  0.36105036  1  0  0.103553  0  0.93832  0  0  0.113779  0  0.995908  0  0  0.115266  0  0.996587  0  0  0.108  0.112732  0  0.99541  0
H  H16  1  0.36397231  0.89013655  0.86649247  1  0  0.106353  0  0.971468  0  0  0.109755  0  1.046164  0  0  0.11274  0  1.04434  0  0  0.105364  0.107575  0  1.04761  0
H  H17  1  0.63601847  0.39012661  0.63350273  1  0  0.106323  0  0.971367  0  0  0.109724  0  1.046051  0  0  0.112709  0  1.044224  0  0  0.105379  0.107545  0  1.047497  0
H  H18  1  0.63603356  0.10985651  0.13350380  1  0  0.106303  0  0.971609  0  0  0.109696  0  1.046299  0  0  0.112685  0  1.044467  0  0  0.105317  0.107519  0  1.047749  0
H  H19  1  0.36396639  0.60987531  0.36649781  1  0  0.106338  0  0.971498  0  0  0.109731  0  1.046219  0  0  0.112716  0  1.044392  0  0  0.105386  0.107552  0  1.047669  0
C  C20  1  0.57560442  0.68438359  0.05318271  1  0  0.130923  0  3.69858  0  0  0.104025  0  3.954102  0  0  0.109379  0  3.973353  0  0  0.046992  0.100577  0  3.940951  0
C  C21  1  0.42440019  0.18437951  0.44681548  1  0  0.131011  0  3.698539  0  0  0.104097  0  3.954058  0  0  0.109447  0  3.973313  0  0  0.047033  0.100648  0  3.940905  0
C  C22  1  0.42440970  0.31561832  0.94681727  1  0  0.131141  0  3.698282  0  0  0.10423  0  3.953809  0  0  0.109578  0  3.973059  0  0  0.047134  0.100785  0  3.940653  0
C  C23  1  0.57559857  0.81561482  0.55318595  1  0  0.131081  0  3.698274  0  0  0.104158  0  3.953799  0  0  0.109508  0  3.97305  0  0  0.04704  0.100712  0  3.940644  0
C  C24  1  0.67712053  0.67842045  0.98452228  1  0  -0.10033  0  3.693416  0  0  -0.117711  0  3.947494  0  0  -0.124532  0  3.971376  0  0  -0.081714  -0.113261  0  3.931187  0
C  C25  1  0.32287188  0.17842007  0.51547518  1  0  -0.100539  0  3.693479  0  0  -0.117841  0  3.94754  0  0  -0.124657  0  3.971429  0  0  -0.081766  -0.113388  0  3.931237  0
C  C26  1  0.32290042  0.32157641  0.01548257  1  0  -0.100316  0  3.693449  0  0  -0.117652  0  3.947501  0  0  -0.124451  0  3.971371  0  0  -0.081746  -0.113203  0  3.931194  0
C  C27  1  0.67711164  0.82157426  0.48452356  1  0  -0.100238  0  3.693356  0  0  -0.117558  0  3.947425  0  0  -0.124365  0  3.971301  0  0  -0.081687  -0.113108  0  3.931119  0
C  C28  1  0.60117905  0.75144878  0.91581571  1  0  -0.006117  0  3.700349  0  0  -0.023355  0  3.951455  0  0  -0.022669  0  3.974189  0  0  -0.066791  -0.023414  0  3.935573  0
C  C29  1  0.39881100  0.25145290  0.58417995  1  0  -0.006139  0  3.700487  0  0  -0.023422  0  3.951565  0  0  -0.02274  0  3.974303  0  0  -0.066811  -0.02347  0  3.935653  0
C  C30  1  0.39883095  0.24854429  0.08418242  1  0  -0.006256  0  3.700623  0  0  -0.023355  0  3.951671  0  0  -0.022671  0  3.974404  0  0  -0.066789  -0.023418  0  3.935801  0
C  C31  1  0.60117803  0.74855408  0.41582068  1  0  -0.006324  0  3.70066  0  0  -0.023535  0  3.951745  0  0  -0.022851  0  3.97448  0  0  -0.066833  -0.023596  0  3.935873  0
C  C32  1  0.42766744  0.82929257  0.91825113  1  0  -0.100588  0  3.67381  0  0  -0.12457  0  3.923915  0  0  -0.130796  0  3.947043  0  0  -0.069855  -0.120184  0  3.908002  0
C  C33  1  0.57232720  0.32929028  0.58174402  1  0  -0.100497  0  3.67375  0  0  -0.124467  0  3.923869  0  0  -0.130693  0  3.946996  0  0  -0.069832  -0.120083  0  3.907959  0
C  C34  1  0.57234535  0.17069291  0.08174646  1  0  -0.100526  0  3.673733  0  0  -0.124517  0  3.92382  0  0  -0.130744  0  3.946952  0  0  -0.06975  -0.120136  0  3.907917  0
C  C35  1  0.42766330  0.67071163  0.41825428  1  0  -0.100428  0  3.673895  0  0  -0.124447  0  3.924008  0  0  -0.13067  0  3.947137  0  0  -0.069812  -0.120067  0  3.9081  0
C  C36  1  0.33590801  0.83039665  0.98957695  1  0  0.138355  0  3.776632  0  0  0.139635  0  4.014786  0  0  0.143187  0  4.037551  0  0  0.117463  0.137373  0  3.999325  0
C  C37  1  0.66408658  0.33039861  0.51042056  1  0  0.13832  0  3.776605  0  0  0.139655  0  4.014754  0  0  0.143208  0  4.037517  0  0  0.117457  0.137398  0  3.99928  0
C  C38  1  0.66409238  0.16959261  0.01041626  1  0  0.138423  0  3.776659  0  0  0.139701  0  4.014823  0  0  0.143247  0  4.037596  0  0  0.117377  0.137443  0  3.999361  0
C  C39  1  0.33590658  0.66960837  0.48958193  1  0  0.138178  0  3.776894  0  0  0.139544  0  4.015046  0  0  0.143094  0  4.037818  0  0  0.117341  0.137295  0  3.999565  0
C  C40  1  0.15600024  0.91835879  0.99501569  1  0  0.248901  0  3.712125  0  0  0.234157  0  3.974483  0  0  0.241459  0  3.989955  0  0  0.254343  0.22894  0  3.964184  0
C  C41  1  0.84399894  0.41835322  0.50498300  1  0  0.249107  0  3.712092  0  0  0.234216  0  3.974577  0  0  0.241511  0  3.990057  0  0  0.25439  0.228997  0  3.964279  0
C  C42  1  0.84400962  0.08164692  0.00498715  1  0  0.248947  0  3.712074  0  0  0.234214  0  3.974348  0  0  0.241516  0  3.989827  0  0  0.254339  0.228994  0  3.964049  0
C  C43  1  0.15599298  0.58165123  0.49501415  1  0  0.249047  0  3.712097  0  0  0.234106  0  3.974623  0  0  0.241393  0  3.990129  0  0  0.254315  0.228885  0  3.964324  0
C  C44  1  0.37237012  0.92950629  0.24206258  1  0  0.013184  0  3.458778  0  0  0.036327  0  3.786833  0  0  0.03502  0  3.799557  0  0  0.033888  0.037138  0  3.778308  0
C  C45  1  0.62762033  0.42949971  0.25793930  1  0  0.013137  0  3.45882  0  0  0.036274  0  3.786898  0  0  0.034968  0  3.79962  0  0  0.033832  0.037084  0  3.778373  0
C  C46  1  0.62762876  0.07049943  0.75793472  1  0  0.013136  0  3.458764  0  0  0.036279  0  3.786844  0  0  0.03497  0  3.799569  0  0  0.033866  0.037088  0  3.77832  0
C  C47  1  0.37237855  0.57050094  0.74205800  1  0  0.013205  0  3.458567  0  0  0.036349  0  3.786639  0  0  0.035041  0  3.799365  0  0  0.033916  0.037157  0  3.778113  0
C  C48  1  0.05176332  0.53923867  0.15621211  1  0  -0.043232  0  3.499937  0  0  -0.011183  0  3.835272  0  0  -0.015195  0  3.847097  0  0  0.010053  -0.008514  0  3.827362  0
C  C49  1  0.94824178  0.03925782  0.34379193  1  0  -0.043441  0  3.49979  0  0  -0.011405  0  3.835143  0  0  -0.015418  0  3.846969  0  0  0.009938  -0.008736  0  3.827235  0
C  C50  1  0.94825890  0.46074807  0.84379689  1  0  -0.043179  0  3.499731  0  0  -0.011132  0  3.835072  0  0  -0.015146  0  3.846897  0  0  0.010047  -0.008464  0  3.827165  0
C  C51  1  0.05172197  0.96074283  0.65621641  1  0  -0.043344  0  3.499812  0  0  -0.011295  0  3.835161  0  0  -0.015313  0  3.846993  0  0  0.010067  -0.008625  0  3.827252  0
N  N52  1  0.40828785  0.75766848  0.05599829  1  0  -0.331205  0  3.15908  0  0  -0.276192  0  3.418014  0  0  -0.293128  0  3.438151  0  0  -0.305836  -0.264537  0  3.40411  0
N  N53  1  0.59170740  0.25767061  0.44399972  1  0  -0.33128  0  3.159216  0  0  -0.276272  0  3.418126  0  0  -0.293209  0  3.438261  0  0  -0.305902  -0.264619  0  3.404219  0
N  N54  1  0.59172084  0.24232838  0.94399686  1  0  -0.331392  0  3.159318  0  0  -0.276382  0  3.418235  0  0  -0.293315  0  3.438368  0  0  -0.305915  -0.264728  0  3.404328  0
N  N55  1  0.40828164  0.74233510  0.55600091  1  0  -0.331232  0  3.159244  0  0  -0.276233  0  3.418173  0  0  -0.293168  0  3.438308  0  0  -0.305794  -0.264582  0  3.404262  0
N  N56  1  0.07417616  0.92464706  0.06546055  1  0  -0.15674  0  3.055637  0  0  -0.121229  0  3.3328  0  0  -0.127531  0  3.343607  0  0  -0.140747  -0.116882  0  3.325323  0
N  N57  1  0.92583093  0.42465543  0.43454290  1  0  -0.156981  0  3.055982  0  0  -0.121394  0  3.333127  0  0  -0.127696  0  3.343931  0  0  -0.140803  -0.117046  0  3.32565  0
N  N58  1  0.92583097  0.07535233  0.93454046  1  0  -0.15693  0  3.055502  0  0  -0.121371  0  3.332618  0  0  -0.127676  0  3.343426  0  0  -0.140802  -0.117021  0  3.325136  0
N  N59  1  0.07417066  0.57534396  0.56545682  1  0  -0.15704  0  3.055896  0  0  -0.121398  0  3.333016  0  0  -0.127702  0  3.343829  0  0  -0.140792  -0.117048  0  3.325536  0
N  N60  1  0.91666370  0.00666933  0.07093738  1  0  -0.136599  0  2.944255  0  0  -0.119712  0  3.215363  0  0  -0.12155  0  3.225104  0  0  -0.137604  -0.118171  0  3.208701  0
N  N61  1  0.08333849  0.50667539  0.42906509  1  0  -0.136357  0  2.944358  0  0  -0.119438  0  3.215513  0  0  -0.121272  0  3.225254  0  0  -0.137529  -0.117897  0  3.208849  0
N  N62  1  0.08334482  0.99333385  0.92906367  1  0  -0.136374  0  2.944073  0  0  -0.119538  0  3.215208  0  0  -0.121374  0  3.224947  0  0  -0.137574  -0.117998  0  3.20854  0
N  N63  1  0.91665753  0.49332147  0.57093510  1  0  -0.136436  0  2.9443  0  0  -0.119541  0  3.215419  0  0  -0.121377  0  3.225156  0  0  -0.137593  -0.117999  0  3.208751  0
N  N64  1  0.46861346  0.03575488  0.26848128  1  0  -0.374997  0  2.855301  0  0  -0.330122  0  3.100799  0  0  -0.343654  0  3.118185  0  0  -0.327723  -0.320955  0  3.089078  0
N  N65  1  0.53138760  0.53575903  0.23151680  1  0  -0.374939  0  2.855258  0  0  -0.330072  0  3.100771  0  0  -0.3436  0  3.11815  0  0  -0.327681  -0.320907  0  3.089053  0
N  N66  1  0.53137847  0.96425716  0.73151528  1  0  -0.374975  0  2.855265  0  0  -0.330111  0  3.100767  0  0  -0.343648  0  3.118167  0  0  -0.327726  -0.320946  0  3.089045  0
N  N67  1  0.46862243  0.46424921  0.76848015  1  0  -0.374987  0  2.855081  0  0  -0.330114  0  3.100589  0  0  -0.34365  0  3.117985  0  0  -0.327735  -0.320951  0  3.08887  0
N  N68  1  0.96270812  0.42681360  0.13061790  1  0  -0.353154  0  2.757435  0  0  -0.331287  0  2.99225  0  0  -0.33976  0  3.011754  0  0  -0.332642  -0.325597  0  2.979109  0
N  N69  1  0.03729756  0.92682137  0.36938669  1  0  -0.35299  0  2.757244  0  0  -0.331114  0  2.992058  0  0  -0.33959  0  3.011564  0  0  -0.332531  -0.325424  0  2.978918  0
N  N70  1  0.03731270  0.57317187  0.86939166  1  0  -0.353233  0  2.757264  0  0  -0.331381  0  2.992115  0  0  -0.339856  0  3.01162  0  0  -0.332626  -0.325692  0  2.978976  0
N  N71  1  0.96267060  0.07316157  0.63061349  1  0  -0.353074  0  2.75734  0  0  -0.331208  0  2.992167  0  0  -0.339681  0  3.011676  0  0  -0.332626  -0.325518  0  2.979028  0
