# generated using pymatgen
data_CoH7C8NO5
_symmetry_space_group_name_H-M   'P 1'
_cell_length_a   7.70771717
_cell_length_b   8.84104561
_cell_length_c   7.81834240
_cell_angle_alpha   92.84391509
_cell_angle_beta   82.83347833
_cell_angle_gamma   62.34399811
_symmetry_Int_Tables_number   1
_chemical_formula_structural   CoH7C8NO5
_chemical_formula_sum   'Co2 H14 C16 N2 O10'
_cell_volume   464.70178435
_cell_formula_units_Z   2
loop_
 _symmetry_equiv_pos_site_id
 _symmetry_equiv_pos_as_xyz
  1  'x, y, z'
loop_
 _atom_site_type_symbol
 _atom_site_label
 _atom_site_symmetry_multiplicity
 _atom_site_fract_x
 _atom_site_fract_y
 _atom_site_fract_z
 _atom_site_occupancy
 _atom_site_hle17_ddec_charge
 _atom_site_hle17_ddec_spin_density
 _atom_site_hle17_ddec_sum_bond_order
 _atom_site_hle17_magmom
 _atom_site_hse06_10hf_ddec_charge
 _atom_site_hse06_10hf_ddec_spin_density
 _atom_site_hse06_10hf_ddec_sum_bond_order
 _atom_site_hse06_10hf_magmom
 _atom_site_hse06_ddec_charge
 _atom_site_hse06_ddec_spin_density
 _atom_site_hse06_ddec_sum_bond_order
 _atom_site_hse06_magmom
 _atom_site_pbe_cm5_charge
 _atom_site_pbe_ddec_charge
 _atom_site_pbe_ddec_spin_density
 _atom_site_pbe_ddec_sum_bond_order
 _atom_site_pbe_magmom
Co  Co0  1  0.02057302  0.35633289  0.73519067  1  1.044478  2.926592  1.798541  2.569  1.021335  2.876151  2.189749  2.644  1.09844  2.922099  2.124111  2.722  0.642839  0.950314  2.831349  2.254421  2.568
Co  Co1  1  0.97945221  0.64366552  0.26478577  1  1.045092  -2.926647  1.799344  -2.569  1.022  -2.876074  2.190625  -2.644  1.09905  -2.922009  2.124901  -2.722  0.643157  0.95117  -2.831284  2.255125  -2.568
H  H2  1  0.12602840  0.06091834  0.10913624  1  0.124002  -0.000766  0.930888  -0.001  0.13443  -0.000342  0.989386  0.0  0.138356  -0.000232  0.986794  0.0  0.113008  0.13121  -0.000462  0.991927  0.0
H  H3  1  0.87394973  0.93906162  0.89086820  1  0.123748  0.000763  0.93121  0.001  0.134262  0.000341  0.989637  0.0  0.138197  0.000231  0.98703  0.0  0.112865  0.131017  0.000461  0.992217  0.0
H  H4  1  0.49724539  0.56658466  0.80501812  1  0.113908  -0.000685  0.946236  -0.001  0.120627  -0.000261  1.012289  0.0  0.124757  -0.000218  1.008641  0.0  0.106414  0.117404  -0.000306  1.015266  0.0
H  H5  1  0.50273657  0.43339950  0.19499838  1  0.113831  0.000683  0.946361  0.001  0.120499  0.00026  1.012475  0.0  0.124617  0.000217  1.008835  0.0  0.106421  0.117282  0.000305  1.015455  0.0
H  H6  1  0.54407047  0.00959630  0.65802871  1  0.126898  -0.000684  0.927509  -0.001  0.137093  -0.000145  0.985508  0.0  0.141196  -0.000108  0.982363  0.0  0.115442  0.133913  -0.000195  0.988114  0.0
H  H7  1  0.45594740  0.99037382  0.34198293  1  0.126906  0.000684  0.927304  0.001  0.13703  0.000145  0.985439  0.0  0.141126  0.000108  0.982288  0.0  0.115331  0.133852  0.000194  0.988047  0.0
H  H8  1  0.18400651  0.29322189  0.02697255  1  0.321818  -0.000496  0.900193  -0.002  0.308614  -4.3e-05  0.964089  0.0  0.314504  -9e-05  0.960328  -0.001  0.301319  0.304365  -1.2e-05  0.966247  0.0
H  H9  1  0.81598929  0.70676079  0.97299535  1  0.321752  0.000494  0.900073  0.002  0.308597  4.2e-05  0.96393  0.0  0.314486  8.9e-05  0.960174  0.001  0.301159  0.304354  1.1e-05  0.966088  0.0
H  H10  1  0.35411830  0.27232477  0.86237523  1  0.316521  -0.000894  0.868905  -0.002  0.311052  -0.000308  0.918567  -0.001  0.316326  -0.000313  0.915733  -0.001  0.312059  0.307196  -0.000306  0.920287  -0.001
H  H11  1  0.64586292  0.72766361  0.13759644  1  0.316177  0.000891  0.868922  0.002  0.310888  0.000307  0.918393  0.001  0.316133  0.000312  0.915639  0.001  0.311773  0.307044  0.000304  0.920092  0.001
H  H12  1  0.12395601  0.58572749  0.84041135  1  0.419552  -0.000167  0.89008  -0.001  0.392177  0.000174  0.949363  0.0  0.404187  0.000115  0.932269  0.0  0.29314  0.38345  0.000214  0.961599  0.0
H  H13  1  0.87610800  0.41422230  0.15960269  1  0.419356  0.000164  0.890344  0.001  0.392042  -0.000177  0.949533  0.0  0.404048  -0.000117  0.932445  0.0  0.293085  0.383318  -0.000218  0.961767  0.0
H  H14  1  0.10096128  0.57721944  0.63268872  1  0.428119  -0.00016  0.870548  -0.001  0.398866  0.000216  0.934392  0.0  0.410594  5.3e-05  0.917674  0.0  0.29556  0.390553  0.000391  0.946097  0.0
H  H15  1  0.89905633  0.42273526  0.36734250  1  0.428355  0.000159  0.870011  0.001  0.399157  -0.000217  0.933911  0.0  0.410896  -5.4e-05  0.917176  0.0  0.295706  0.390842  -0.000392  0.94562  0.0
C  C16  1  0.32240507  0.05738782  0.88264752  1  0.267512  -0.012136  3.803427  -0.019  0.269818  -0.002953  4.061457  -0.006  0.274344  -0.00333  4.084442  -0.006  0.086642  0.266303  -0.002472  4.045585  -0.006
C  C17  1  0.67758552  0.94263217  0.11730776  1  0.2671  0.012118  3.801997  0.019  0.269419  0.002951  4.060241  0.006  0.273872  0.003329  4.083303  0.006  0.086453  0.265942  0.002471  4.044333  0.006
C  C18  1  0.23980498  0.98302975  0.99785603  1  -0.142789  0.018187  3.653039  0.023  -0.177213  0.00721  3.903848  0.009  -0.177465  0.005949  3.921967  0.008  -0.080642  -0.177467  0.009121  3.892978  0.011
C  C19  1  0.76016003  0.01702275  0.00210319  1  -0.142215  -0.018127  3.653376  -0.023  -0.176716  -0.007198  3.904221  -0.009  -0.176951  -0.005945  3.922366  -0.008  -0.080329  -0.176988  -0.009101  3.893341  -0.011
C  C20  1  0.30075757  0.80661336  0.96837317  1  -0.066711  -0.011043  3.799905  -0.015  -0.039038  -0.003007  4.038156  -0.004  -0.046838  -0.002946  4.058803  -0.004  -0.02266  -0.034804  -0.003091  4.026326  -0.005
C  C21  1  0.69929255  0.19342455  0.03160574  1  -0.067329  0.011012  3.800781  0.015  -0.039651  0.003003  4.039047  0.004  -0.047465  0.002943  4.059708  0.004  -0.023087  -0.035371  0.003087  4.027136  0.005
C  C22  1  0.44934509  0.70344255  0.82851258  1  -0.067918  0.017616  3.687383  0.022  -0.115246  0.007001  3.947487  0.008  -0.111584  0.005728  3.964389  0.007  -0.082966  -0.117909  0.008913  3.937167  0.01
C  C23  1  0.55070853  0.29653269  0.17150026  1  -0.06781  -0.017555  3.687403  -0.022  -0.114985  -0.006988  3.947549  -0.008  -0.111304  -0.005719  3.964456  -0.007  -0.08313  -0.117671  -0.008894  3.937216  -0.01
C  C24  1  0.54061953  0.77653337  0.72052003  1  -0.054089  -0.01448  3.763015  -0.02  -0.028664  -0.005237  4.000617  -0.008  -0.038084  -0.004773  4.022498  -0.007  -0.01655  -0.022784  -0.005679  3.987355  -0.009
C  C25  1  0.45934471  0.22351168  0.27952155  1  -0.053899  0.01447  3.761071  0.02  -0.02866  0.005241  3.999106  0.008  -0.038095  0.004778  4.020988  0.007  -0.016378  -0.022768  0.005684  3.985837  0.009
C  C26  1  0.47465683  0.95381795  0.74578043  1  -0.129401  0.018264  3.638444  0.023  -0.165637  0.007234  3.889411  0.009  -0.164237  0.005981  3.905157  0.008  -0.075737  -0.167001  0.009083  3.879861  0.011
C  C27  1  0.52531875  0.04618689  0.25421630  1  -0.129476  -0.018224  3.636964  -0.023  -0.165597  -0.007228  3.888133  -0.009  -0.164144  -0.00598  3.90387  -0.008  -0.075778  -0.16699  -0.00907  3.878582  -0.011
C  C28  1  0.20013811  0.73127361  0.08198494  1  0.620413  0.006969  3.893827  0.012  0.57392  0.001566  4.191851  0.004  0.610414  0.001086  4.186379  0.003  0.200469  0.547648  0.002477  4.193912  0.006
C  C29  1  0.79987210  0.26875698  0.91796919  1  0.620409  -0.00693  3.894725  -0.012  0.574056  -0.001556  4.192599  -0.004  0.61053  -0.00108  4.187154  -0.003  0.200862  0.547803  -0.002457  4.194617  -0.006
C  C30  1  0.70924314  0.66589623  0.57840770  1  0.664386  0.009161  3.854891  0.014  0.620669  0.005805  4.147176  0.008  0.660345  0.004017  4.137154  0.006  0.218226  0.591077  0.008439  4.153384  0.012
C  C31  1  0.29070163  0.33420181  0.42165044  1  0.664194  -0.009179  3.854366  -0.014  0.620319  -0.005826  4.147086  -0.008  0.660006  -0.004033  4.137059  -0.006  0.218043  0.590709  -0.008463  4.153296  -0.012
N  N32  1  0.24633895  0.23890472  0.90098769  1  -0.659477  0.040652  3.174579  0.068  -0.643301  0.026744  3.430495  0.04  -0.66844  0.021794  3.428563  0.032  -0.596222  -0.622247  0.031111  3.431228  0.046
N  N33  1  0.75375908  0.76099803  0.09904042  1  -0.659217  -0.040663  3.172867  -0.068  -0.643228  -0.026765  3.428786  -0.04  -0.668357  -0.021818  3.426833  -0.032  -0.595815  -0.622212  -0.031131  3.429537  -0.046
O  O34  1  0.10560602  0.80497161  0.23297207  1  -0.565049  -0.046565  1.949113  -0.075  -0.533702  -0.031864  2.186984  -0.05  -0.56833  -0.024219  2.177965  -0.037  -0.301437  -0.504281  -0.039868  2.191299  -0.062
O  O35  1  0.89436947  0.19494295  0.76700334  1  -0.564889  0.046501  1.9487  0.075  -0.533484  0.031822  2.186348  0.05  -0.568102  0.024185  2.177366  0.037  -0.301484  -0.504052  0.039817  2.190644  0.062
O  O36  1  0.20067735  0.59133366  0.02437791  1  -0.658503  -0.030027  2.040151  -0.049  -0.609152  -0.024871  2.291158  -0.04  -0.643943  -0.019854  2.283115  -0.032  -0.315806  -0.58146  -0.029717  2.295253  -0.047
O  O37  1  0.79920787  0.40871140  0.97571370  1  -0.658082  0.029955  2.040035  0.049  -0.608916  0.024818  2.290991  0.039  -0.643681  0.019811  2.282963  0.032  -0.315706  -0.581226  0.029652  2.295081  0.047
O  O38  1  0.78553244  0.50165576  0.56974220  1  -0.651466  0.011959  2.034448  0.018  -0.605767  0.011284  2.272274  0.014  -0.63506  0.009728  2.256443  0.011  -0.313454  -0.582479  0.012228  2.283567  0.015
O  O39  1  0.21449108  0.49839388  0.43019892  1  -0.651048  -0.011923  2.035271  -0.017  -0.605201  -0.011264  2.273111  -0.014  -0.634462  -0.009716  2.257254  -0.011  -0.313097  -0.581964  -0.012207  2.284423  -0.015
O  O40  1  0.76798490  0.74390151  0.47164082  1  -0.61166  -0.045954  2.101725  -0.074  -0.574889  -0.031535  2.372026  -0.048  -0.612766  -0.024848  2.359578  -0.037  -0.309437  -0.543071  -0.038552  2.379463  -0.059
O  O41  1  0.23204517  0.25603202  0.52835011  1  -0.611713  0.046022  2.100805  0.075  -0.574841  0.031562  2.371151  0.048  -0.612783  0.024865  2.358793  0.037  -0.309425  -0.542982  0.03858  2.378589  0.059
O  O42  1  0.03688826  0.58343734  0.75598059  1  -0.840802  0.035825  1.977361  0.054  -0.796405  0.030518  2.18349  0.043  -0.827072  0.024739  2.148528  0.034  -0.570364  -0.770421  0.036103  2.207818  0.051
O  O43  1  0.96310055  0.41663723  0.24403807  1  -0.840983  -0.035837  1.977466  -0.054  -0.796579  -0.030534  2.183506  -0.043  -0.827263  -0.024754  2.148549  -0.034  -0.570472  -0.770617  -0.036119  2.207837  -0.051
