# generated using pymatgen
data_NiH18C18N4(Cl2O3)2
_symmetry_space_group_name_H-M   'P 1'
_cell_length_a   8.76962634
_cell_length_b   8.73065606
_cell_length_c   9.70179730
_cell_angle_alpha   73.51155165
_cell_angle_beta   88.87148253
_cell_angle_gamma   80.25291233
_symmetry_Int_Tables_number   1
_chemical_formula_structural   NiH18C18N4(Cl2O3)2
_chemical_formula_sum   'Ni1 H18 C18 N4 Cl4 O6'
_cell_volume   701.66949311
_cell_formula_units_Z   1
loop_
 _symmetry_equiv_pos_site_id
 _symmetry_equiv_pos_as_xyz
  1  'x, y, z'
loop_
 _atom_site_type_symbol
 _atom_site_label
 _atom_site_symmetry_multiplicity
 _atom_site_fract_x
 _atom_site_fract_y
 _atom_site_fract_z
 _atom_site_occupancy
 _atom_site_hle17_bader_spin_density
 _atom_site_hle17_ddec_charge
 _atom_site_hle17_ddec_spin_density
 _atom_site_hle17_ddec_sum_bond_order
 _atom_site_hle17_magmom
 _atom_site_hse06_10hf_bader_spin_density
 _atom_site_hse06_10hf_ddec_charge
 _atom_site_hse06_10hf_ddec_spin_density
 _atom_site_hse06_10hf_ddec_sum_bond_order
 _atom_site_hse06_10hf_magmom
 _atom_site_hse06_bader_spin_density
 _atom_site_hse06_ddec_charge
 _atom_site_hse06_ddec_spin_density
 _atom_site_hse06_ddec_sum_bond_order
 _atom_site_hse06_magmom
 _atom_site_pbe_bader_spin_density
 _atom_site_pbe_cm5_charge
 _atom_site_pbe_ddec_charge
 _atom_site_pbe_ddec_spin_density
 _atom_site_pbe_ddec_sum_bond_order
 _atom_site_pbe_magmom
Ni  Ni0  1  0.00000728  0.49998793  0.50000756  1  0  0.584813  0  2.275949  0  0  0.555677  0  2.729109  0  0  0.64206  0  2.642839  0  0  0.583923  0.505491  0  2.784586  0
H  H1  1  0.16765867  0.23564246  0.43375892  1  0  0.396681  0  0.913081  0  0  0.36322  0  0.985056  0  0  0.373684  0  0.968979  0  0  0.272806  0.355609  0  0.99674  0
H  H2  1  0.83233960  0.76435964  0.56622805  1  0  0.396664  0  0.913105  0  0  0.363197  0  0.985076  0  0  0.373662  0  0.968997  0  0  0.272796  0.355583  0  0.996766  0
H  H3  1  0.14527421  0.38509668  0.29876280  1  0  0.404181  0  0.86604  0  0  0.382983  0  0.928127  0  0  0.392217  0  0.913983  0  0  0.290174  0.376078  0  0.938723  0
H  H4  1  0.85471722  0.61491669  0.70123446  1  0  0.404176  0  0.86612  0  0  0.382975  0  0.928156  0  0  0.392208  0  0.914013  0  0  0.290201  0.37607  0  0.938751  0
H  H5  1  0.32245622  0.32605207  0.63110484  1  0  0.098785  0  0.989096  0  0  0.103507  0  1.060806  0  0  0.105687  0  1.059333  0  0  0.109889  0.101688  0  1.06237  0
H  H6  1  0.67755344  0.67395504  0.36890535  1  0  0.098759  0  0.989111  0  0  0.103515  0  1.060771  0  0  0.105686  0  1.059338  0  0  0.10987  0.1017  0  1.062318  0
H  H7  1  0.53290073  0.50219812  0.69983857  1  0  0.120364  0  0.953454  0  0  0.128852  0  1.015188  0  0  0.131633  0  1.013601  0  0  0.122601  0.126684  0  1.016567  0
H  H8  1  0.46711376  0.49781379  0.30016403  1  0  0.12037  0  0.95365  0  0  0.128849  0  1.015367  0  0  0.131629  0  1.01378  0  0  0.122602  0.126705  0  1.016725  0
H  H9  1  0.11341855  0.81856286  0.54049054  1  0  0.113199  0  0.94183  0  0  0.120523  0  1.00636  0  0  0.123258  0  1.002593  0  0  0.13987  0.118323  0  1.009305  0
H  H10  1  0.88656581  0.18144621  0.45949769  1  0  0.113341  0  0.942145  0  0  0.120582  0  1.006751  0  0  0.123349  0  1.002928  0  0  0.139897  0.118318  0  1.009779  0
H  H11  1  0.50973626  0.78637500  0.71392757  1  0  0.093333  0  0.917641  0  0  0.10984  0  0.974568  0  0  0.110833  0  0.973626  0  0  0.113137  0.109163  0  0.975004  0
H  H12  1  0.49026055  0.21363453  0.28606144  1  0  0.093338  0  0.917495  0  0  0.109853  0  0.97442  0  0  0.110842  0  0.973487  0  0  0.113134  0.109177  0  0.974856  0
H  H13  1  0.32311258  0.91290195  0.68350334  1  0  0.077585  0  0.961348  0  0  0.087652  0  1.033003  0  0  0.089016  0  1.032049  0  0  0.099462  0.086586  0  1.033709  0
H  H14  1  0.67688376  0.08709797  0.31649251  1  0  0.077542  0  0.961313  0  0  0.087626  0  1.032971  0  0  0.088993  0  1.032017  0  0  0.099432  0.086557  0  1.033679  0
H  H15  1  0.35905681  0.98102578  0.41905605  1  0  0.07286  0  0.955868  0  0  0.090705  0  1.018111  0  0  0.090919  0  1.019315  0  0  0.086792  0.090461  0  1.01728  0
H  H16  1  0.64092497  0.01899064  0.58093324  1  0  0.07291  0  0.955585  0  0  0.090669  0  1.017914  0  0  0.090882  0  1.019119  0  0  0.08672  0.090426  0  1.017082  0
H  H17  1  0.54048209  0.84858819  0.44765264  1  0  0.064077  0  0.949916  0  0  0.083324  0  1.012424  0  0  0.083437  0  1.013687  0  0  0.086906  0.083124  0  1.011709  0
H  H18  1  0.45950664  0.15142745  0.55234195  1  0  0.064005  0  0.949903  0  0  0.083265  0  1.01241  0  0  0.083376  0  1.013675  0  0  0.086902  0.083065  0  1.011695  0
C  C19  1  0.31087633  0.45374696  0.62230103  1  0  -0.013856  0  3.743579  0  0  -0.050743  0  4.020102  0  0  -0.04734  0  4.041229  0  0  -0.009917  -0.053121  0  4.006745  0
C  C20  1  0.68912412  0.54626082  0.37770288  1  0  -0.013939  0  3.743301  0  0  -0.050847  0  4.01987  0  0  -0.04745  0  4.04099  0  0  -0.009935  -0.053214  0  4.006531  0
C  C21  1  0.41454786  0.53859764  0.65812431  1  0  -0.061558  0  3.683576  0  0  -0.101976  0  3.937966  0  0  -0.101023  0  3.957648  0  0  0.002058  -0.102464  0  3.924923  0
C  C22  1  0.58545393  0.46140965  0.34186631  1  0  -0.061506  0  3.683881  0  0  -0.101928  0  3.938286  0  0  -0.10097  0  3.95796  0  0  0.002062  -0.102439  0  3.925232  0
C  C23  1  0.19710413  0.70743433  0.57353846  1  0  0.148731  0  3.613068  0  0  0.089257  0  3.877829  0  0  0.105348  0  3.890699  0  0  0.141566  0.078723  0  3.869609  0
C  C24  1  0.80291059  0.29253553  0.42646053  1  0  0.148414  0  3.612495  0  0  0.089009  0  3.8772  0  0  0.105086  0  3.890056  0  0  0.141358  0.078533  0  3.869011  0
C  C25  1  0.40968497  0.83520714  0.63895115  1  0  -0.007146  0  3.61279  0  0  -0.069245  0  3.869753  0  0  -0.065407  0  3.880623  0  0  -0.056198  -0.071625  0  3.86212  0
C  C26  1  0.59031036  0.16479783  0.36104845  1  0  -0.007295  0  3.612849  0  0  -0.069411  0  3.869802  0  0  -0.065585  0  3.880689  0  0  -0.056265  -0.071791  0  3.862171  0
C  C27  1  0.46019103  0.93138749  0.49312063  1  0  -0.117337  0  3.672406  0  0  -0.157146  0  3.927706  0  0  -0.159406  0  3.944043  0  0  -0.167455  -0.155498  0  3.916597  0
C  C28  1  0.53979992  0.06862298  0.50686611  1  0  -0.117346  0  3.672313  0  0  -0.157121  0  3.927647  0  0  -0.159376  0  3.943988  0  0  -0.167424  -0.155476  0  3.916542  0
C  C29  1  0.95906829  0.80027148  0.29199717  1  0  0.64636  0  3.903031  0  0  0.598337  0  4.214063  0  0  0.635974  0  4.206084  0  0  0.209132  0.572554  0  4.218954  0
C  C30  1  0.04092709  0.19972735  0.70800312  1  0  0.646267  0  3.902849  0  0  0.598197  0  4.213962  0  0  0.635834  0  4.205991  0  0  0.209115  0.572413  0  4.218845  0
C  C31  1  0.98076919  0.90111679  0.14016344  1  0  -0.1105  0  3.707401  0  0  -0.111611  0  3.959076  0  0  -0.115698  0  3.975619  0  0  -0.015296  -0.109081  0  3.948213  0
C  C32  1  0.01924024  0.09887411  0.85984204  1  0  -0.110364  0  3.707273  0  0  -0.111463  0  3.95897  0  0  -0.115549  0  3.975511  0  0  -0.015279  -0.108933  0  3.948107  0
C  C33  1  0.12814663  0.92982018  0.09321723  1  0  0.076827  0  3.765647  0  0  0.07104  0  4.04068  0  0  0.074546  0  4.059595  0  0  0.012779  0.06844  0  4.02823  0
C  C34  1  0.87185889  0.07017850  0.90680156  1  0  0.076772  0  3.765408  0  0  0.070972  0  4.040449  0  0  0.074478  0  4.059362  0  0  0.012762  0.068377  0  4.027995  0
C  C35  1  0.14723949  0.02922355  0.95435788  1  0  0.076536  0  3.768244  0  0  0.071946  0  4.043142  0  0  0.075024  0  4.062682  0  0  0.012182  0.069616  0  4.030457  0
C  C36  1  0.85276741  0.97075113  0.04564499  1  0  0.076558  0  3.768256  0  0  0.071986  0  4.043143  0  0  0.075066  0  4.06268  0  0  0.012169  0.069655  0  4.030458  0
N  N37  1  0.17595109  0.56055737  0.56883474  1  0  -0.296352  0  3.392698  0  0  -0.245756  0  3.69948  0  0  -0.277192  0  3.716887  0  0  -0.366051  -0.227063  0  3.689074  0
N  N38  1  0.82405576  0.43944689  0.43116803  1  0  -0.296092  0  3.391887  0  0  -0.245506  0  3.698658  0  0  -0.276944  0  3.716077  0  0  -0.365897  -0.22684  0  3.688263  0
N  N39  1  0.34083622  0.69762431  0.62727009  1  0  -0.045488  0  3.563704  0  0  0.050598  0  3.777406  0  0  0.036231  0  3.803283  0  0  -0.238416  0.060056  0  3.759764  0
N  N40  1  0.65914387  0.30238933  0.37271278  1  0  -0.045388  0  3.563826  0  0  0.050721  0  3.77745  0  0  0.036357  0  3.80334  0  0  -0.23829  0.060181  0  3.759791  0
Cl  Cl41  1  0.28656451  0.84471847  0.20764229  1  0  -0.033327  0  1.434339  0  0  -0.020612  0  1.672819  0  0  -0.02306  0  1.66628  0  0  0.035996  -0.018603  0  1.677086  0
Cl  Cl42  1  0.71344182  0.15525892  0.79236704  1  0  -0.033326  0  1.434229  0  0  -0.020597  0  1.672698  0  0  -0.023048  0  1.66616  0  0  0.036023  -0.018589  0  1.67696  0
Cl  Cl43  1  0.32831475  0.06830372  0.90164755  1  0  -0.057126  0  1.474463  0  0  -0.051401  0  1.723384  0  0  -0.054031  0  1.716631  0  0  0.024809  -0.049326  0  1.727858  0
Cl  Cl44  1  0.67169403  0.93169004  0.09836848  1  0  -0.057031  0  1.474503  0  0  -0.051309  0  1.723421  0  0  -0.053937  0  1.71667  0  0  0.024871  -0.049232  0  1.727894  0
O  O45  1  0.01149070  0.64757637  0.31424048  1  0  -0.536611  0  2.133363  0  0  -0.504163  0  2.411604  0  0  -0.548482  0  2.401802  0  0  -0.295183  -0.474628  0  2.417581  0
O  O46  1  0.98851468  0.35241727  0.68577561  1  0  -0.536464  0  2.133463  0  0  -0.50397  0  2.411675  0  0  -0.548287  0  2.401883  0  0  -0.295074  -0.47444  0  2.41765  0
O  O47  1  0.89560599  0.86871816  0.38030407  1  0  -0.586096  0  1.941952  0  0  -0.538377  0  2.16186  0  0  -0.564704  0  2.152617  0  0  -0.293358  -0.519941  0  2.167825  0
O  O48  1  0.10439526  0.13125028  0.61970164  1  0  -0.586088  0  1.941424  0  0  -0.538332  0  2.161354  0  0  -0.564666  0  2.152119  0  0  -0.293346  -0.519888  0  2.167308  0
O  O49  1  0.21071713  0.28005889  0.33883337  1  0  -0.816616  0  1.736644  0  0  -0.778705  0  1.877296  0  0  -0.792605  0  1.848436  0  0  -0.610306  -0.768606  0  1.898193  0
O  O50  1  0.78927912  0.71995330  0.66116108  1  0  -0.816595  0  1.736717  0  0  -0.778657  0  1.877335  0  0  -0.792555  0  1.848472  0  0  -0.610304  -0.76856  0  1.898241  0
