# generated using pymatgen
data_Ba2Cd2H31C36NO24
_symmetry_space_group_name_H-M   'P 1'
_cell_length_a   16.66209487
_cell_length_b   17.08275767
_cell_length_c   18.19086403
_cell_angle_alpha   106.06387746
_cell_angle_beta   89.99982072
_cell_angle_gamma   90.00037530
_symmetry_Int_Tables_number   1
_chemical_formula_structural   Ba2Cd2H31C36NO24
_chemical_formula_sum   'Ba8 Cd8 H124 C144 N4 O96'
_cell_volume   4975.57661951
_cell_formula_units_Z   4
loop_
 _symmetry_equiv_pos_site_id
 _symmetry_equiv_pos_as_xyz
  1  'x, y, z'
loop_
 _atom_site_type_symbol
 _atom_site_label
 _atom_site_symmetry_multiplicity
 _atom_site_fract_x
 _atom_site_fract_y
 _atom_site_fract_z
 _atom_site_occupancy
 _atom_site_pbe_bader_charge
 _atom_site_pbe_bader_spin_density
 _atom_site_pbe_cm5_charge
 _atom_site_pbe_ddec_charge
 _atom_site_pbe_ddec_spin_density
 _atom_site_pbe_ddec_sum_bond_order
 _atom_site_pbe_magmom
Ba  Ba0  1  0.65679903  0.63048583  0.27125507  1  1.72405  0  0.931071  1.547532  0  1.534185  0
Ba  Ba1  1  0.15679975  0.86951926  0.22874402  1  1.724015  0  0.931043  1.547525  0  1.534155  0
Ba  Ba2  1  0.34319876  0.36951650  0.72874126  1  1.724001  0  0.931064  1.547521  0  1.534236  0
Ba  Ba3  1  0.84320103  0.13048186  0.77125255  1  1.724024  0  0.931049  1.5475  0  1.534189  0
Ba  Ba4  1  0.65829827  0.87525080  0.74246220  1  1.720168  0  0.937067  1.542175  0  1.525318  0
Ba  Ba5  1  0.15829965  0.62474890  0.75754000  1  1.720171  0  0.937095  1.542172  0  1.525302  0
Ba  Ba6  1  0.34170012  0.12475096  0.25753837  1  1.720152  0  0.937059  1.542185  0  1.525264  0
Ba  Ba7  1  0.84170234  0.37525043  0.24246052  1  1.720245  0  0.937097  1.542193  0  1.525274  0
Cd  Cd8  1  0.61187295  0.11427422  0.75575507  1  1.281568  0  0.791861  0.951956  0  2.091619  0
Cd  Cd9  1  0.11187553  0.38571797  0.74424664  1  1.281767  0  0.79181  0.951921  0  2.091653  0
Cd  Cd10  1  0.38812604  0.88572088  0.24424767  1  1.281687  0  0.791833  0.951952  0  2.091663  0
Cd  Cd11  1  0.88812406  0.61427894  0.25575437  1  1.281626  0  0.791837  0.951968  0  2.091673  0
Cd  Cd12  1  0.38687893  0.61168369  0.74482187  1  1.281959  0  0.78934  0.951997  0  2.09912  0
Cd  Cd13  1  0.88687159  0.88831309  0.75517674  1  1.281971  0  0.789356  0.952061  0  2.098966  0
Cd  Cd14  1  0.61312846  0.38831685  0.25517840  1  1.281928  0  0.789324  0.951977  0  2.099109  0
Cd  Cd15  1  0.11312079  0.11168747  0.24482573  1  1.281888  0  0.789329  0.951973  0  2.099139  0
H  H16  1  0.56969536  0.81020045  0.25869339  1  0.644616  0  0.300804  0.406798  0  0.918385  0
H  H17  1  0.06969663  0.68980661  0.24131138  1  0.644747  0  0.300874  0.406969  0  0.918158  0
H  H18  1  0.43029822  0.18980009  0.74130688  1  0.644629  0  0.300776  0.4068  0  0.918374  0
H  H19  1  0.93030295  0.31020005  0.75869263  1  0.644664  0  0.300812  0.406799  0  0.918363  0
H  H20  1  0.50376707  0.74460414  0.25084543  1  0.648169  0  0.29481  0.392597  0  0.942112  0
H  H21  1  0.00376876  0.75540129  0.24915857  1  0.648158  0  0.294814  0.39257  0  0.942131  0
H  H22  1  0.49622711  0.25539522  0.74915839  1  0.648286  0  0.294847  0.392699  0  0.941959  0
H  H23  1  0.99622903  0.24460230  0.75084247  1  0.648248  0  0.29484  0.392647  0  0.942039  0
H  H24  1  0.58133754  0.59681824  0.08250685  1  0.612578  0  0.329641  0.409819  0  0.871619  0
H  H25  1  0.08134085  0.90318763  0.41749430  1  0.612374  0  0.329665  0.40987  0  0.871523  0
H  H26  1  0.41866025  0.40318533  0.91749309  1  0.612383  0  0.329654  0.409836  0  0.871576  0
H  H27  1  0.91866054  0.09681778  0.58250610  1  0.612318  0  0.329685  0.409952  0  0.871443  0
H  H28  1  0.59071359  0.51725440  0.11140051  1  0.63627  0  0.289447  0.387281  0  0.952476  0
H  H29  1  0.09071034  0.98275460  0.38860414  1  0.636185  0  0.289356  0.387179  0  0.952637  0
H  H30  1  0.40928900  0.48274979  0.88860013  1  0.636242  0  0.289406  0.387277  0  0.952506  0
H  H31  1  0.90928385  0.01725326  0.61139963  1  0.636235  0  0.289428  0.387332  0  0.952442  0
H  H32  1  0.53549479  0.90170230  0.90980245  1  0.60465  0  0.326559  0.407124  0  0.87639  0
H  H33  1  0.03550016  0.59830029  0.59019698  1  0.604431  0  0.326613  0.407229  0  0.876249  0
H  H34  1  0.46450300  0.09829884  0.09019633  1  0.604387  0  0.326574  0.407157  0  0.876347  0
H  H35  1  0.96449823  0.40170273  0.40980776  1  0.604712  0  0.326568  0.407172  0  0.87632  0
H  H36  1  0.58607574  0.97495411  0.89547681  1  0.633152  0  0.288485  0.383274  0  0.958453  0
H  H37  1  0.08607396  0.52504577  0.60452508  1  0.633188  0  0.288469  0.383293  0  0.958437  0
H  H38  1  0.41392745  0.02504647  0.10452676  1  0.633141  0  0.288476  0.383287  0  0.95844  0
H  H39  1  0.91392503  0.47495540  0.39547644  1  0.633186  0  0.288474  0.383241  0  0.95849  0
H  H40  1  0.49254382  0.74517897  0.70943574  1  0.666958  0  0.293943  0.388989  0  0.948864  0
H  H41  1  0.99254327  0.75482150  0.79056460  1  0.666999  0  0.293961  0.389008  0  0.94882  0
H  H42  1  0.50745877  0.25482217  0.29056303  1  0.667079  0  0.293957  0.38898  0  0.948867  0
H  H43  1  0.00745512  0.24517600  0.20943490  1  0.667034  0  0.293948  0.388998  0  0.94885  0
H  H44  1  0.56129907  0.68557934  0.71469440  1  0.654848  0  0.302031  0.405497  0  0.920759  0
H  H45  1  0.06129803  0.81442036  0.78530533  1  0.654852  0  0.302001  0.405434  0  0.920853  0
H  H46  1  0.43870352  0.31442059  0.28530572  1  0.654877  0  0.30202  0.405485  0  0.920789  0
H  H47  1  0.93870096  0.18557714  0.21469472  1  0.654874  0  0.302096  0.405532  0  0.920701  0
H  H48  1  0.36429877  0.98092106  0.51170710  1  0.108907  0  0.114954  0.135007  0  0.999273  0
H  H49  1  0.86429956  0.51908101  0.98828686  1  0.108883  0  0.114938  0.135008  0  0.999247  0
H  H50  1  0.63569782  0.01907762  0.48828940  1  0.108849  0  0.114943  0.135015  0  0.999204  0
H  H51  1  0.13570663  0.48091766  0.01170799  1  0.108669  0  0.114931  0.134995  0  0.999236  0
H  H52  1  0.79149041  0.46937837  0.63819057  1  0.112414  0  0.110032  0.127445  0  0.989203  0
H  H53  1  0.29148540  0.03060818  0.86180810  1  0.112219  0  0.110078  0.127398  0  0.989265  0
H  H54  1  0.20851577  0.53060941  0.36180923  1  0.112247  0  0.110081  0.127379  0  0.989259  0
H  H55  1  0.70850878  0.96938509  0.13819363  1  0.112338  0  0.110051  0.127414  0  0.989353  0
H  H56  1  0.79191363  0.33442071  0.66640841  1  0.090239  0  0.116103  0.119499  0  0.980932  0
H  H57  1  0.29191742  0.16556828  0.83359198  1  0.09021  0  0.116114  0.119499  0  0.980977  0
H  H58  1  0.20808356  0.66556828  0.33359170  1  0.090236  0  0.116121  0.119538  0  0.981027  0
H  H59  1  0.70808156  0.83442680  0.16640856  1  0.090086  0  0.116125  0.119525  0  0.980957  0
H  H60  1  0.55141086  0.37885106  0.75268798  1  0.097783  0  0.118832  0.111835  0  1.025898  0
H  H61  1  0.05141465  0.12114804  0.74731235  1  0.097952  0  0.118825  0.111923  0  1.025786  0
H  H62  1  0.44858813  0.62115191  0.24731180  1  0.097791  0  0.11883  0.111842  0  1.025812  0
H  H63  1  0.94858374  0.87885254  0.25269123  1  0.097956  0  0.118813  0.1119  0  1.025818  0
H  H64  1  0.63885798  0.48433569  0.52869631  1  0.085361  0  0.110296  0.125552  0  1.035197  0
H  H65  1  0.13885190  0.01565907  0.97130322  1  0.085326  0  0.110286  0.125554  0  1.035223  0
H  H66  1  0.36114701  0.51565513  0.47130316  1  0.085422  0  0.110314  0.12564  0  1.035115  0
H  H67  1  0.86114709  0.98433966  0.02869824  1  0.085246  0  0.110274  0.125568  0  1.035205  0
H  H68  1  0.84701557  0.69377997  0.53862455  1  0.056712  0  0.106572  0.110948  0  0.99083  0
H  H69  1  0.34701508  0.80622635  0.96137988  1  0.056782  0  0.106597  0.11093  0  0.990969  0
H  H70  1  0.15298282  0.30622056  0.46137461  1  0.056656  0  0.106564  0.110931  0  0.990832  0
H  H71  1  0.65298511  0.19377236  0.03861883  1  0.056789  0  0.106616  0.110956  0  0.99094  0
H  H72  1  0.78321904  0.68419111  0.65841934  1  0.122563  0  0.114647  0.127365  0  1.033761  0
H  H73  1  0.28321601  0.81580754  0.84158554  1  0.12251  0  0.114716  0.12739  0  1.033758  0
H  H74  1  0.21678475  0.31580274  0.34158034  1  0.122548  0  0.114694  0.12737  0  1.033704  0
H  H75  1  0.71678237  0.18418998  0.15841617  1  0.12249  0  0.114691  0.127375  0  1.033759  0
H  H76  1  0.44415832  0.87070589  0.73883505  1  0.104221  0  0.11447  0.103214  0  1.036867  0
H  H77  1  0.94416363  0.62929924  0.76117540  1  0.104385  0  0.114497  0.103289  0  1.036903  0
H  H78  1  0.55583526  0.12929777  0.26117315  1  0.104321  0  0.114493  0.10325  0  1.036884  0
H  H79  1  0.05583476  0.37070746  0.23883357  1  0.104092  0  0.114448  0.103181  0  1.036885  0
H  H80  1  0.20553531  0.83685253  0.64634251  1  0.100633  0  0.115647  0.118902  0  0.975958  0
H  H81  1  0.70553873  0.66314745  0.85365962  1  0.100653  0  0.115665  0.118885  0  0.976008  0
H  H82  1  0.79446068  0.16315108  0.35366128  1  0.100746  0  0.115658  0.118912  0  0.97602  0
H  H83  1  0.29445786  0.33685374  0.14634466  1  0.100936  0  0.115639  0.118887  0  0.975888  0
H  H84  1  0.21438824  0.97215863  0.61951546  1  0.091566  0  0.109507  0.126272  0  0.992176  0
H  H85  1  0.71438825  0.52783833  0.88048259  1  0.091511  0  0.109484  0.126229  0  0.992215  0
H  H86  1  0.78561075  0.02784253  0.38048552  1  0.091598  0  0.109482  0.126271  0  0.992156  0
H  H87  1  0.28560953  0.47216160  0.11951697  1  0.091578  0  0.109496  0.126265  0  0.992159  0
H  H88  1  0.23566739  0.18934472  0.64823299  1  0.115995  0  0.116882  0.125165  0  1.03737  0
H  H89  1  0.73566761  0.31065127  0.85177098  1  0.115959  0  0.116898  0.125175  0  1.037358  0
H  H90  1  0.76433460  0.81065644  0.35176799  1  0.115972  0  0.116889  0.125159  0  1.03738  0
H  H91  1  0.26433078  0.68935109  0.14822755  1  0.116018  0  0.116897  0.125195  0  1.037401  0
H  H92  1  0.16821933  0.20404250  0.53178976  1  0.067612  0  0.106394  0.109808  0  0.998099  0
H  H93  1  0.66821726  0.29595917  0.96821583  1  0.067476  0  0.106404  0.109807  0  0.998073  0
H  H94  1  0.83178265  0.79595867  0.46821177  1  0.067469  0  0.106408  0.10988  0  0.997976  0
H  H95  1  0.33178293  0.70404443  0.03178631  1  0.067393  0  0.106432  0.109923  0  0.997964  0
H  H96  1  0.54064924  0.55916577  0.44140376  1  0.086564  0  0.1022  0.163495  0  1.018474  0
H  H97  1  0.04063662  0.94083564  0.05860023  1  0.087256  0  0.102171  0.163429  0  1.018569  0
H  H98  1  0.45936355  0.44083537  0.55859502  1  0.087149  0  0.102189  0.163443  0  1.018513  0
H  H99  1  0.95935937  0.05916736  0.94140231  1  0.086766  0  0.102195  0.163487  0  1.018469  0
H  H100  1  0.43938597  0.59408587  0.44691513  1  0.037026  0  0.095677  0.14021  0  1.031457  0
H  H101  1  0.93937584  0.90590883  0.05309097  1  0.036829  0  0.095646  0.140199  0  1.031484  0
H  H102  1  0.56062442  0.40591101  0.55308312  1  0.03686  0  0.095644  0.140127  0  1.031546  0
H  H103  1  0.06062315  0.09408444  0.94691076  1  0.036953  0  0.095645  0.140222  0  1.031489  0
H  H104  1  0.49996954  0.61912920  0.52988056  1  0.089375  0  0.102951  0.161123  0  0.985355  0
H  H105  1  0.99995482  0.88087743  0.97012406  1  0.089373  0  0.10291  0.16104  0  0.985556  0
H  H106  1  0.50004325  0.38087559  0.47011803  1  0.089197  0  0.102953  0.161096  0  0.985526  0
H  H107  1  0.00004116  0.11913283  0.02987592  1  0.08946  0  0.102929  0.161106  0  0.985491  0
H  H108  1  0.55246680  0.81119181  0.40083788  1  0.092608  0  0.108645  0.119074  0  1.047454  0
H  H109  1  0.05246734  0.68880837  0.09915806  1  0.092702  0  0.108689  0.119118  0  1.047392  0
H  H110  1  0.44753339  0.18880991  0.59915829  1  0.092686  0  0.108677  0.119102  0  1.04739  0
H  H111  1  0.94753404  0.31119339  0.90084197  1  0.092753  0  0.108662  0.11909  0  1.047424  0
H  H112  1  0.53233551  0.86836712  0.49740894  1  0.064643  0  0.100533  0.118081  0  0.992712  0
H  H113  1  0.03233719  0.63163355  0.00258663  1  0.064539  0  0.100513  0.117998  0  0.992798  0
H  H114  1  0.46766408  0.13163340  0.50258857  1  0.064565  0  0.100508  0.118019  0  0.99279  0
H  H115  1  0.96766839  0.36836638  0.99741294  1  0.064736  0  0.100497  0.118005  0  0.992734  0
H  H116  1  0.45507459  0.85382827  0.42607064  1  0.087672  0  0.104119  0.134434  0  1.014817  0
H  H117  1  0.95507584  0.64616702  0.07392457  1  0.087689  0  0.104104  0.134438  0  1.014764  0
H  H118  1  0.54492440  0.14617102  0.57392602  1  0.087732  0  0.104125  0.13446  0  1.014787  0
H  H119  1  0.04492615  0.35383410  0.92607200  1  0.087578  0  0.104105  0.134432  0  1.014784  0
H  H120  1  0.35470564  0.75217986  0.46601959  1  0.050813  0  0.101803  0.116223  0  0.985814  0
H  H121  1  0.85470231  0.74781911  0.03397738  1  0.050807  0  0.1018  0.116227  0  0.985869  0
H  H122  1  0.64529514  0.24781821  0.53397621  1  0.050864  0  0.101804  0.116198  0  0.985891  0
H  H123  1  0.14530147  0.25218204  0.96602249  1  0.050688  0  0.101803  0.116253  0  0.985742  0
H  H124  1  0.40358253  0.81577964  0.54830863  1  0.065823  0  0.103617  0.117746  0  1.010687  0
H  H125  1  0.90357976  0.68421722  0.95168831  1  0.065726  0  0.103621  0.117748  0  1.010719  0
H  H126  1  0.59641946  0.18421781  0.45168647  1  0.065704  0  0.103626  0.117738  0  1.010732  0
H  H127  1  0.09642283  0.31578149  0.04831095  1  0.065737  0  0.103634  0.117765  0  1.0107  0
H  H128  1  0.40140299  0.70879751  0.53422160  1  0.079153  0  0.110242  0.130119  0  1.003963  0
H  H129  1  0.90140150  0.79119933  0.96577424  1  0.079105  0  0.110227  0.130105  0  1.00394  0
H  H130  1  0.59859899  0.29119934  0.46577389  1  0.07908  0  0.110244  0.130108  0  1.003934  0
H  H131  1  0.09860049  0.20879996  0.03422187  1  0.079187  0  0.110238  0.13012  0  1.003955  0
H  H132  1  0.64284099  0.76350437  0.54426026  1  0.607865  0  0.317455  0.407917  0  0.894259  0
H  H133  1  0.14283825  0.73649464  0.95574291  1  0.607917  0  0.317423  0.407864  0  0.894328  0
H  H134  1  0.35716040  0.23649739  0.45573976  1  0.607892  0  0.317417  0.407908  0  0.894279  0
H  H135  1  0.85716014  0.26350650  0.04425642  1  0.607859  0  0.317422  0.407856  0  0.894329  0
H  H136  1  0.58856975  0.75246452  0.61233285  1  0.624394  0  0.293354  0.379469  0  0.955125  0
H  H137  1  0.08856911  0.74753415  0.88766929  1  0.624384  0  0.293363  0.379472  0  0.955105  0
H  H138  1  0.41143224  0.24753480  0.38766712  1  0.624434  0  0.293338  0.379465  0  0.955124  0
H  H139  1  0.91142807  0.25246394  0.11232926  1  0.62443  0  0.293379  0.3795  0  0.955071  0
C  C140  1  0.60278354  0.47449668  0.71297693  1  0.033547  0  -0.021155  -0.140864  0  3.954925  0
C  C141  1  0.10278355  0.02549784  0.78702100  1  0.033473  0  -0.021184  -0.141007  0  3.954771  0
C  C142  1  0.39721845  0.52550022  0.28702352  1  0.033592  0  -0.021224  -0.141024  0  3.954809  0
C  C143  1  0.89721484  0.97449965  0.21297851  1  0.033518  0  -0.02117  -0.140907  0  3.954735  0
C  C144  1  0.32046073  0.02936060  0.51662010  1  0.00728  0  -0.086202  -0.203086  0  3.969153  0
C  C145  1  0.82046218  0.47063948  0.98337806  1  0.007631  0  -0.086184  -0.203184  0  3.969063  0
C  C146  1  0.67953946  0.97063992  0.48337742  1  0.007851  0  -0.086112  -0.203037  0  3.968846  0
C  C147  1  0.17954281  0.52935981  0.01661804  1  0.00764  0  -0.086127  -0.203069  0  3.968936  0
C  C148  1  0.67171859  0.49986869  0.68095408  1  0.406621  0  0.099447  0.248284  0  4.007015  0
C  C149  1  0.17171652  0.00012262  0.81904614  1  0.405976  0  0.099403  0.248345  0  4.007054  0
C  C150  1  0.32828640  0.50012458  0.31904765  1  0.405991  0  0.099346  0.248194  0  4.00713  0
C  C151  1  0.82828127  0.99987244  0.18095330  1  0.406064  0  0.099412  0.248271  0  4.007067  0
C  C152  1  0.73895609  0.44865156  0.66313896  1  0.000342  0  -0.100133  -0.210011  0  4.009045  0
C  C153  1  0.23895311  0.05133895  0.83686196  1  0.000302  0  -0.100143  -0.209916  0  4.009023  0
C  C154  1  0.26104830  0.55134110  0.33686317  1  0.000357  0  -0.100149  -0.209787  0  4.008844  0
C  C155  1  0.76104228  0.94865553  0.16313898  1  0.000214  0  -0.10011  -0.209959  0  4.009238  0
C  C156  1  0.73904704  0.37345695  0.67856596  1  -0.044364  0  -0.070294  -0.050451  0  3.961971  0
C  C157  1  0.23905061  0.12653416  0.82143456  1  -0.044124  0  -0.070347  -0.050455  0  3.961651  0
C  C158  1  0.26095135  0.62653570  0.32143506  1  -0.044598  0  -0.070385  -0.050642  0  3.962048  0
C  C159  1  0.76094777  0.87346030  0.17856417  1  -0.043873  0  -0.070397  -0.050535  0  3.961819  0
C  C160  1  0.67123729  0.34735662  0.71114560  1  -0.004411  0  -0.025558  -0.064919  0  4.002462  0
C  C161  1  0.17123815  0.15263714  0.78885688  1  -0.004502  0  -0.025645  -0.065039  0  4.002335  0
C  C162  1  0.32875989  0.65263723  0.28885408  1  -0.004067  0  -0.025597  -0.064956  0  4.002327  0
C  C163  1  0.82875963  0.84735976  0.21114357  1  -0.004974  0  -0.025578  -0.064978  0  4.002338  0
C  C164  1  0.60435389  0.39820264  0.72748175  1  -0.021067  0  -0.067506  -0.083285  0  3.947453  0
C  C165  1  0.10435746  0.10179130  0.77251768  1  -0.021153  0  -0.06746  -0.083278  0  3.947609  0
C  C166  1  0.39564570  0.60179427  0.27251926  1  -0.021124  0  -0.067418  -0.083156  0  3.947289  0
C  C167  1  0.89564092  0.89820619  0.22748182  1  -0.021074  0  -0.067396  -0.08319  0  3.947415  0
C  C168  1  0.52620687  0.52148449  0.72751029  1  1.524013  0  0.215438  0.620721  0  4.152056  0
C  C169  1  0.02620398  0.97850645  0.77248458  1  1.524151  0  0.215406  0.620668  0  4.1521  0
C  C170  1  0.47379872  0.47851544  0.27248928  1  1.52321  0  0.215501  0.620828  0  4.151898  0
C  C171  1  0.97379081  0.02148920  0.22751281  1  1.524159  0  0.215419  0.620683  0  4.152273  0
C  C172  1  0.66989623  0.26660920  0.72819441  1  1.560028  0  0.212888  0.59227  0  4.208379  0
C  C173  1  0.16990069  0.23338395  0.77180792  1  1.56059  0  0.212842  0.59217  0  4.208895  0
C  C174  1  0.33009676  0.73338591  0.27180889  1  1.560687  0  0.212782  0.592097  0  4.208921  0
C  C175  1  0.83009770  0.76661236  0.22819403  1  1.560754  0  0.21277  0.592095  0  4.208752  0
C  C176  1  0.70942614  0.58136903  0.60118166  1  0.34737  0  0.083786  0.244715  0  4.062294  0
C  C177  1  0.20942062  0.91862915  0.89882056  1  0.347686  0  0.083686  0.244704  0  4.062234  0
C  C178  1  0.29057764  0.41862726  0.39881864  1  0.347689  0  0.083729  0.244783  0  4.062208  0
C  C179  1  0.79057656  0.08137018  0.10117996  1  0.34757  0  0.083784  0.244815  0  4.062168  0
C  C180  1  0.68543991  0.52960744  0.53146030  1  0.021228  0  -0.087456  -0.200989  0  3.968707  0
C  C181  1  0.18543510  0.97039120  0.96854155  1  0.021685  0  -0.08735  -0.200877  0  3.968672  0
C  C182  1  0.31456208  0.47038824  0.46854039  1  0.0212  0  -0.087436  -0.201148  0  3.968768  0
C  C183  1  0.81456449  0.02960874  0.03145912  1  0.021772  0  -0.087444  -0.201086  0  3.968786  0
C  C184  1  0.71975025  0.53540289  0.46315554  1  0.047568  0  -0.004374  -0.034228  0  3.950043  0
C  C185  1  0.21974567  0.96460201  0.03684716  1  0.047034  0  -0.004351  -0.034415  0  3.950014  0
C  C186  1  0.28025053  0.46459886  0.53684394  1  0.047501  0  -0.004393  -0.034189  0  3.950027  0
C  C187  1  0.78025572  0.03540159  0.96315443  1  0.047035  0  -0.004336  -0.034268  0  3.950093  0
C  C188  1  0.78002378  0.59393086  0.46559439  1  -0.015587  0  -0.001437  -0.042062  0  3.937494  0
C  C189  1  0.28002241  0.90607499  0.03440673  1  -0.015258  0  -0.001474  -0.041882  0  3.937093  0
C  C190  1  0.21997221  0.40607270  0.53440334  1  -0.014907  0  -0.001337  -0.042004  0  3.937198  0
C  C191  1  0.71998018  0.09392740  0.96559511  1  -0.015645  0  -0.001455  -0.041971  0  3.937346  0
C  C192  1  0.80167598  0.64712936  0.53619278  1  0.012936  0  -0.084658  -0.096154  0  3.99212  0
C  C193  1  0.30167460  0.85287486  0.96381125  1  0.013007  0  -0.084677  -0.096223  0  3.992235  0
C  C194  1  0.19832121  0.35287057  0.46380734  1  0.012728  0  -0.084672  -0.096153  0  3.992061  0
C  C195  1  0.69832619  0.14712691  0.03619043  1  0.013057  0  -0.084697  -0.096216  0  3.992262  0
C  C196  1  0.76644078  0.64183965  0.60418312  1  -0.013361  0  -0.084853  -0.174086  0  3.972032  0
C  C197  1  0.26643846  0.85816010  0.89581988  1  -0.013727  0  -0.084893  -0.174091  0  3.972005  0
C  C198  1  0.23356181  0.35815725  0.39581678  1  -0.013897  0  -0.084851  -0.174044  0  3.971844  0
C  C199  1  0.73356052  0.14183923  0.10418063  1  -0.01374  0  -0.0849  -0.174088  0  3.972011  0
C  C200  1  0.68707003  0.48040799  0.39027942  1  1.552681  0  0.215008  0.574042  0  4.205895  0
C  C201  1  0.18705919  0.01959186  0.10971898  1  1.553671  0  0.215212  0.574373  0  4.205265  0
C  C202  1  0.31293436  0.51958828  0.60971922  1  1.553116  0  0.215086  0.574248  0  4.205388  0
C  C203  1  0.81293739  0.98040747  0.89028154  1  1.55339  0  0.215123  0.57419  0  4.205573  0
C  C204  1  0.82327059  0.60160243  0.39560072  1  1.565175  0  0.221357  0.601379  0  4.212529  0
C  C205  1  0.32327313  0.89840307  0.10440074  1  1.565497  0  0.221256  0.60117  0  4.212507  0
C  C206  1  0.17672060  0.39839991  0.60439726  1  1.565378  0  0.221379  0.601276  0  4.212298  0
C  C207  1  0.67673246  0.10159685  0.89559827  1  1.565787  0  0.221296  0.601248  0  4.212672  0
C  C208  1  0.39327528  0.89247705  0.71271156  1  -0.056093  0  -0.071747  -0.090096  0  3.974536  0
C  C209  1  0.89328155  0.60752350  0.78729623  1  -0.056191  0  -0.071784  -0.09041  0  3.974519  0
C  C210  1  0.60672071  0.10752413  0.28729217  1  -0.056007  0  -0.071814  -0.090243  0  3.974803  0
C  C211  1  0.10671564  0.39248075  0.21270992  1  -0.055838  0  -0.07175  -0.090266  0  3.974454  0
C  C212  1  0.32509705  0.84387161  0.69347355  1  -0.023113  0  -0.027687  -0.072817  0  4.015605  0
C  C213  1  0.82509878  0.65612733  0.80653568  1  -0.022714  0  -0.027592  -0.072482  0  4.015296  0
C  C214  1  0.67489954  0.15613141  0.30653175  1  -0.022938  0  -0.027539  -0.072715  0  4.01561  0
C  C215  1  0.17489781  0.34387693  0.19347213  1  -0.023181  0  -0.027608  -0.07259  0  4.015418  0
C  C216  1  0.25997154  0.87334412  0.66001743  1  -0.038079  0  -0.069853  -0.045662  0  3.958334  0
C  C217  1  0.75997176  0.62665315  0.83998552  1  -0.038377  0  -0.069903  -0.045649  0  3.958392  0
C  C218  1  0.74002565  0.12665766  0.33998535  1  -0.038162  0  -0.0699  -0.045664  0  3.958486  0
C  C219  1  0.24002303  0.37334864  0.16001892  1  -0.038055  0  -0.069798  -0.045584  0  3.958307  0
C  C220  1  0.26470232  0.94884029  0.64538666  1  0.009355  0  -0.10009  -0.213922  0  4.009082  0
C  C221  1  0.76469958  0.55115821  0.85461494  1  0.009132  0  -0.100049  -0.213916  0  4.009007  0
C  C222  1  0.73529607  0.05116025  0.35461306  1  0.008954  0  -0.100047  -0.213943  0  4.00915  0
C  C223  1  0.23529581  0.44884418  0.14538800  1  0.008864  0  -0.100057  -0.213901  0  4.009076  0
C  C224  1  0.33364876  0.99735558  0.66551561  1  0.444787  0  0.101786  0.254196  0  4.004815  0
C  C225  1  0.83364816  0.50263966  0.83448222  1  0.444257  0  0.101838  0.254359  0  4.004755  0
C  C226  1  0.66635203  0.00264128  0.33448043  1  0.44424  0  0.101798  0.254298  0  4.00484  0
C  C227  1  0.16634903  0.49736209  0.16551671  1  0.444328  0  0.101743  0.254152  0  4.005098  0
C  C228  1  0.39910916  0.96932412  0.70016260  1  0.035211  0  -0.022402  -0.141591  0  3.961639  0
C  C229  1  0.89911427  0.53067526  0.79984708  1  0.035236  0  -0.022353  -0.141594  0  3.961514  0
C  C230  1  0.60088863  0.03067521  0.29983847  1  0.035051  0  -0.022419  -0.141659  0  3.961613  0
C  C231  1  0.10088532  0.46932775  0.20015766  1  0.035159  0  -0.022323  -0.141467  0  3.961587  0
C  C232  1  0.32335207  0.76260495  0.70932212  1  1.551181  0  0.213541  0.595777  0  4.208263  0
C  C233  1  0.82335560  0.73738719  0.79067660  1  1.550814  0  0.213377  0.59553  0  4.20837  0
C  C234  1  0.67664572  0.23739438  0.29067894  1  1.551237  0  0.213509  0.59585  0  4.208165  0
C  C235  1  0.17663918  0.26261458  0.20932508  1  1.551275  0  0.213397  0.595712  0  4.20826  0
C  C236  1  0.47562450  0.01510260  0.72234293  1  1.538019  0  0.215721  0.625194  0  4.164637  0
C  C237  1  0.97563214  0.48490096  0.77766721  1  1.537629  0  0.215621  0.625238  0  4.164642  0
C  C238  1  0.52437149  0.98489675  0.27765924  1  1.537612  0  0.215723  0.625227  0  4.164422  0
C  C239  1  0.02436924  0.51510635  0.22234137  1  1.537659  0  0.215597  0.625089  0  4.164509  0
C  C240  1  0.30114809  0.08211968  0.58735783  1  0.364704  0  0.085646  0.244955  0  4.062288  0
C  C241  1  0.80114643  0.41787664  0.91263998  1  0.36457  0  0.085695  0.24509  0  4.06208  0
C  C242  1  0.69885630  0.91787841  0.41263962  1  0.364414  0  0.085657  0.24497  0  4.062095  0
C  C243  1  0.19885436  0.58212266  0.08735668  1  0.364601  0  0.085655  0.245046  0  4.062093  0
C  C244  1  0.24833381  0.14665563  0.59297204  1  0.003375  0  -0.079976  -0.166227  0  3.953529  0
C  C245  1  0.74833473  0.35334284  0.90702921  1  0.003328  0  -0.079975  -0.166173  0  3.95346  0
C  C246  1  0.75166998  0.85334551  0.40702673  1  0.003224  0  -0.079947  -0.166134  0  3.953406  0
C  C247  1  0.25166546  0.64665829  0.09296846  1  0.003488  0  -0.079959  -0.16621  0  3.953587  0
C  C248  1  0.21108173  0.15470633  0.52684538  1  0.011974  0  -0.080333  -0.085115  0  3.975316  0
C  C249  1  0.71108057  0.34529434  0.97315599  1  0.012087  0  -0.080365  -0.085139  0  3.975275  0
C  C250  1  0.78892266  0.84529602  0.47315315  1  0.012142  0  -0.080364  -0.08521  0  3.975244  0
C  C251  1  0.28892081  0.65470863  0.02684324  1  0.012075  0  -0.080325  -0.085237  0  3.975306  0
C  C252  1  0.22685280  0.10013736  0.45531466  1  -0.003765  0  -0.001842  -0.04476  0  3.932549  0
C  C253  1  0.72685405  0.39986576  0.04468335  1  -0.003609  0  -0.001869  -0.044897  0  3.932686  0
C  C254  1  0.77314859  0.89986557  0.54468127  1  -0.003642  0  -0.001834  -0.04483  0  3.932542  0
C  C255  1  0.27315033  0.60013720  0.95531588  1  -0.003743  0  -0.001856  -0.044691  0  3.932402  0
C  C256  1  0.28400807  0.03785185  0.45003117  1  -0.029369  0  -0.006097  -0.03972  0  3.954192  0
C  C257  1  0.78400733  0.46215283  0.04996707  1  -0.029913  0  -0.006109  -0.039636  0  3.954313  0
C  C258  1  0.71599211  0.96215110  0.54996696  1  -0.029945  0  -0.006174  -0.039725  0  3.954069  0
C  C259  1  0.21599706  0.53784828  0.95002895  1  -0.02975  0  -0.006172  -0.039808  0  3.954091  0
C  C260  1  0.31072470  0.98074221  0.37578354  1  1.544712  0  0.212985  0.573537  0  4.213437  0
C  C261  1  0.81072553  0.51926379  0.12421423  1  1.545232  0  0.213008  0.573408  0  4.213812  0
C  C262  1  0.68927128  0.01925528  0.62421486  1  1.545222  0  0.212974  0.573457  0  4.213728  0
C  C263  1  0.18928126  0.48073855  0.87578374  1  1.54494  0  0.213048  0.573478  0  4.213594  0
C  C264  1  0.17849467  0.10841923  0.38810614  1  1.588768  0  0.219213  0.599505  0  4.214487  0
C  C265  1  0.67849865  0.39158913  0.11189717  1  1.588918  0  0.219284  0.599704  0  4.214271  0
C  C266  1  0.82150431  0.89158618  0.61189425  1  1.588954  0  0.219269  0.599639  0  4.214237  0
C  C267  1  0.32150574  0.60841625  0.88810102  1  1.588832  0  0.219139  0.599431  0  4.214548  0
C  C268  1  0.50068261  0.60994297  0.46756955  1  -0.102045  0  -0.241099  -0.512136  0  3.895349  0
C  C269  1  0.00067153  0.89005758  0.03243323  1  -0.10242  0  -0.241004  -0.511937  0  3.89553  0
C  C270  1  0.49932838  0.39005754  0.53242741  1  -0.102174  0  -0.241081  -0.511944  0  3.89545  0
C  C271  1  0.99932746  0.10994296  0.96756594  1  -0.102268  0  -0.24106  -0.512158  0  3.895393  0
C  C272  1  0.52946019  0.68489130  0.44689683  1  1.373125  0  0.243451  0.51456  0  4.079508  0
C  C273  1  0.02945213  0.81510878  0.05310300  1  1.372593  0  0.243487  0.514341  0  4.079401  0
C  C274  1  0.47054480  0.31510920  0.55309848  1  1.372149  0  0.243434  0.514359  0  4.079488  0
C  C275  1  0.97055345  0.18489048  0.94689090  1  1.373117  0  0.243465  0.514516  0  4.079006  0
C  C276  1  0.50696889  0.82566688  0.44579115  1  0.236704  0  -0.141148  -0.280085  0  3.887701  0
C  C277  1  0.00696829  0.67433059  0.05420313  1  0.236731  0  -0.14108  -0.280013  0  3.887729  0
C  C278  1  0.49303069  0.17433179  0.55420370  1  0.236714  0  -0.141082  -0.280053  0  3.887698  0
C  C279  1  0.99303370  0.32567115  0.94579524  1  0.236529  0  -0.141076  -0.279969  0  3.887502  0
C  C280  1  0.40617511  0.75655212  0.50492956  1  0.259277  0  -0.131067  -0.264113  0  3.899984  0
C  C281  1  0.90617319  0.74344598  0.99506768  1  0.259326  0  -0.131089  -0.264236  0  3.900017  0
C  C282  1  0.59382627  0.24344595  0.49506624  1  0.2593  0  -0.13114  -0.26421  0  3.900085  0
C  C283  1  0.09383119  0.25655394  0.00493078  1  0.259251  0  -0.131141  -0.264275  0  3.899876  0
N  N284  1  0.48164527  0.75103941  0.46332879  1  -1.20073  0  -0.279416  -0.027249  0  3.661438  0
N  N285  1  0.98164373  0.74895849  0.03666810  1  -1.200337  0  -0.279458  -0.027035  0  3.661528  0
N  N286  1  0.51835612  0.24895926  0.53666606  1  -1.199943  0  -0.279457  -0.027043  0  3.66149  0
N  N287  1  0.01836005  0.25104141  0.96332816  1  -1.200166  0  -0.279324  -0.027125  0  3.661329  0
O  O288  1  0.47505937  0.09294218  0.74328143  1  -1.139319  0  -0.315815  -0.553678  0  2.247576  0
O  O289  1  0.97506476  0.40706013  0.75672564  1  -1.139177  0  -0.315774  -0.553727  0  2.247599  0
O  O290  1  0.52493842  0.90705655  0.25671893  1  -1.139287  0  -0.315858  -0.553763  0  2.247591  0
O  O291  1  0.02493903  0.59294777  0.24328143  1  -1.139396  0  -0.31578  -0.553747  0  2.24736  0
O  O292  1  0.53976072  0.97416125  0.72044281  1  -1.203825  0  -0.379907  -0.639175  0  2.264166  0
O  O293  1  0.03976676  0.52584278  0.77957896  1  -1.203494  0  -0.379876  -0.639123  0  2.264077  0
O  O294  1  0.46023466  0.02583879  0.27956943  1  -1.203491  0  -0.379863  -0.639077  0  2.264027  0
O  O295  1  0.96023282  0.47416642  0.22043724  1  -1.203503  0  -0.379872  -0.639067  0  2.264211  0
O  O296  1  0.46091423  0.48138908  0.72316479  1  -1.199449  0  -0.362965  -0.619388  0  2.265979  0
O  O297  1  0.96091094  0.01860329  0.77682827  1  -1.199464  0  -0.362942  -0.619469  0  2.266167  0
O  O298  1  0.53909256  0.51861022  0.27683297  1  -1.198929  0  -0.362932  -0.619454  0  2.265937  0
O  O299  1  0.03908505  0.98139599  0.22316618  1  -1.199496  0  -0.362922  -0.619431  0  2.266147  0
O  O300  1  0.59723083  0.68512980  0.41558344  1  -1.207811  0  -0.375185  -0.616454  0  2.198901  0
O  O301  1  0.09722507  0.81487374  0.08441762  1  -1.207662  0  -0.37522  -0.616378  0  2.198704  0
O  O302  1  0.40277476  0.31487495  0.58441184  1  -1.207617  0  -0.375119  -0.616351  0  2.198862  0
O  O303  1  0.90278052  0.18512611  0.91557368  1  -1.208065  0  -0.375262  -0.61642  0  2.198422  0
O  O304  1  0.52655940  0.59919216  0.74315994  1  -1.123874  0  -0.319196  -0.560434  0  2.235892  0
O  O305  1  0.02655484  0.90080122  0.75683609  1  -1.123968  0  -0.319144  -0.560284  0  2.235812  0
O  O306  1  0.47344739  0.40080777  0.25683962  1  -1.123697  0  -0.319244  -0.560403  0  2.235895  0
O  O307  1  0.97343995  0.09919386  0.24316445  1  -1.124012  0  -0.319178  -0.560313  0  2.235944  0
O  O308  1  0.56269846  0.75163384  0.25339428  1  -1.308872  0  -0.654124  -0.838689  0  1.951694  0
O  O309  1  0.06270010  0.74837256  0.24660979  1  -1.308944  0  -0.654211  -0.838829  0  1.951712  0
O  O310  1  0.43729573  0.24836669  0.74660488  1  -1.308946  0  -0.654114  -0.838759  0  1.951578  0
O  O311  1  0.93729828  0.25163224  0.75339045  1  -1.308952  0  -0.654166  -0.838707  0  1.951647  0
O  O312  1  0.60240700  0.24453735  0.75110812  1  -1.16343  0  -0.323232  -0.567528  0  2.281504  0
O  O313  1  0.10240629  0.25545544  0.74889927  1  -1.16326  0  -0.323241  -0.567623  0  2.281761  0
O  O314  1  0.39758719  0.75546083  0.24889925  1  -1.163184  0  -0.323219  -0.567534  0  2.281844  0
O  O315  1  0.89759030  0.74454274  0.25110756  1  -1.163383  0  -0.323204  -0.567529  0  2.281695  0
O  O316  1  0.58665245  0.57788124  0.12780359  1  -1.262813  0  -0.626082  -0.821032  0  1.936471  0
O  O317  1  0.08665605  0.92212650  0.37219856  1  -1.262485  0  -0.626013  -0.821005  0  1.936488  0
O  O318  1  0.41334353  0.42212234  0.87219634  1  -1.262562  0  -0.626051  -0.82106  0  1.936432  0
O  O319  1  0.91334234  0.07788074  0.62780230  1  -1.262521  0  -0.626112  -0.821227  0  1.936292  0
O  O320  1  0.73322367  0.22447696  0.72096334  1  -1.211811  0  -0.366967  -0.625705  0  2.19799  0
O  O321  1  0.23322479  0.27551533  0.77903750  1  -1.212312  0  -0.366839  -0.625498  0  2.198303  0
O  O322  1  0.26676812  0.77551322  0.27903377  1  -1.212406  0  -0.366853  -0.625538  0  2.198198  0
O  O323  1  0.76677240  0.72447974  0.22096249  1  -1.212387  0  -0.366889  -0.625549  0  2.198194  0
O  O324  1  0.58391796  0.91449836  0.88589747  1  -1.25599  0  -0.625014  -0.818988  0  1.897182  0
O  O325  1  0.08391835  0.58550153  0.61410774  1  -1.255802  0  -0.625047  -0.819116  0  1.897036  0
O  O326  1  0.41608223  0.08550159  0.11410430  1  -1.25571  0  -0.625016  -0.819041  0  1.89711  0
O  O327  1  0.91608183  0.41450025  0.38589505  1  -1.256047  0  -0.625007  -0.818998  0  1.897157  0
O  O328  1  0.67295221  0.57586762  0.66836655  1  -1.090467  0  -0.144544  -0.206257  0  2.57518  0
O  O329  1  0.17294515  0.92412608  0.83163464  1  -1.089769  0  -0.144499  -0.206243  0  2.575458  0
O  O330  1  0.32705578  0.42412806  0.33163360  1  -1.089663  0  -0.144459  -0.206207  0  2.575477  0
O  O331  1  0.82705084  0.07587144  0.16836706  1  -1.089553  0  -0.144516  -0.206247  0  2.575287  0
O  O332  1  0.61743364  0.79265740  0.59224533  1  -1.243733  0  -0.622291  -0.802061  0  1.983324  0
O  O333  1  0.11743386  0.70734205  0.90775637  1  -1.243773  0  -0.622265  -0.802023  0  1.983389  0
O  O334  1  0.38256595  0.20734314  0.40775383  1  -1.243792  0  -0.622233  -0.802067  0  1.983345  0
O  O335  1  0.88256452  0.29265727  0.09224360  1  -1.243795  0  -0.622271  -0.802041  0  1.983355  0
O  O336  1  0.62665970  0.43668636  0.39330937  1  -1.155016  0  -0.30871  -0.52753  0  2.177067  0
O  O337  1  0.12664977  0.06331252  0.10668840  1  -1.155334  0  -0.30882  -0.527663  0  2.176801  0
O  O338  1  0.37334588  0.56330929  0.60668802  1  -1.15506  0  -0.308721  -0.527612  0  2.176802  0
O  O339  1  0.87334741  0.93668739  0.89330951  1  -1.155234  0  -0.308761  -0.527567  0  2.176936  0
O  O340  1  0.55160541  0.73789920  0.70264062  1  -1.325071  0  -0.60694  -0.813892  0  1.967288  0
O  O341  1  0.05160518  0.76210229  0.79736178  1  -1.325097  0  -0.60694  -0.813856  0  1.967322  0
O  O342  1  0.44839778  0.26210072  0.29735784  1  -1.325217  0  -0.606956  -0.813893  0  1.967207  0
O  O343  1  0.94839441  0.23789643  0.20263858  1  -1.325157  0  -0.607019  -0.813925  0  1.967233  0
O  O344  1  0.72010260  0.48158002  0.32622725  1  -1.207072  0  -0.35926  -0.662062  0  2.301946  0
O  O345  1  0.22009094  0.01842495  0.17377619  1  -1.207869  0  -0.359307  -0.662169  0  2.301559  0
O  O346  1  0.27990599  0.51841569  0.67377510  1  -1.207552  0  -0.359353  -0.662228  0  2.301743  0
O  O347  1  0.77990384  0.98157623  0.82622644  1  -1.207654  0  -0.35931  -0.662142  0  2.301702  0
O  O348  1  0.88939423  0.56435406  0.37730048  1  -1.176236  0  -0.301503  -0.563439  0  2.205022  0
O  O349  1  0.38939816  0.93565061  0.12270003  1  -1.17645  0  -0.301479  -0.563393  0  2.205021  0
O  O350  1  0.11059875  0.43565072  0.62269811  1  -1.176463  0  -0.301509  -0.563443  0  2.205001  0
O  O351  1  0.61060683  0.06434994  0.87730079  1  -1.176259  0  -0.301504  -0.563448  0  2.205166  0
O  O352  1  0.79485542  0.64876739  0.35834094  1  -1.184402  0  -0.357577  -0.608098  0  2.299578  0
O  O353  1  0.29486111  0.85123734  0.14166150  1  -1.184827  0  -0.35747  -0.607973  0  2.299573  0
O  O354  1  0.20513397  0.35123435  0.64165743  1  -1.184727  0  -0.357559  -0.607957  0  2.299362  0
O  O355  1  0.70514268  0.14876381  0.85833837  1  -1.184905  0  -0.357511  -0.608003  0  2.299607  0
O  O356  1  0.39109913  0.73792108  0.72990278  1  -1.171235  0  -0.328073  -0.58183  0  2.309714  0
O  O357  1  0.89109390  0.76207568  0.77009087  1  -1.171206  0  -0.327954  -0.581725  0  2.309942  0
O  O358  1  0.60889925  0.26207945  0.27009584  1  -1.171307  0  -0.328104  -0.581888  0  2.309587  0
O  O359  1  0.10890089  0.23792547  0.22990956  1  -1.171327  0  -0.328  -0.581809  0  2.309912  0
O  O360  1  0.25863739  0.72329260  0.70422694  1  -1.202968  0  -0.367183  -0.616974  0  2.176777  0
O  O361  1  0.75863157  0.77669608  0.79576780  1  -1.202807  0  -0.367241  -0.617058  0  2.176599  0
O  O362  1  0.74136219  0.27670428  0.29577131  1  -1.202884  0  -0.367189  -0.61703  0  2.176754  0
O  O363  1  0.24136201  0.22330384  0.20423067  1  -1.202805  0  -0.367236  -0.617131  0  2.176563  0
O  O364  1  0.33782581  0.07327400  0.65334553  1  -1.092927  0  -0.141313  -0.203086  0  2.571505  0
O  O365  1  0.83782263  0.42672191  0.84664987  1  -1.091999  0  -0.141351  -0.203124  0  2.571295  0
O  O366  1  0.66217738  0.92672468  0.34664987  1  -1.091976  0  -0.141361  -0.203136  0  2.571379  0
O  O367  1  0.16217456  0.57327738  0.15334568  1  -1.092269  0  -0.141324  -0.203106  0  2.57151  0
O  O368  1  0.36673730  0.93110536  0.37711395  1  -1.140458  0  -0.305538  -0.523505  0  2.222494  0
O  O369  1  0.86673906  0.56889733  0.12288448  1  -1.140672  0  -0.305636  -0.52355  0  2.222701  0
O  O370  1  0.63325449  0.06888606  0.62288567  1  -1.140477  0  -0.305579  -0.523541  0  2.22261  0
O  O371  1  0.13326593  0.43110439  0.87711169  1  -1.14055  0  -0.305593  -0.523522  0  2.222752  0
O  O372  1  0.27822651  0.98564316  0.31279303  1  -1.208696  0  -0.359093  -0.66805  0  2.290734  0
O  O373  1  0.77821809  0.51436748  0.18720161  1  -1.209038  0  -0.359012  -0.667964  0  2.291043  0
O  O374  1  0.72177248  0.01435431  0.68720317  1  -1.209082  0  -0.359029  -0.667945  0  2.290892  0
O  O375  1  0.22178690  0.48563363  0.81279440  1  -1.208559  0  -0.359097  -0.668022  0  2.290797  0
O  O376  1  0.20626870  0.15040883  0.34521375  1  -1.183228  0  -0.37214  -0.623285  0  2.326723  0
O  O377  1  0.70627045  0.34959602  0.15478640  1  -1.183424  0  -0.372145  -0.623306  0  2.326839  0
O  O378  1  0.79372848  0.84959107  0.65478196  1  -1.183376  0  -0.372167  -0.623362  0  2.326679  0
O  O379  1  0.29373154  0.65040876  0.84521164  1  -1.183267  0  -0.372158  -0.623248  0  2.326767  0
O  O380  1  0.10953567  0.07639059  0.37774941  1  -1.178394  0  -0.301266  -0.548327  0  2.183893  0
O  O381  1  0.60953862  0.42361614  0.12225424  1  -1.17837  0  -0.301337  -0.548479  0  2.1836  0
O  O382  1  0.89046032  0.92361973  0.62225662  1  -1.178415  0  -0.301294  -0.548405  0  2.183716  0
O  O383  1  0.39046697  0.57638986  0.87774466  1  -1.178469  0  -0.301196  -0.548307  0  2.183903  0
