# generated using pymatgen
data_ZnH7C11N3O2
_symmetry_space_group_name_H-M   'P 1'
_cell_length_a   15.79850595
_cell_length_b   15.79851322
_cell_length_c   15.79851419
_cell_angle_alpha   100.86114217
_cell_angle_beta   100.86118544
_cell_angle_gamma   100.86115259
_symmetry_Int_Tables_number   1
_chemical_formula_structural   ZnH7C11N3O2
_chemical_formula_sum   'Zn6 H42 C66 N18 O12'
_cell_volume   3699.26110581
_cell_formula_units_Z   6
loop_
 _symmetry_equiv_pos_site_id
 _symmetry_equiv_pos_as_xyz
  1  'x, y, z'
loop_
 _atom_site_type_symbol
 _atom_site_label
 _atom_site_symmetry_multiplicity
 _atom_site_fract_x
 _atom_site_fract_y
 _atom_site_fract_z
 _atom_site_occupancy
 _atom_site_pbe_bader_charge
 _atom_site_pbe_bader_spin_density
 _atom_site_pbe_cm5_charge
 _atom_site_pbe_ddec_charge
 _atom_site_pbe_ddec_spin_density
 _atom_site_pbe_ddec_sum_bond_order
 _atom_site_pbe_magmom
Zn  Zn0  1  0.57203158  0.96900952  0.58803368  1  1.21612  0  0.705069  0.662498  0  2.485543  0
Zn  Zn1  1  0.58803375  0.57203158  0.96900931  1  1.216123  0  0.705085  0.662546  0  2.485549  0
Zn  Zn2  1  0.96900955  0.58803384  0.57203162  1  1.216121  0  0.705084  0.66249  0  2.485574  0
Zn  Zn3  1  0.42796826  0.03099075  0.41196619  1  1.216118  0  0.705082  0.662515  0  2.485547  0
Zn  Zn4  1  0.41196610  0.42796869  0.03099056  1  1.216263  0  0.705073  0.662526  0  2.485563  0
Zn  Zn5  1  0.03099029  0.41196643  0.42796824  1  1.216266  0  0.705083  0.662564  0  2.485535  0
H  H6  1  0.65756289  0.16485106  0.63594332  1  0.120567  0  0.114827  0.080906  0  1.013434  0
H  H7  1  0.63594267  0.65756210  0.16485009  1  0.120569  0  0.114837  0.08092  0  1.013455  0
H  H8  1  0.16485045  0.63594249  0.65756200  1  0.120575  0  0.114841  0.080941  0  1.013435  0
H  H9  1  0.34243828  0.83514952  0.36405685  1  0.120583  0  0.114836  0.080932  0  1.013444  0
H  H10  1  0.36405651  0.34243737  0.83514950  1  0.120575  0  0.114828  0.080926  0  1.013427  0
H  H11  1  0.83514940  0.36405649  0.34243762  1  0.120574  0  0.114834  0.08089  0  1.01349  0
H  H12  1  0.64650797  0.29758884  0.74079954  1  0.074522  0  0.115349  0.127158  0  0.984917  0
H  H13  1  0.74079885  0.64650754  0.29758790  1  0.074533  0  0.115362  0.127148  0  0.984951  0
H  H14  1  0.29758849  0.74079943  0.64650758  1  0.074525  0  0.115354  0.127133  0  0.984957  0
H  H15  1  0.35349320  0.70241174  0.25920063  1  0.074528  0  0.115334  0.127119  0  0.984959  0
H  H16  1  0.25920034  0.35349258  0.70241181  1  0.074528  0  0.115334  0.127117  0  0.984953  0
H  H17  1  0.70241135  0.25920019  0.35349216  1  0.074523  0  0.115344  0.127145  0  0.984939  0
H  H18  1  0.50579755  0.12094406  0.87370230  1  0.063284  0  0.111937  0.120473  0  0.988666  0
H  H19  1  0.87370254  0.50579731  0.12094477  1  0.063286  0  0.111943  0.120491  0  0.988659  0
H  H20  1  0.12094400  0.87370262  0.50579693  1  0.063273  0  0.111944  0.120475  0  0.988671  0
H  H21  1  0.49420296  0.87905572  0.12629759  1  0.063278  0  0.111945  0.12047  0  0.988687  0
H  H22  1  0.12629730  0.49420360  0.87905585  1  0.063448  0  0.111953  0.120508  0  0.988624  0
H  H23  1  0.87905585  0.12629700  0.49420281  1  0.063271  0  0.111957  0.120489  0  0.988652  0
H  H24  1  0.52550651  0.99489190  0.76337947  1  0.132168  0  0.120895  0.102786  0  1.005527  0
H  H25  1  0.76338041  0.52550697  0.99489164  1  0.13216  0  0.120886  0.102777  0  1.005533  0
H  H26  1  0.99489146  0.76338066  0.52550703  1  0.132157  0  0.120898  0.102769  0  1.005533  0
H  H27  1  0.47449333  0.00510837  0.23661976  1  0.132157  0  0.120886  0.102755  0  1.005533  0
H  H28  1  0.23661944  0.47449330  0.00510822  1  0.132161  0  0.120898  0.102771  0  1.00554  0
H  H29  1  0.00510838  0.23662025  0.47449295  1  0.132158  0  0.120884  0.102773  0  1.005541  0
H  H30  1  0.46665642  0.24806631  0.95800659  1  0.083811  0  0.126714  0.117336  0  0.983963  0
H  H31  1  0.95800608  0.46665640  0.24806604  1  0.083833  0  0.126715  0.117332  0  0.983952  0
H  H32  1  0.24806593  0.95800636  0.46665646  1  0.083821  0  0.126718  0.117342  0  0.983958  0
H  H33  1  0.53334342  0.75193396  0.04199327  1  0.083825  0  0.126711  0.117325  0  0.983953  0
H  H34  1  0.04199376  0.53334387  0.75193383  1  0.083829  0  0.126712  0.11733  0  0.983957  0
H  H35  1  0.75193391  0.04199326  0.53334392  1  0.08381  0  0.126726  0.117373  0  0.983931  0
H  H36  1  0.63010546  0.41965464  0.83616809  1  0.148348  0  0.123307  0.127414  0  1.016379  0
H  H37  1  0.83616801  0.63010560  0.41965467  1  0.148339  0  0.123323  0.127439  0  1.016354  0
H  H38  1  0.41965466  0.83616796  0.63010527  1  0.148348  0  0.123307  0.127408  0  1.01638  0
H  H39  1  0.36989504  0.58034578  0.16383192  1  0.148353  0  0.123319  0.127417  0  1.016372  0
H  H40  1  0.16383249  0.36989482  0.58034534  1  0.148347  0  0.123313  0.127419  0  1.016366  0
H  H41  1  0.58034584  0.16383182  0.36989463  1  0.148353  0  0.123316  0.127412  0  1.016384  0
H  H42  1  0.75613055  0.79166158  0.59983053  1  0.133696  0  0.104503  0.114673  0  1.011754  0
H  H43  1  0.59982984  0.75613075  0.79166134  1  0.133754  0  0.104481  0.114635  0  1.011791  0
H  H44  1  0.79166146  0.59982951  0.75613102  1  0.13375  0  0.104483  0.114629  0  1.011787  0
H  H45  1  0.24386863  0.20833918  0.40016930  1  0.133797  0  0.104493  0.114653  0  1.011776  0
H  H46  1  0.40016934  0.24386872  0.20833888  1  0.133718  0  0.104495  0.114644  0  1.01178  0
H  H47  1  0.20834037  0.40017122  0.24387057  1  0.133671  0  0.104495  0.114655  0  1.011796  0
C  C48  1  0.62475606  0.15819098  0.69005464  1  0.392279  0  0.042185  0.09023  0  3.981457  0
C  C49  1  0.69005439  0.62475623  0.15819091  1  0.392267  0  0.042186  0.090222  0  3.981463  0
C  C50  1  0.15819097  0.69005460  0.62475545  1  0.392299  0  0.042118  0.090058  0  3.981381  0
C  C51  1  0.37524445  0.84180880  0.30994526  1  0.392276  0  0.042145  0.090104  0  3.981448  0
C  C52  1  0.30994546  0.37524404  0.84180895  1  0.392269  0  0.04215  0.090111  0  3.981427  0
C  C53  1  0.84180887  0.30994502  0.37524366  1  0.392281  0  0.042187  0.090247  0  3.981488  0
C  C54  1  0.61815176  0.23210200  0.74898049  1  0.043821  0  -0.084982  -0.18214  0  3.939964  0
C  C55  1  0.74897998  0.61815113  0.23210178  1  0.043814  0  -0.084967  -0.182088  0  3.940097  0
C  C56  1  0.23210214  0.74898056  0.61815134  1  0.04381  0  -0.084999  -0.182114  0  3.940069  0
C  C57  1  0.38184875  0.76789778  0.25102004  1  0.043799  0  -0.084973  -0.182074  0  3.940014  0
C  C58  1  0.25101986  0.38184849  0.76789796  1  0.04381  0  -0.084939  -0.182008  0  3.940026  0
C  C59  1  0.76789771  0.25101971  0.38184852  1  0.043812  0  -0.084977  -0.182124  0  3.940019  0
C  C60  1  0.57229692  0.22201449  0.81621074  1  -0.037622  0  0.01728  0.143882  0  4.029988  0
C  C61  1  0.81621028  0.57229679  0.22201439  1  -0.037619  0  0.017265  0.143895  0  4.030056  0
C  C62  1  0.22201550  0.81621087  0.57229665  1  -0.037623  0  0.017266  0.143957  0  4.030076  0
C  C63  1  0.42770293  0.77798513  0.18378900  1  -0.037609  0  0.017249  0.143886  0  4.030057  0
C  C64  1  0.18378956  0.42770348  0.77798484  1  -0.037614  0  0.017219  0.14379  0  4.030066  0
C  C65  1  0.77798501  0.18378890  0.42770261  1  -0.037626  0  0.017217  0.14383  0  4.030058  0
C  C66  1  0.54005698  0.13440303  0.82223530  1  0.01998  0  -0.085824  -0.184744  0  3.944263  0
C  C67  1  0.82223493  0.54005682  0.13440266  1  0.019987  0  -0.085817  -0.184759  0  3.944234  0
C  C68  1  0.13440292  0.82223546  0.54005701  1  0.020002  0  -0.085814  -0.18476  0  3.944234  0
C  C69  1  0.45994286  0.86559723  0.17776456  1  0.019993  0  -0.085823  -0.184776  0  3.944247  0
C  C70  1  0.17776425  0.45994265  0.86559693  1  0.019824  0  -0.085813  -0.184755  0  3.944164  0
C  C71  1  0.86559693  0.17776416  0.45994273  1  0.020007  0  -0.085799  -0.184707  0  3.944158  0
C  C72  1  0.54991899  0.06362230  0.76112945  1  0.441406  0  0.047255  0.095833  0  3.946197  0
C  C73  1  0.76112937  0.54991898  0.06362196  1  0.441401  0  0.04724  0.095819  0  3.946247  0
C  C74  1  0.06362216  0.76112941  0.54991863  1  0.441402  0  0.047237  0.095808  0  3.946238  0
C  C75  1  0.45008152  0.93637812  0.23887057  1  0.441395  0  0.047278  0.095904  0  3.946206  0
C  C76  1  0.23887047  0.45008129  0.93637791  1  0.441403  0  0.047285  0.095889  0  3.946236  0
C  C77  1  0.93637835  0.23887101  0.45008139  1  0.441409  0  0.047247  0.095805  0  3.946234  0
C  C78  1  0.55660349  0.29834397  0.87283244  1  -0.024671  0  -0.041241  -0.074756  0  4.10282  0
C  C79  1  0.87283174  0.55660389  0.29834440  1  -0.024669  0  -0.041243  -0.074784  0  4.102844  0
C  C80  1  0.29834410  0.87283297  0.55660364  1  -0.024691  0  -0.041224  -0.074762  0  4.102894  0
C  C81  1  0.44339569  0.70165550  0.12716715  1  -0.024684  0  -0.041215  -0.074718  0  4.102844  0
C  C82  1  0.12716810  0.44339702  0.70165559  1  -0.024674  0  -0.041238  -0.074741  0  4.102824  0
C  C83  1  0.70165641  0.12716809  0.44339713  1  -0.02467  0  -0.041244  -0.074745  0  4.10282  0
C  C84  1  0.50379389  0.30125715  0.93559322  1  0.441459  0  0.019304  -0.036314  0  3.961917  0
C  C85  1  0.93559306  0.50379443  0.30125778  1  0.441468  0  0.019303  -0.036273  0  3.961906  0
C  C86  1  0.30125718  0.93559318  0.50379423  1  0.441447  0  0.019307  -0.03632  0  3.961944  0
C  C87  1  0.49620529  0.69874232  0.06440637  1  0.441468  0  0.019312  -0.036292  0  3.961903  0
C  C88  1  0.06440678  0.49620584  0.69874208  1  0.441459  0  0.019294  -0.036331  0  3.961914  0
C  C89  1  0.69874266  0.06440644  0.49620552  1  0.441445  0  0.019286  -0.036386  0  3.961865  0
C  C90  1  0.58622220  0.38812026  0.87223807  1  0.448006  0  0.019173  -0.038167  0  3.95034  0
C  C91  1  0.87223728  0.58622226  0.38811995  1  0.448239  0  0.019175  -0.038201  0  3.950381  0
C  C92  1  0.38812001  0.87223785  0.58622228  1  0.447997  0  0.019196  -0.038125  0  3.950356  0
C  C93  1  0.41377765  0.61188001  0.12776179  1  0.44799  0  0.019194  -0.038144  0  3.950349  0
C  C94  1  0.12776256  0.41377865  0.61188003  1  0.448266  0  0.019203  -0.038123  0  3.950348  0
C  C95  1  0.61188049  0.12776193  0.41377762  1  0.448  0  0.019204  -0.038122  0  3.950352  0
C  C96  1  0.62482977  0.84913188  0.66836005  1  1.531534  0  0.194235  0.565654  0  4.207927  0
C  C97  1  0.66835972  0.62483004  0.84913231  1  1.531539  0  0.194239  0.565606  0  4.207956  0
C  C98  1  0.84913161  0.66835950  0.62482921  1  1.531548  0  0.194232  0.56566  0  4.207901  0
C  C99  1  0.37516941  0.15086759  0.33164080  1  1.531513  0  0.194207  0.565564  0  4.20796  0
C  C100  1  0.33164079  0.37517038  0.15086834  1  1.531543  0  0.194238  0.56565  0  4.20794  0
C  C101  1  0.15086823  0.33164012  0.37516990  1  1.531538  0  0.194221  0.565623  0  4.207991  0
C  C102  1  0.67345569  0.78167293  0.69367190  1  -0.027197  0  -0.023239  -0.043773  0  3.99549  0
C  C103  1  0.69367211  0.67345643  0.78167329  1  -0.027518  0  -0.023211  -0.043727  0  3.995437  0
C  C104  1  0.78167207  0.69367188  0.67345565  1  -0.027534  0  -0.023193  -0.043689  0  3.995317  0
C  C105  1  0.32654349  0.21832654  0.30632832  1  -0.027167  0  -0.023229  -0.043747  0  3.99536  0
C  C106  1  0.30632840  0.32654464  0.21832811  1  -0.02753  0  -0.023227  -0.043755  0  3.995381  0
C  C107  1  0.21832778  0.30632839  0.32654485  1  -0.027178  0  -0.023243  -0.043765  0  3.995494  0
C  C108  1  0.73885284  0.75906904  0.65114835  1  -0.038393  0  -0.070417  -0.088554  0  3.913585  0
C  C109  1  0.65114661  0.73885309  0.75906814  1  -0.037704  0  -0.070426  -0.088544  0  3.913617  0
C  C110  1  0.75906793  0.65114689  0.73885312  1  -0.038035  0  -0.070399  -0.088501  0  3.913545  0
C  C111  1  0.26114634  0.24093043  0.34885250  1  -0.038111  0  -0.070391  -0.088522  0  3.91356  0
C  C112  1  0.34885257  0.26114574  0.24093132  1  -0.037995  0  -0.070397  -0.088486  0  3.913491  0
C  C113  1  0.24093125  0.34885258  0.26114710  1  -0.038376  0  -0.070403  -0.088525  0  3.913631  0
N  N114  1  0.59002639  0.07472715  0.69436346  1  -1.244177  0  -0.337039  -0.234742  0  3.569328  0
N  N115  1  0.69436309  0.59002582  0.07472682  1  -1.244172  0  -0.337058  -0.234791  0  3.569378  0
N  N116  1  0.07472646  0.69436349  0.59002591  1  -1.244178  0  -0.336993  -0.234618  0  3.569203  0
N  N117  1  0.40997411  0.92527263  0.30563643  1  -1.244153  0  -0.337028  -0.23471  0  3.569322  0
N  N118  1  0.30563609  0.40997365  0.92527277  1  -1.244167  0  -0.337041  -0.234731  0  3.569337  0
N  N119  1  0.92527339  0.30563678  0.40997396  1  -1.244178  0  -0.337043  -0.234744  0  3.569335  0
N  N120  1  0.55291042  0.43911665  0.92899379  1  -0.792199  0  -0.268719  -0.174603  0  3.582722  0
N  N121  1  0.92899355  0.55291162  0.43911690  1  -0.792611  0  -0.268637  -0.174427  0  3.582447  0
N  N122  1  0.43911634  0.92899382  0.55291098  1  -0.792167  0  -0.268708  -0.174613  0  3.582721  0
N  N123  1  0.44708943  0.56088297  0.07100595  1  -0.7922  0  -0.268714  -0.174588  0  3.582609  0
N  N124  1  0.07100630  0.44708929  0.56088308  1  -0.792459  0  -0.268705  -0.174601  0  3.582612  0
N  N125  1  0.56088284  0.07100629  0.44708873  1  -0.792177  0  -0.268698  -0.174572  0  3.582566  0
N  N126  1  0.50203388  0.38562731  0.96850620  1  -0.784678  0  -0.270639  -0.180596  0  3.558641  0
N  N127  1  0.96850594  0.50203469  0.38562774  1  -0.784518  0  -0.270743  -0.180789  0  3.558544  0
N  N128  1  0.38562736  0.96850624  0.50203411  1  -0.784695  0  -0.270648  -0.180593  0  3.558629  0
N  N129  1  0.49796530  0.61437216  0.03149339  1  -0.784704  0  -0.27068  -0.180668  0  3.558512  0
N  N130  1  0.03149390  0.49796623  0.61437225  1  -0.784711  0  -0.270668  -0.180617  0  3.558496  0
N  N131  1  0.61437249  0.03149403  0.49796575  1  -0.784683  0  -0.270649  -0.180588  0  3.558453  0
O  O132  1  0.64834438  0.88656339  0.60691017  1  -1.15728  0  -0.349389  -0.545109  0  2.266678  0
O  O133  1  0.60690915  0.64834325  0.88656300  1  -1.157299  0  -0.349391  -0.545086  0  2.266649  0
O  O134  1  0.88656234  0.60690934  0.64834240  1  -1.157271  0  -0.349384  -0.545107  0  2.266698  0
O  O135  1  0.35165613  0.11343703  0.39309111  1  -1.157326  0  -0.349388  -0.545066  0  2.266657  0
O  O136  1  0.39309136  0.35165781  0.11343777  1  -1.157426  0  -0.349389  -0.545099  0  2.26669  0
O  O137  1  0.11343684  0.39309013  0.35165656  1  -1.157423  0  -0.349389  -0.545111  0  2.266702  0
O  O138  1  0.56398604  0.86676591  0.70466011  1  -1.184956  0  -0.330571  -0.565403  0  2.137091  0
O  O139  1  0.70465944  0.56398619  0.86676617  1  -1.18494  0  -0.330566  -0.565374  0  2.137121  0
O  O140  1  0.86676645  0.70466142  0.56398684  1  -1.184965  0  -0.330579  -0.565437  0  2.137123  0
O  O141  1  0.43601314  0.13323421  0.29534086  1  -1.184909  0  -0.330564  -0.565372  0  2.137127  0
O  O142  1  0.29533974  0.43601328  0.13323342  1  -1.18494  0  -0.33056  -0.5654  0  2.137079  0
O  O143  1  0.13323406  0.29534029  0.43601405  1  -1.184946  0  -0.330556  -0.56538  0  2.137099  0
