# generated using pymatgen
data_Al6H67C85NO31
_symmetry_space_group_name_H-M   'P 1'
_cell_length_a   12.86162826
_cell_length_b   12.56513984
_cell_length_c   28.49193998
_cell_angle_alpha   89.82006386
_cell_angle_beta   89.47425682
_cell_angle_gamma   60.29110379
_symmetry_Int_Tables_number   1
_chemical_formula_structural   Al6H67C85NO31
_chemical_formula_sum   'Al6 H67 C85 N1 O31'
_cell_volume   3999.11192084
_cell_formula_units_Z   1
loop_
 _symmetry_equiv_pos_site_id
 _symmetry_equiv_pos_as_xyz
  1  'x, y, z'
loop_
 _atom_site_type_symbol
 _atom_site_label
 _atom_site_symmetry_multiplicity
 _atom_site_fract_x
 _atom_site_fract_y
 _atom_site_fract_z
 _atom_site_occupancy
 _atom_site_pbe_bader_charge
 _atom_site_pbe_bader_spin_density
 _atom_site_pbe_cm5_charge
 _atom_site_pbe_ddec_charge
 _atom_site_pbe_ddec_spin_density
 _atom_site_pbe_ddec_sum_bond_order
 _atom_site_pbe_magmom
Al  Al0  1  0.40581525  0.18428563  0.49731196  1  2.490396  0  0.398178  1.683428  0  2.555654  0
Al  Al1  1  0.41896168  0.92172470  0.49984757  1  2.483246  0  0.509317  1.660441  0  2.508487  0
Al  Al2  1  0.65030590  0.92629187  0.50061352  1  2.479338  0  0.506746  1.65925  0  2.513962  0
Al  Al3  1  0.92950179  0.15022589  0.00004608  1  2.491047  0  0.3984  1.680755  0  2.559567  0
Al  Al4  1  0.68110564  0.40549698  0.99983578  1  2.481218  0  0.507569  1.660422  0  2.513411  0
Al  Al5  1  0.90959710  0.41541896  0.99952343  1  2.478287  0  0.5087  1.661261  0  2.507207  0
H  H6  1  0.58978196  0.53578118  0.28902382  1  0.092146  0  0.107415  0.102324  0  0.987398  0
H  H7  1  0.53280942  0.87458782  0.27037025  1  0.085181  0  0.105822  0.097375  0  1.002169  0
H  H8  1  0.74468545  0.78326766  0.21500166  1  0.090661  0  0.110186  0.10732  0  0.985022  0
H  H9  1  0.86860790  0.59437193  0.28220337  1  0.068617  0  0.108397  0.101019  0  0.981004  0
H  H10  1  0.80005321  0.44329452  0.23268189  1  0.090362  0  0.103101  0.094294  0  1.027859  0
H  H11  1  0.77964826  0.98141403  0.20075450  1  0.030674  0  0.097607  0.0976  0  0.975039  0
H  H12  1  0.76431212  0.95307078  0.28150671  1  0.043317  0  0.095314  0.094374  0  0.977479  0
H  H13  1  0.76030470  0.24976734  0.30242617  1  0.034863  0  0.093272  0.090123  0  0.985497  0
H  H14  1  0.85424561  0.09098791  0.29331495  1  0.006419  0  0.095387  0.09492  0  0.977473  0
H  H15  1  0.85755458  0.12870923  0.21273016  1  0.042369  0  0.096881  0.09631  0  0.983126  0
H  H16  1  0.75539549  0.28595378  0.22154340  1  0.021132  0  0.089667  0.08167  0  1.008815  0
H  H17  1  0.47160833  0.24700898  0.28955522  1  0.049588  0  0.095362  0.09525  0  0.995105  0
H  H18  1  0.53423351  0.34254259  0.29697055  1  0.038903  0  0.093546  0.089969  0  0.984527  0
H  H19  1  0.47790234  0.26404711  0.20765817  1  0.031503  0  0.095386  0.096441  0  0.981999  0
H  H20  1  0.60753973  0.01880880  0.27718810  1  0.025258  0  0.08903  0.080679  0  1.009525  0
H  H21  1  0.62449138  0.03625119  0.19585939  1  0.039778  0  0.095046  0.093278  0  0.982547  0
H  H22  1  0.53194160  0.36720291  0.21510998  1  0.029073  0  0.093481  0.09186  0  0.980774  0
H  H23  1  0.24053279  0.28969299  0.20534955  1  0.032493  0  0.095625  0.094174  0  0.979296  0
H  H24  1  0.26377676  0.26657739  0.28696265  1  0.042479  0  0.097557  0.098336  0  0.973891  0
H  H25  1  0.00032259  0.21828624  0.29974315  1  0.054509  0  0.094126  0.094698  0  0.983066  0
H  H26  1  0.04676799  0.32855183  0.30423143  1  0.035432  0  0.095761  0.094303  0  0.980132  0
H  H27  1  0.02024366  0.36741388  0.22333082  1  0.044939  0  0.093127  0.090149  0  0.985735  0
H  H28  1  0.96308715  0.26534065  0.21998359  1  0.019689  0  0.090953  0.083137  0  1.016259  0
H  H29  1  0.30424470  0.95334231  0.27282270  1  -5e-05  0  0.085333  0.073002  0  1.018421  0
H  H30  1  0.15513643  0.99296588  0.28585552  1  0.026478  0  0.093659  0.09238  0  0.980162  0
H  H31  1  0.25253785  0.98449922  0.19308041  1  0.085988  0  0.095675  0.106225  0  1.014009  0
H  H32  1  0.37107761  0.11117145  0.27797526  1  0.011667  0  0.087963  0.078664  0  1.007345  0
H  H33  1  0.33804667  0.13126676  0.19679849  1  0.033701  0  0.095123  0.095334  0  0.97722  0
H  H34  1  0.10074760  0.04150569  0.20694565  1  0.036063  0  0.095352  0.097676  0  0.975171  0
H  H35  1  0.72602688  0.78894117  0.79958905  1  0.049293  0  0.096023  0.095618  0  0.978871  0
H  H36  1  0.70508024  0.82630954  0.71875207  1  0.047918  0  0.094312  0.091017  0  0.996695  0
H  H37  1  0.77954340  0.50282780  0.69828927  1  0.076568  0  0.096108  0.10384  0  1.005631  0
H  H38  1  0.83950662  0.60134318  0.70482249  1  0.033216  0  0.095071  0.095835  0  0.973323  0
H  H39  1  0.85707014  0.56144086  0.78548388  1  0.050114  0  0.094991  0.09257  0  0.986334  0
H  H40  1  0.79215632  0.46721905  0.77874096  1  0.06127  0  0.093205  0.091824  0  1.001648  0
H  H41  1  0.45854852  0.74826085  0.71499547  1  0.014474  0  0.090845  0.08582  0  0.994175  0
H  H42  1  0.55361402  0.58988580  0.70597638  1  0.049482  0  0.098128  0.101742  0  0.97298  0
H  H43  1  0.47489078  0.71888783  0.79651411  1  0.044047  0  0.093452  0.091724  0  0.979286  0
H  H44  1  0.54887713  0.88787840  0.72415788  1  0.017505  0  0.090139  0.084372  0  1.020356  0
H  H45  1  0.56939496  0.85376966  0.80509407  1  0.042488  0  0.093624  0.091357  0  0.98789  0
H  H46  1  0.56609232  0.56004044  0.78727722  1  0.012355  0  0.094505  0.093281  0  1.002959  0
H  H47  1  0.48453385  0.24160495  0.79886461  1  0.01919  0  0.094534  0.092595  0  0.981311  0
H  H48  1  0.46908622  0.22248230  0.71771651  1  0.017809  0  0.092919  0.090166  0  0.985272  0
H  H49  1  0.72088781  0.28311467  0.69536108  1  0.062496  0  0.091445  0.092831  0  1.023672  0
H  H50  1  0.56397545  0.35045298  0.70102165  1  0.018876  0  0.09379  0.093204  0  0.978042  0
H  H51  1  0.57873437  0.37305528  0.78188665  1  0.015967  0  0.092688  0.08894  0  0.991997  0
H  H52  1  0.73571345  0.30527515  0.77583137  1  0.02058  0  0.089242  0.085175  0  1.008251  0
H  H53  1  0.78268740  0.95990263  0.71541656  1  0.019642  0  0.091008  0.087786  0  0.996167  0
H  H54  1  0.85171639  0.04766948  0.70288157  1  0.060946  0  0.091043  0.09578  0  1.009555  0
H  H55  1  0.80210033  0.98285245  0.79593631  1  0.028952  0  0.094098  0.092757  0  0.980897  0
H  H56  1  0.55802050  0.06158669  0.72292609  1  0.038062  0  0.089579  0.082437  0  1.026505  0
H  H57  1  0.57537371  0.08108457  0.80370431  1  0.049324  0  0.093684  0.092518  0  0.985937  0
H  H58  1  0.86663175  0.07519467  0.78382464  1  0.011365  0  0.090269  0.088669  0  0.994394  0
H  H59  1  0.31712669  0.01316776  0.80364688  1  0.037572  0  0.097296  0.098005  0  0.979357  0
H  H60  1  0.32953041  0.97525758  0.72255660  1  0.015956  0  0.095035  0.091074  0  0.993533  0
H  H61  1  0.12680972  0.02003552  0.71108855  1  0.121158  0  0.128196  0.098912  0  0.949988  0
H  H62  1  0.10408364  0.04534552  0.79270281  1  0.03942  0  0.106587  0.118002  0  0.959486  0
H  H63  1  0.98337444  0.19587769  0.78396051  1  0.074399  0  0.106695  0.110246  0  1.003608  0
H  H64  1  0.21456788  0.30783762  0.70596422  1  0.051081  0  0.100632  0.105535  0  0.96839  0
H  H65  1  0.06365089  0.35161362  0.69608320  1  0.081816  0  0.100028  0.10598  0  0.985284  0
H  H66  1  0.16373357  0.35382485  0.78575248  1  0.009216  0  0.097687  0.100421  0  0.971588  0
H  H67  1  0.37161488  0.08827372  0.71505614  1  0.049559  0  0.099163  0.097986  0  1.010261  0
H  H68  1  0.34071722  0.13888240  0.79506250  1  0.040222  0  0.098477  0.102199  0  0.9847  0
H  H69  1  0.02010655  0.37209404  0.77638154  1  0.076019  0  0.095524  0.095732  0  1.016191  0
H  H70  1  0.37080991  0.73034701  0.24301407  1  0.041939  0  0.102513  0.034429  0  0.950295  0
H  H71  1  0.29625597  0.38654906  0.52442753  1  0.569134  0  0.29321  0.38399  0  0.921494  0
H  H72  1  0.01696405  0.94962538  0.97120624  1  0.55985  0  0.292013  0.381541  0  0.925204  0
C  C73  1  0.28882922  0.09066244  0.43075922  1  1.669186  0  0.279059  0.717847  0  4.157006  0
C  C74  1  0.60965463  0.77523123  0.43682961  1  1.639774  0  0.285083  0.721008  0  4.152432  0
C  C75  1  0.62022830  0.09612253  0.43303542  1  1.681932  0  0.281854  0.718757  0  4.160449  0
C  C76  1  0.27794720  0.09742422  0.56498278  1  1.651754  0  0.280549  0.716357  0  4.156166  0
C  C77  1  0.60304217  0.78581838  0.56695560  1  1.655171  0  0.285011  0.731972  0  4.14156  0
C  C78  1  0.60716322  0.10534152  0.56659755  1  1.626097  0  0.277378  0.723468  0  4.154953  0
C  C79  1  0.62499965  0.59000333  0.27225175  1  -0.049453  0  -0.064875  -0.102603  0  3.6166  0
C  C80  1  0.55673306  0.69280866  0.23505768  1  -0.039169  0  -0.000584  0.000491  0  3.668628  0
C  C81  1  0.69666929  0.59897922  0.11271812  1  0.212807  0  -0.03078  -0.184692  0  3.935522  0
C  C82  1  0.63794603  0.72207028  0.39065740  1  0.076103  0  -0.035303  -0.19364  0  3.950386  0
C  C83  1  0.74153628  0.53936095  0.24190829  1  -0.024348  0  -0.062607  -0.065273  0  3.609474  0
C  C84  1  0.67415445  0.64333531  0.20364978  1  0.128905  0  0.017234  0.104288  0  3.769433  0
C  C85  1  0.77955242  0.62327569  0.26834969  1  -0.0086  0  -0.064893  -0.0759  0  3.612148  0
C  C86  1  0.66233672  0.67473226  0.29994182  1  0.162466  0  0.011932  0.121498  0  3.796255  0
C  C87  1  0.71119206  0.72767134  0.23174205  1  -0.025954  0  -0.063366  -0.071921  0  3.615092  0
C  C88  1  0.59458466  0.77841680  0.26194202  1  -0.032155  0  -0.051323  -0.075231  0  3.567481  0
C  C89  1  0.68383989  0.62215229  0.15460137  1  -0.44435  0  -0.012166  -0.015246  0  4.046317  0
C  C90  1  0.65132406  0.69760825  0.34887267  1  -0.34586  0  -0.015704  -0.023309  0  4.048572  0
C  C91  1  0.68305544  0.03314927  0.26835896  1  -0.035226  0  -0.153938  -0.187745  0  3.854634  0
C  C92  1  0.77010796  0.17094597  0.28215893  1  -0.001764  0  -0.152791  -0.188346  0  3.855105  0
C  C93  1  0.77088159  0.19327048  0.22880218  1  -0.034696  0  -0.152954  -0.186316  0  3.843753  0
C  C94  1  0.69061359  0.20791088  0.11267104  1  -0.027574  0  -0.046737  -0.215475  0  3.974367  0
C  C95  1  0.66500004  0.14893664  0.29481702  1  0.166557  0  0.001069  0.169051  0  3.901156  0
C  C96  1  0.69148383  0.04901877  0.21486892  1  -0.029473  0  -0.153289  -0.193646  0  3.857893  0
C  C97  1  0.67114582  0.17891480  0.20427350  1  0.143637  0  0.001759  0.16972  0  3.901988  0
C  C98  1  0.54821174  0.27538163  0.22463268  1  -0.021104  0  -0.154366  -0.187129  0  3.849333  0
C  C99  1  0.54622640  0.26053588  0.27845809  1  -0.053265  0  -0.154108  -0.186871  0  3.842099  0
C  C100  1  0.67852568  0.19504062  0.15425682  1  -0.250845  0  -0.01501  -0.024213  0  4.020975  0
C  C101  1  0.65982328  0.13144370  0.34485218  1  -0.367101  0  -0.014509  -0.022976  0  4.020915  0
C  C102  1  0.64988470  0.11742731  0.38651958  1  0.057064  0  -0.048449  -0.218763  0  3.97691  0
C  C103  1  0.27860145  0.18162692  0.27005540  1  -0.017787  0  -0.152729  -0.185797  0  3.845916  0
C  C104  1  0.06174061  0.24677134  0.28472349  1  -0.052306  0  -0.152122  -0.185073  0  3.840568  0
C  C105  1  0.03984926  0.27381733  0.23163646  1  -0.037152  0  -0.154068  -0.191913  0  3.854876  0
C  C106  1  0.09863351  0.22155978  0.11195047  1  -0.301979  0  -0.04583  -0.216485  0  3.968153  0
C  C107  1  0.19216251  0.14298651  0.29278840  1  0.137903  0  0.001331  0.169833  0  3.894768  0
C  C108  1  0.25853979  0.19832049  0.21646668  1  -0.036176  0  -0.153359  -0.188986  0  3.850429  0
C  C109  1  0.15117067  0.18188675  0.20278769  1  0.124301  0  0.001613  0.171965  0  3.897378  0
C  C110  1  0.17918746  0.05051059  0.21550661  1  -0.048808  0  -0.156914  -0.197175  0  3.83394  0
C  C111  1  0.21051190  0.02528575  0.26808026  1  -0.012552  0  -0.155197  -0.186305  0  3.864025  0
C  C112  1  0.12507940  0.20431718  0.15319347  1  0.056745  0  -0.011414  -0.015316  0  4.003704  0
C  C113  1  0.21672142  0.12308077  0.34259061  1  -0.507183  0  -0.016209  -0.025771  0  4.018636  0
C  C114  1  0.24142314  0.10838034  0.38404787  1  0.226959  0  -0.049569  -0.219362  0  3.974694  0
C  C115  1  0.63557351  0.80769066  0.73244402  1  -0.041558  0  -0.153436  -0.186205  0  3.836351  0
C  C116  1  0.76908957  0.58290307  0.71760704  1  -0.044399  0  -0.154704  -0.191048  0  3.832927  0
C  C117  1  0.77952342  0.55859556  0.77110653  1  -0.071328  0  -0.152839  -0.18588  0  3.833099  0
C  C118  1  0.69391605  0.60757915  0.88891554  1  0.226183  0  -0.048545  -0.225148  0  3.955721  0
C  C119  1  0.64581142  0.69480437  0.70620714  1  0.14984  0  0.002132  0.165499  0  3.899334  0
C  C120  1  0.64869340  0.78425967  0.78602810  1  -0.038957  0  -0.151962  -0.18654  0  3.842476  0
C  C121  1  0.66525857  0.65599280  0.79712954  1  0.124416  0  0.002383  0.167623  0  3.891252  0
C  C122  1  0.55588847  0.64968740  0.77822492  1  -0.022477  0  -0.154078  -0.187321  0  3.84149  0
C  C123  1  0.54585109  0.67015296  0.72446163  1  -0.025343  0  -0.152831  -0.184209  0  3.839551  0
C  C124  1  0.67905525  0.63188846  0.84727369  1  -0.480428  0  -0.004374  -0.00483  0  3.985408  0
C  C125  1  0.63478257  0.71806779  0.65600485  1  -0.528581  0  -0.00255  0.000533  0  3.981856  0
C  C126  1  0.62475022  0.73930105  0.61408749  1  0.239714  0  -0.048063  -0.225973  0  3.956697  0
C  C127  1  0.55439917  0.14860492  0.73117960  1  -0.037026  0  -0.15519  -0.190795  0  3.848122  0
C  C128  1  0.64955646  0.27760733  0.71468733  1  -0.029598  0  -0.157234  -0.191071  0  3.835751  0
C  C129  1  0.65911966  0.29242711  0.76804754  1  8e-05  0  -0.154042  -0.183728  0  3.840485  0
C  C130  1  0.69503191  0.20739836  0.88602289  1  0.220322  0  -0.051163  -0.219827  0  3.979891  0
C  C131  1  0.65812412  0.15254693  0.70452288  1  0.137535  0  0.001615  0.172486  0  3.896723  0
C  C132  1  0.56506645  0.16186419  0.78460536  1  -0.027847  0  -0.15407  -0.18848  0  3.85095  0
C  C133  1  0.67478875  0.17761202  0.79470711  1  0.15774  0  0.00025  0.168229  0  3.902682  0
C  C134  1  0.78922624  0.06360976  0.77611294  1  -0.017315  0  -0.154912  -0.183325  0  3.84717  0
C  C135  1  0.77848233  0.04768524  0.72294888  1  -0.025299  0  -0.157221  -0.186967  0  3.839463  0
C  C136  1  0.68438907  0.19316719  0.84454650  1  -0.549411  0  -0.017431  -0.02824  0  4.028184  0
C  C137  1  0.64679398  0.13856286  0.65472209  1  -0.490117  0  -0.012153  -0.014577  0  4.0094  0
C  C138  1  0.63437570  0.12645125  0.61322895  1  0.250247  0  -0.04911  -0.219176  0  3.972022  0
C  C139  1  0.30240625  0.07132310  0.73012957  1  -0.027792  0  -0.14978  -0.186302  0  3.83193  0
C  C140  1  0.09424278  0.11492153  0.72205430  1  0.186187  0  0.018446  -0.02798  0  3.705563  0
C  C141  1  0.07785263  0.13322804  0.77543896  1  -0.034592  0  -0.149035  -0.242366  0  3.843161  0
C  C142  1  0.10428013  0.22210295  0.88635001  1  0.052455  0  -0.043649  -0.202607  0  3.960006  0
C  C143  1  0.18400015  0.15520925  0.70368331  1  0.177843  0  0.010289  0.146792  0  3.882915  0
C  C144  1  0.28711013  0.09792901  0.78345667  1  -0.021559  0  -0.153199  -0.192147  0  3.835992  0
C  C145  1  0.15380153  0.18775908  0.79487825  1  0.123233  0  0.003958  0.183055  0  3.895406  0
C  C146  1  0.11594202  0.31102223  0.76988636  1  -0.009838  0  -0.15669  -0.19707  0  3.852246  0
C  C147  1  0.14236994  0.29001437  0.71675368  1  -0.084015  0  -0.155216  -0.193808  0  3.848909  0
C  C148  1  0.13157737  0.20613142  0.84500654  1  -0.325214  0  -0.021021  -0.036668  0  4.012302  0
C  C149  1  0.20548583  0.13507861  0.65364558  1  0.040749  0  -0.026288  -0.052415  0  4.034802  0
C  C150  1  0.22915231  0.11975122  0.61201174  1  -0.297997  0  -0.033257  -0.175487  0  3.938382  0
C  C151  1  0.72123820  0.22860617  0.06622181  1  1.667255  0  0.279982  0.71891  0  4.157957  0
C  C152  1  0.72048440  0.55121829  0.06570591  1  1.637286  0  0.286296  0.72144  0  4.147745  0
C  C153  1  0.04883317  0.24369754  0.06563127  1  1.642257  0  0.281486  0.717404  0  4.155287  0
C  C154  1  0.72083755  0.23119997  0.93258472  1  1.686617  0  0.276527  0.721397  0  4.156505  0
C  C155  1  0.72228880  0.55589185  0.93527579  1  1.647783  0  0.285889  0.732412  0  4.138103  0
C  C156  1  0.05043106  0.24268791  0.93245752  1  1.666877  0  0.278062  0.718275  0  4.156557  0
C  C157  1  0.43410578  0.73740654  0.21758187  1  0.986577  0  0.105719  0.266478  0  3.977655  0
N  N158  1  0.97666132  0.18605011  0.69637973  1  0.455017  0  0.05052  0.519064  0  4.139377  0
O  O159  1  0.52023421  0.17498275  0.44973701  1  -1.221585  0  -0.201241  -0.540102  0  2.284422  0
O  O160  1  0.31375626  0.16967419  0.44574084  1  -1.214926  0  -0.202497  -0.54028  0  2.28536  0
O  O161  1  0.30613059  0.99310626  0.45269365  1  -1.25661  0  -0.244736  -0.61148  0  2.232065  0
O  O162  1  0.50835377  0.79922183  0.45437406  1  -1.240453  0  -0.225078  -0.584615  0  2.245395  0
O  O163  1  0.68455966  0.80048997  0.45570570  1  -1.238642  0  -0.223702  -0.582067  0  2.248424  0
O  O164  1  0.69651815  0.99484489  0.45280951  1  -1.264935  0  -0.242469  -0.606283  0  2.234769  0
O  O165  1  0.50558584  0.18070842  0.55053577  1  -1.224872  0  -0.213024  -0.570015  0  2.296417  0
O  O166  1  0.29868256  0.17722371  0.54737772  1  -1.208159  0  -0.207666  -0.558961  0  2.290405  0
O  O167  1  0.30144343  0.99461076  0.54614342  1  -1.25394  0  -0.239521  -0.597964  0  2.225185  0
O  O168  1  0.50584774  0.80517786  0.54760463  1  -1.244438  0  -0.227613  -0.590721  0  2.244184  0
O  O169  1  0.68010244  0.81022617  0.54866229  1  -1.241242  0  -0.227246  -0.589202  0  2.243862  0
O  O170  1  0.68771936  0.00756956  0.54573553  1  -1.253643  0  -0.24351  -0.608519  0  2.231447  0
O  O171  1  0.49242516  0.00854571  0.49953391  1  -1.611272  0  -0.390839  -1.274009  0  2.294206  0
O  O172  1  0.03091856  0.16236852  0.04789808  1  -1.213029  0  -0.199658  -0.533939  0  2.276123  0
O  O173  1  0.82563996  0.15536363  0.05162891  1  -1.221143  0  -0.201931  -0.543423  0  2.290769  0
O  O174  1  0.64090228  0.32344452  0.04419332  1  -1.258099  0  -0.243789  -0.610128  0  2.232258  0
O  O175  1  0.64682734  0.52158868  0.04845403  1  -1.244727  0  -0.223185  -0.581201  0  2.242626  0
O  O176  1  0.81610762  0.53611169  0.04548428  1  -1.240568  0  -0.226617  -0.588416  0  2.245747  0
O  O177  1  0.02201560  0.34787233  0.04680432  1  -1.249313  0  -0.244358  -0.611255  0  2.233311  0
O  O178  1  0.02435793  0.16387027  0.94701587  1  -1.210257  0  -0.208675  -0.55912  0  2.296066  0
O  O179  1  0.81926257  0.15373297  0.95035438  1  -1.224499  0  -0.21328  -0.569096  0  2.288976  0
O  O180  1  0.64217433  0.33349058  0.95132175  1  -1.256744  0  -0.242039  -0.603469  0  2.231103  0
O  O181  1  0.64717907  0.53156352  0.95533188  1  -1.234993  0  -0.225597  -0.587204  0  2.244672  0
O  O182  1  0.82354524  0.53223946  0.95203801  1  -1.243005  0  -0.227413  -0.589398  0  2.239228  0
O  O183  1  0.02877886  0.34224849  0.95364575  1  -1.247724  0  -0.242286  -0.604082  0  2.228704  0
O  O184  1  0.83896742  0.32585479  0.99935767  1  -1.614837  0  -0.391122  -1.274706  0  2.296398  0
O  O185  1  0.40110594  0.78168785  0.17860098  1  -1.059746  0  -0.23995  -0.324304  0  2.125888  0
O  O186  1  0.96079786  0.13620644  0.66208990  1  -0.444344  0  -0.111273  -0.315916  0  1.910551  0
O  O187  1  0.90496854  0.29092639  0.71065602  1  -0.500265  0  -0.117302  -0.334621  0  2.004253  0
O  O188  1  0.32495745  0.34436602  0.49478998  1  -1.353851  0  -0.577056  -0.99423  0  1.794208  0
O  O189  1  0.01272186  0.99013456  0.00050747  1  -1.342182  0  -0.575371  -0.989806  0  1.795398  0
