# generated using pymatgen
data_AlH27(C11O2)3
_symmetry_space_group_name_H-M   'P 1'
_cell_length_a   3.98910915
_cell_length_b   16.09155862
_cell_length_c   16.09041356
_cell_angle_alpha   120.48251409
_cell_angle_beta   88.90807627
_cell_angle_gamma   88.92384794
_symmetry_Int_Tables_number   1
_chemical_formula_structural   AlH27(C11O2)3
_chemical_formula_sum   'Al1 H27 C33 O6'
_cell_volume   889.45494970
_cell_formula_units_Z   1
loop_
 _symmetry_equiv_pos_site_id
 _symmetry_equiv_pos_as_xyz
  1  'x, y, z'
loop_
 _atom_site_type_symbol
 _atom_site_label
 _atom_site_symmetry_multiplicity
 _atom_site_fract_x
 _atom_site_fract_y
 _atom_site_fract_z
 _atom_site_occupancy
 _atom_site_pbe_bader_charge
 _atom_site_pbe_bader_spin_density
 _atom_site_pbe_cm5_charge
 _atom_site_pbe_ddec_charge
 _atom_site_pbe_ddec_spin_density
 _atom_site_pbe_ddec_sum_bond_order
 _atom_site_pbe_magmom
Al  Al0  1  0.00008090  0.50105158  0.49880651  1  2.50362  0  0.426273  1.591562  0  2.57673  0
H  H1  1  0.49992370  0.92134372  0.07857960  1  0.02718  0  0.096266  0.09086  0  1.038878  0
H  H2  1  0.45094242  0.65480244  0.07819620  1  0.061974  0  0.096728  0.092872  0  1.033223  0
H  H3  1  0.54899451  0.92174889  0.34510483  1  0.063113  0  0.096702  0.092913  0  1.033164  0
H  H4  1  0.76998367  0.05090236  0.15710748  1  0.028498  0  0.097744  0.102221  0  1.012351  0
H  H5  1  0.26927558  0.05801505  0.40004142  1  0.060189  0  0.097222  0.101083  0  1.012514  0
H  H6  1  0.23013266  0.84275999  0.94892236  1  0.02966  0  0.097547  0.102069  0  1.011821  0
H  H7  1  0.73065584  0.59984691  0.94187065  1  0.058874  0  0.097434  0.101213  0  1.012578  0
H  H8  1  0.74086244  0.60003922  0.15468725  1  0.083752  0  0.096587  0.098288  0  1.021237  0
H  H9  1  0.25910965  0.84524246  0.39991863  1  0.084018  0  0.096546  0.098315  0  1.021022  0
H  H10  1  0.35213376  0.22375069  0.56439695  1  0.019874  0  0.087451  0.119607  0  1.000577  0
H  H11  1  0.26433399  0.32749117  0.55543763  1  0.091465  0  0.095885  0.139404  0  1.022599  0
H  H12  1  0.96494599  0.23689150  0.51903590  1  0.069289  0  0.091845  0.134644  0  1.019156  0
H  H13  1  0.66454342  0.22087250  0.16093584  1  0.04235  0  0.087594  0.119348  0  1.000799  0
H  H14  1  0.78009277  0.32015807  0.27288500  1  0.020649  0  0.095797  0.138191  0  1.029463  0
H  H15  1  0.06256536  0.22046512  0.20826132  1  0.062302  0  0.091368  0.132564  0  1.018539  0
H  H16  1  0.33523472  0.83887117  0.77893675  1  0.03771  0  0.087695  0.119461  0  1.000698  0
H  H17  1  0.22006357  0.72691042  0.67965826  1  0.019108  0  0.095878  0.138456  0  1.029783  0
H  H18  1  0.93751311  0.79144450  0.77929405  1  0.068859  0  0.091398  0.13257  0  1.018844  0
H  H19  1  0.64767659  0.43547049  0.77616247  1  0.018624  0  0.08739  0.119656  0  1.000315  0
H  H20  1  0.73547000  0.44443194  0.67238086  1  0.089509  0  0.095775  0.139217  0  1.023253  0
H  H21  1  0.03483578  0.48090878  0.76303538  1  0.069693  0  0.092078  0.134763  0  1.018915  0
H  H22  1  0.02006266  0.47486615  0.24962527  1  0.058783  0  0.094956  0.139984  0  1.012977  0
H  H23  1  0.61240838  0.43049670  0.22782143  1  0.032189  0  0.093219  0.132341  0  1.012866  0
H  H24  1  0.81344394  0.45788496  0.14517440  1  0.020577  0  0.085924  0.118115  0  1.004956  0
H  H25  1  0.98001995  0.75031267  0.52515773  1  0.05821  0  0.094841  0.139743  0  1.013014  0
H  H26  1  0.38777524  0.77209606  0.56945436  1  0.032075  0  0.093337  0.132326  0  1.012575  0
H  H27  1  0.18660437  0.85475716  0.54211968  1  0.02153  0  0.085778  0.117867  0  1.00508  0
C  C28  1  0.48744908  0.57426111  0.64823795  1  1.522228  0  0.280379  0.674747  0  4.056105  0
C  C29  1  0.50007469  0.57492120  0.42506237  1  1.525412  0  0.273584  0.663434  0  4.037338  0
C  C30  1  0.51271682  0.35163404  0.42553417  1  1.525286  0  0.280699  0.675783  0  4.054313  0
C  C31  1  0.48640717  0.78144939  0.06550001  1  0.102842  0  -0.005753  0.083334  0  4.010537  0
C  C32  1  0.49992257  0.88233935  0.11757412  1  -0.207729  0  -0.08717  -0.171272  0  3.922988  0
C  C33  1  0.51344308  0.93441819  0.21845563  1  0.103393  0  -0.006059  0.083304  0  4.010932  0
C  C34  1  0.51938628  0.88291434  0.26727851  1  0.013626  0  -0.08894  -0.174692  0  3.927471  0
C  C35  1  0.49992392  0.78217055  0.21776031  1  -0.128153  0  -0.007242  0.078481  0  4.014535  0
C  C36  1  0.48045222  0.73264643  0.11701819  1  0.013748  0  -0.088872  -0.174249  0  3.928017  0
C  C37  1  0.65232228  0.19172586  0.27787707  1  0.008829  0  -0.005269  0.159957  0  3.976029  0
C  C38  1  0.65388403  0.09107777  0.22940269  1  0.047678  0  -0.095999  -0.203622  0  3.956229  0
C  C39  1  0.52018566  0.04099565  0.27194545  1  -0.075696  0  -0.008659  0.078345  0  4.040788  0
C  C40  1  0.38622185  0.09504390  0.36648475  1  -0.136853  0  -0.096393  -0.20242  0  3.953549  0
C  C41  1  0.38448016  0.19579850  0.41843969  1  0.10042  0  -0.00465  0.158071  0  3.97668  0
C  C42  1  0.51746236  0.24358383  0.37290399  1  -0.033573  0  -0.010836  -0.156662  0  3.870999  0
C  C43  1  0.34614556  0.77045597  0.90879629  1  0.020285  0  -0.095768  -0.203217  0  3.955541  0
C  C44  1  0.34773289  0.72198312  0.80814417  1  -0.011274  0  -0.005055  0.15984  0  3.976563  0
C  C45  1  0.48239852  0.62694964  0.75628707  1  -0.015367  0  -0.011241  -0.156312  0  3.871058  0
C  C46  1  0.61522717  0.58144891  0.80410019  1  0.098403  0  -0.004397  0.15807  0  3.976449  0
C  C47  1  0.61368652  0.63340444  0.90486104  1  -0.133119  0  -0.096652  -0.202514  0  3.953728  0
C  C48  1  0.47985348  0.72794949  0.95890570  1  -0.047785  0  -0.008558  0.078381  0  4.040624  0
C  C49  1  0.63064923  0.63458050  0.22769774  1  -0.113764  0  -0.095209  -0.206303  0  3.95028  0
C  C50  1  0.63585038  0.58310850  0.27604667  1  -0.001266  0  0.003354  0.178538  0  3.94444  0
C  C51  1  0.49999923  0.62807295  0.37187060  1  0.091023  0  -0.015287  -0.179124  0  3.854677  0
C  C52  1  0.36413352  0.72389495  0.41685441  1  0.000172  0  0.003441  0.178781  0  3.943283  0
C  C53  1  0.36926959  0.77223573  0.36537796  1  -0.113869  0  -0.09513  -0.206611  0  3.950943  0
C  C54  1  0.50001075  0.72935595  0.27061846  1  0.029986  0  -0.002883  0.096405  0  4.027225  0
C  C55  1  0.23501368  0.24938438  0.51976384  1  -0.12437  0  -0.241044  -0.416613  0  3.950955  0
C  C56  1  0.79638755  0.24144839  0.22784427  1  -0.06496  0  -0.240419  -0.415254  0  3.951062  0
C  C57  1  0.20371694  0.77193510  0.75836517  1  -0.06486  0  -0.240682  -0.415631  0  3.952239  0
C  C58  1  0.76472649  0.48012347  0.75050846  1  -0.12174  0  -0.241223  -0.416793  0  3.950888  0
C  C59  1  0.77771197  0.48109399  0.22181002  1  -0.045006  0  -0.240788  -0.414352  0  3.967064  0
C  C60  1  0.22237190  0.77812653  0.51889419  1  -0.046376  0  -0.240665  -0.413854  0  3.966275  0
O  O61  1  0.27757554  0.39421809  0.40720062  1  -1.252399  0  -0.234781  -0.595645  0  2.371614  0
O  O62  1  0.25692950  0.51487647  0.60529363  1  -1.2581  0  -0.232232  -0.596058  0  2.386929  0
O  O63  1  0.25963579  0.59227436  0.48611572  1  -1.266597  0  -0.236872  -0.606223  0  2.41924  0
O  O64  1  0.74325755  0.39453795  0.48492071  1  -1.256623  0  -0.232344  -0.59614  0  2.385509  0
O  O65  1  0.74041403  0.51385024  0.40766635  1  -1.267543  0  -0.23707  -0.606545  0  2.419802  0
O  O66  1  0.72266133  0.59262941  0.60568005  1  -1.249979  0  -0.23457  -0.595016  0  2.371852  0
