# generated using pymatgen
data_CuH9C13N8
_symmetry_space_group_name_H-M   'P 1'
_cell_length_a   9.28294211
_cell_length_b   11.19787483
_cell_length_c   15.68317811
_cell_angle_alpha   89.99910152
_cell_angle_beta   90.93479395
_cell_angle_gamma   89.99954621
_symmetry_Int_Tables_number   1
_chemical_formula_structural   CuH9C13N8
_chemical_formula_sum   'Cu4 H36 C52 N32'
_cell_volume   1630.03722091
_cell_formula_units_Z   4
loop_
 _symmetry_equiv_pos_site_id
 _symmetry_equiv_pos_as_xyz
  1  'x, y, z'
loop_
 _atom_site_type_symbol
 _atom_site_label
 _atom_site_symmetry_multiplicity
 _atom_site_fract_x
 _atom_site_fract_y
 _atom_site_fract_z
 _atom_site_occupancy
 _atom_site_pbe_bader_charge
 _atom_site_pbe_bader_spin_density
 _atom_site_pbe_cm5_charge
 _atom_site_pbe_ddec_charge
 _atom_site_pbe_ddec_spin_density
 _atom_site_pbe_ddec_sum_bond_order
 _atom_site_pbe_magmom
Cu  Cu0  1  0.81544681  0.20421440  0.18316410  1  0.72006  0  0.549878  0.269513  0  2.574518  0
Cu  Cu1  1  0.68454880  0.70421091  0.31682973  1  0.7204  0  0.549797  0.269566  0  2.574351  0
Cu  Cu2  1  0.18454382  0.79577621  0.81683426  1  0.720051  0  0.549864  0.269536  0  2.574433  0
Cu  Cu3  1  0.31546781  0.29577345  0.68316764  1  0.72004  0  0.549941  0.269618  0  2.574526  0
H  H4  1  0.39273690  0.35790716  0.85829789  1  0.107762  0  0.110344  0.122266  0  1.019117  0
H  H5  1  0.10725413  0.85790625  0.64169622  1  0.108001  0  0.110319  0.122218  0  1.019022  0
H  H6  1  0.60727442  0.64209952  0.14169801  1  0.107545  0  0.110325  0.122217  0  1.018986  0
H  H7  1  0.89275311  0.14208525  0.35829634  1  0.108068  0  0.110427  0.122278  0  1.019043  0
H  H8  1  0.53190010  0.18606841  0.88744038  1  0.202836  0  0.114655  0.107132  0  1.114545  0
H  H9  1  0.96809131  0.68606935  0.61256492  1  0.202545  0  0.114667  0.107133  0  1.114587  0
H  H10  1  0.46809535  0.81394809  0.11256581  1  0.202269  0  0.114551  0.107044  0  1.114582  0
H  H11  1  0.03189922  0.31393823  0.38743471  1  0.202748  0  0.11462  0.107109  0  1.11452  0
H  H12  1  0.48270983  0.71765193  0.77503615  1  0.082029  0  0.112309  0.124713  0  1.010904  0
H  H13  1  0.01731080  0.21765825  0.72497202  1  0.081803  0  0.112287  0.124644  0  1.011073  0
H  H14  1  0.51728721  0.28234850  0.22496307  1  0.082026  0  0.112287  0.124673  0  1.010958  0
H  H15  1  0.98270842  0.78235200  0.27503373  1  0.082039  0  0.112308  0.124671  0  1.010955  0
H  H16  1  0.61834603  0.88843761  0.84292070  1  0.183023  0  0.116338  0.111911  0  1.080998  0
H  H17  1  0.88165421  0.38842248  0.65708207  1  0.182711  0  0.116342  0.111825  0  1.081115  0
H  H18  1  0.38164460  0.11157443  0.15709234  1  0.182474  0  0.116295  0.111768  0  1.080985  0
H  H19  1  0.11834218  0.61156098  0.34291138  1  0.182891  0  0.11633  0.111909  0  1.081013  0
H  H20  1  0.93993419  0.61911492  0.84156064  1  0.152616  0  0.131063  0.092848  0  1.024427  0
H  H21  1  0.56006542  0.11911171  0.65844568  1  0.152421  0  0.131125  0.092908  0  1.024615  0
H  H22  1  0.06005069  0.38089622  0.15842794  1  0.152813  0  0.131109  0.092795  0  1.024586  0
H  H23  1  0.43993859  0.88088068  0.34157613  1  0.15269  0  0.131081  0.09279  0  1.024445  0
H  H24  1  0.78891872  0.53088157  0.93582404  1  0.073167  0  0.110281  0.11995  0  1.018791  0
H  H25  1  0.71105597  0.03086872  0.56418173  1  0.073068  0  0.110296  0.119983  0  1.018779  0
H  H26  1  0.21106479  0.46913315  0.06418300  1  0.072846  0  0.11029  0.119996  0  1.018735  0
H  H27  1  0.28893101  0.96913081  0.43582225  1  0.072967  0  0.110293  0.119969  0  1.018861  0
H  H28  1  0.76001281  0.42237170  0.05325922  1  0.121132  0  0.127448  0.090343  0  1.02082  0
H  H29  1  0.73996502  0.92238552  0.44673926  1  0.120486  0  0.127433  0.090341  0  1.020502  0
H  H30  1  0.23998371  0.57762516  0.94674701  1  0.120872  0  0.127469  0.090343  0  1.020828  0
H  H31  1  0.26002013  0.07762831  0.55326018  1  0.120803  0  0.127442  0.09034  0  1.020837  0
H  H32  1  0.88928971  0.99177615  0.82667057  1  0.115465  0  0.113247  0.109096  0  1.011736  0
H  H33  1  0.61072622  0.49176245  0.67332398  1  0.115694  0  0.113275  0.109151  0  1.011823  0
H  H34  1  0.11070073  0.00824304  0.17333034  1  0.11561  0  0.113231  0.109124  0  1.011602  0
H  H35  1  0.38928112  0.50823084  0.32666732  1  0.115563  0  0.113245  0.109081  0  1.011746  0
H  H36  1  0.64528143  0.06102970  0.02633567  1  0.131102  0  0.116864  0.110278  0  1.015199  0
H  H37  1  0.85472771  0.56102342  0.47365636  1  0.131445  0  0.116859  0.110314  0  1.015055  0
H  H38  1  0.35472469  0.93896269  0.97365749  1  0.131188  0  0.116888  0.110353  0  1.015204  0
H  H39  1  0.14529255  0.43897612  0.52633538  1  0.131044  0  0.116841  0.110274  0  1.015154  0
C  C40  1  0.46414243  0.43505103  0.85760415  1  0.071488  0  -0.088062  -0.219415  0  3.933713  0
C  C41  1  0.03585089  0.93505594  0.64239175  1  0.071313  0  -0.088078  -0.219298  0  3.933919  0
C  C42  1  0.53584226  0.56495922  0.14240165  1  0.071075  0  -0.088154  -0.219379  0  3.933673  0
C  C43  1  0.96415725  0.06494092  0.35760340  1  0.07119  0  -0.08818  -0.219492  0  3.933769  0
C  C44  1  0.59380623  0.21601346  0.94302407  1  0.168633  0  -0.008024  -0.100086  0  3.89392  0
C  C45  1  0.90618714  0.71601156  0.55697970  1  0.169092  0  -0.008019  -0.100024  0  3.893791  0
C  C46  1  0.40618365  0.78399054  0.05698447  1  0.169492  0  -0.007957  -0.099994  0  3.89397  0
C  C47  1  0.09381304  0.28399602  0.44302091  1  0.169114  0  -0.007846  -0.09975  0  3.893778  0
C  C48  1  0.51408457  0.63852213  0.81116498  1  0.026947  0  -0.084882  -0.208462  0  3.918044  0
C  C49  1  0.98593521  0.13852437  0.68884312  1  0.026654  0  -0.084936  -0.208432  0  3.917575  0
C  C50  1  0.48592010  0.36147919  0.18883323  1  0.027006  0  -0.084866  -0.208477  0  3.917806  0
C  C51  1  0.01408930  0.86147695  0.31116410  1  0.02699  0  -0.084828  -0.208338  0  3.918071  0
C  C52  1  0.42354299  0.53818820  0.81212663  1  0.030342  0  0.002286  0.06238  0  4.052272  0
C  C53  1  0.07646733  0.03817530  0.68787165  1  0.028369  0  0.002284  0.062267  0  4.052374  0
C  C54  1  0.57646828  0.46181402  0.18786991  1  0.029012  0  0.00238  0.062402  0  4.052147  0
C  C55  1  0.92353621  0.96180638  0.31212716  1  0.030232  0  0.002229  0.062245  0  4.052362  0
C  C56  1  0.28633979  0.54050657  0.76526956  1  0.920283  0  0.198491  0.22352  0  4.021336  0
C  C57  1  0.21366896  0.04050424  0.73472034  1  0.922955  0  0.198492  0.223639  0  4.021096  0
C  C58  1  0.71366595  0.45948493  0.23472870  1  0.922724  0  0.198452  0.223435  0  4.021492  0
C  C59  1  0.78634189  0.95949351  0.26526724  1  0.920012  0  0.198491  0.223602  0  4.021343  0
C  C60  1  0.72556217  0.84931199  0.84102666  1  0.160154  0  -0.004618  -0.101471  0  3.895717  0
C  C61  1  0.77444351  0.34929664  0.65899588  1  0.159985  0  -0.004531  -0.10114  0  3.895583  0
C  C62  1  0.27443160  0.15070808  0.15898777  1  0.160414  0  -0.004526  -0.101081  0  3.895437  0
C  C63  1  0.22556420  0.65069397  0.34101968  1  0.160033  0  -0.004654  -0.101539  0  3.895851  0
C  C64  1  0.59471218  0.43367037  0.90306417  1  0.236296  0  0.099899  0.203228  0  4.037019  0
C  C65  1  0.90528004  0.93365778  0.59693846  1  0.236308  0  0.099882  0.203059  0  4.036867  0
C  C66  1  0.40527583  0.56634702  0.09694047  1  0.236538  0  0.09996  0.203254  0  4.037043  0
C  C67  1  0.09472056  0.06633819  0.40305642  1  0.236475  0  0.099913  0.203438  0  4.036854  0
C  C68  1  0.89348015  0.70770419  0.84344632  1  0.933773  0  0.12942  0.084539  0  3.932814  0
C  C69  1  0.60653403  0.20768285  0.65655445  1  0.932893  0  0.129219  0.084384  0  3.932845  0
C  C70  1  0.10650715  0.29230785  0.15653852  1  0.933793  0  0.129294  0.084656  0  3.933128  0
C  C71  1  0.39348566  0.79229079  0.34345962  1  0.934229  0  0.129361  0.084638  0  3.933026  0
C  C72  1  0.64612964  0.63366761  0.85477533  1  0.30504  0  0.10174  0.204839  0  4.028669  0
C  C73  1  0.85388855  0.13366544  0.64522575  1  0.305501  0  0.101743  0.204831  0  4.028233  0
C  C74  1  0.35386366  0.36633996  0.14523078  1  0.305395  0  0.101609  0.204989  0  4.028702  0
C  C75  1  0.14613114  0.86633053  0.35477364  1  0.305375  0  0.101677  0.204883  0  4.028393  0
C  C76  1  0.68614825  0.53256028  0.90157639  1  0.04385  0  -0.097854  -0.274565  0  3.971145  0
C  C77  1  0.81383279  0.03255404  0.59843085  1  0.043828  0  -0.097802  -0.274539  0  3.970641  0
C  C78  1  0.31383611  0.46744729  0.09843387  1  0.044011  0  -0.09784  -0.274743  0  3.970928  0
C  C79  1  0.18616640  0.96744907  0.40156845  1  0.043842  0  -0.097806  -0.274647  0  3.970813  0
C  C80  1  0.71810958  0.33967607  0.02710552  1  0.94342  0  0.124581  0.07588  0  3.938687  0
C  C81  1  0.78187712  0.83966761  0.47288716  1  0.944583  0  0.124584  0.075927  0  3.938836  0
C  C82  1  0.28189078  0.66032703  0.97289255  1  0.943616  0  0.124495  0.075831  0  3.938767  0
C  C83  1  0.21811525  0.16032300  0.52710233  1  0.943686  0  0.124517  0.075804  0  3.938835  0
C  C84  1  0.86043532  0.89845132  0.83286159  1  0.482145  0  -0.006669  -0.027462  0  3.99228  0
C  C85  1  0.63956383  0.39844204  0.66713976  1  0.482036  0  -0.006704  -0.027679  0  3.992102  0
C  C86  1  0.13956635  0.10156429  0.16713333  1  0.482289  0  -0.006648  -0.027579  0  3.992019  0
C  C87  1  0.36043096  0.60155214  0.33286066  1  0.481867  0  -0.006668  -0.027452  0  3.992435  0
C  C88  1  0.65314326  0.15511198  0.01093730  1  0.442406  0  -0.005567  -0.029523  0  3.994723  0
C  C89  1  0.84686219  0.65511166  0.48906188  1  0.441468  0  -0.005655  -0.029735  0  3.994216  0
C  C90  1  0.34685435  0.84488577  0.98906897  1  0.441957  0  -0.005596  -0.029684  0  3.994777  0
C  C91  1  0.15314664  0.34489234  0.51093840  1  0.441303  0  -0.005664  -0.029745  0  3.994288  0
N  N92  1  0.74823828  0.72707704  0.84836427  1  -1.257218  0  -0.230126  0.007681  0  3.785209  0
N  N93  1  0.75177965  0.22706825  0.65162684  1  -1.256067  0  -0.230076  0.007589  0  3.785634  0
N  N94  1  0.25175244  0.27294125  0.15163282  1  -1.25746  0  -0.230008  0.007439  0  3.785458  0
N  N95  1  0.24824908  0.77292861  0.34836712  1  -1.25765  0  -0.23008  0.007561  0  3.785366  0
N  N96  1  0.96420877  0.80917957  0.83354055  1  -1.200873  0  -0.369829  -0.255078  0  3.626081  0
N  N97  1  0.53579337  0.30916473  0.66646251  1  -1.200373  0  -0.369878  -0.255031  0  3.625737  0
N  N98  1  0.03578537  0.19083515  0.16645410  1  -1.200847  0  -0.369865  -0.255126  0  3.625939  0
N  N99  1  0.46420385  0.69081784  0.33354884  1  -1.200666  0  -0.369811  -0.255031  0  3.626034  0
N  N100  1  0.19806344  0.63627245  0.75701707  1  -0.732798  0  -0.270328  -0.246389  0  3.574982  0
N  N101  1  0.30194254  0.13627828  0.74298190  1  -0.732874  0  -0.270283  -0.246359  0  3.574782  0
N  N102  1  0.80192063  0.36370923  0.24298233  1  -0.732808  0  -0.270122  -0.246  0  3.574678  0
N  N103  1  0.69807547  0.86371679  0.25701105  1  -0.732366  0  -0.270202  -0.246378  0  3.575202  0
N  N104  1  0.22880384  0.44582051  0.72316587  1  -0.735656  0  -0.279036  -0.239627  0  3.630957  0
N  N105  1  0.27119030  0.94582715  0.77683186  1  -0.736381  0  -0.279074  -0.239625  0  3.631203  0
N  N106  1  0.77119858  0.55417099  0.27683354  1  -0.736595  0  -0.279052  -0.239625  0  3.631158  0
N  N107  1  0.72880913  0.05417328  0.22316426  1  -0.735776  0  -0.279036  -0.239539  0  3.630948  0
N  N108  1  0.63545376  0.33428743  0.95385678  1  -1.24224  0  -0.228511  0.01081  0  3.777729  0
N  N109  1  0.86452595  0.83428158  0.54613947  1  -1.242183  0  -0.22856  0.010853  0  3.777594  0
N  N110  1  0.36453766  0.66571925  0.04614544  1  -1.242184  0  -0.228554  0.010751  0  3.777913  0
N  N111  1  0.13544765  0.16572242  0.45385573  1  -1.241897  0  -0.228564  0.01055  0  3.777812  0
N  N112  1  0.72933599  0.23324919  0.06335603  1  -1.186437  0  -0.372589  -0.254652  0  3.653407  0
N  N113  1  0.77064497  0.73325321  0.43664207  1  -1.186948  0  -0.372452  -0.254547  0  3.6534  0
N  N114  1  0.27066316  0.76675213  0.93664391  1  -1.186674  0  -0.372533  -0.254533  0  3.653252  0
N  N115  1  0.22936078  0.26674365  0.56335619  1  -1.186385  0  -0.372564  -0.254571  0  3.65311  0
N  N116  1  0.08476095  0.59782945  0.70901506  1  -0.162074  0  -0.107116  -0.087931  0  3.313715  0
N  N117  1  0.41524017  0.09782901  0.79098225  1  -0.162114  0  -0.107062  -0.087905  0  3.314015  0
N  N118  1  0.91523427  0.40215848  0.29097964  1  -0.162336  0  -0.10723  -0.088157  0  3.314196  0
N  N119  1  0.58477194  0.90215534  0.20901751  1  -0.162411  0  -0.107151  -0.087922  0  3.314597  0
N  N120  1  0.10275014  0.48487782  0.68890177  1  -0.136426  0  -0.105575  -0.086277  0  3.264307  0
N  N121  1  0.39725008  0.98488199  0.81109575  1  -0.136325  0  -0.105624  -0.086337  0  3.264462  0
N  N122  1  0.89725491  0.51510743  0.31109135  1  -0.136338  0  -0.105571  -0.086251  0  3.264631  0
N  N123  1  0.60274373  0.01510505  0.18890336  1  -0.136375  0  -0.105568  -0.08631  0  3.264224  0
