# generated using pymatgen
data_CoH28C36Br4(N2O)4
_symmetry_space_group_name_H-M   'P 1'
_cell_length_a   8.86655306
_cell_length_b   9.63987454
_cell_length_c   11.78642409
_cell_angle_alpha   110.20700614
_cell_angle_beta   105.43734335
_cell_angle_gamma   90.16636995
_symmetry_Int_Tables_number   1
_chemical_formula_structural   CoH28C36Br4(N2O)4
_chemical_formula_sum   'Co1 H28 C36 Br4 N8 O4'
_cell_volume   906.27761027
_cell_formula_units_Z   1
loop_
 _symmetry_equiv_pos_site_id
 _symmetry_equiv_pos_as_xyz
  1  'x, y, z'
loop_
 _atom_site_type_symbol
 _atom_site_label
 _atom_site_symmetry_multiplicity
 _atom_site_fract_x
 _atom_site_fract_y
 _atom_site_fract_z
 _atom_site_occupancy
 _atom_site_pbe_cm5_charge
 _atom_site_pbe_ddec_charge
 _atom_site_pbe_ddec_spin_density
 _atom_site_pbe_ddec_sum_bond_order
 _atom_site_pbe_magmom
Co  Co0  1  0.49999598  0.99999932  0.00001028  1  0.683341  0.60151  1.018996  2.949982  0.946
H  H1  1  0.73505931  0.49768734  0.17133709  1  0.114732  0.098932  -0.000134  0.997274  0.0
H  H2  1  0.26494720  0.50228642  0.82865125  1  0.11465  0.098723  -0.000134  0.997337  0.0
H  H3  1  0.75500754  0.67640877  0.28848255  1  0.115828  0.101704  1.1e-05  0.970772  0.0
H  H4  1  0.24498433  0.32355807  0.71151197  1  0.115863  0.101747  1.1e-05  0.970935  0.0
H  H5  1  0.82711089  0.02278559  0.94020032  1  0.115847  0.113695  -7.1e-05  1.029656  0.0
H  H6  1  0.17286100  0.97721341  0.05979891  1  0.115875  0.113712  -7.1e-05  1.02969  0.0
H  H7  1  0.27498988  0.80469421  0.20246753  1  0.097828  0.102276  -4.4e-05  1.023653  0.0
H  H8  1  0.72497668  0.19532413  0.79750749  1  0.097805  0.10227  -4.4e-05  1.02353  0.0
H  H9  1  0.06399553  0.24484534  0.11257901  1  0.116681  0.117642  -5.8e-05  1.044788  0.0
H  H10  1  0.93599391  0.75514518  0.88740076  1  0.11668  0.117639  -5.8e-05  1.044805  0.0
H  H11  1  0.62749424  0.87197497  0.21325170  1  0.121406  0.093813  -0.000148  1.082273  0.0
H  H12  1  0.37250668  0.12800950  0.78676076  1  0.121445  0.093814  -0.000148  1.082275  0.0
H  H13  1  0.66274668  0.27096400  0.24846846  1  0.13266  0.109973  -0.00019  1.077974  0.0
H  H14  1  0.33728228  0.72904164  0.75155902  1  0.132647  0.10988  -0.00019  1.078065  0.0
H  H15  1  0.98467266  0.78513184  0.14781839  1  0.09676  0.098642  -4.6e-05  1.032819  0.0
H  H16  1  0.01529275  0.21486291  0.85216477  1  0.096781  0.098736  -4.6e-05  1.032918  0.0
H  H17  1  0.60975212  0.70226013  0.82798476  1  0.115422  0.119514  5e-06  1.0684  0.0
H  H18  1  0.39023140  0.29773774  0.17201978  1  0.115459  0.119605  5e-06  1.068248  0.0
H  H19  1  0.27974119  0.48211524  0.38052361  1  0.103166  0.115134  1e-06  1.006269  0.0
H  H20  1  0.72028263  0.51792316  0.61947854  1  0.103156  0.11511  1e-06  1.006047  0.0
H  H21  1  0.42396206  0.65662547  0.32473756  1  0.102514  0.106294  -5e-06  0.981689  0.0
H  H22  1  0.57603402  0.34341745  0.67524951  1  0.102446  0.106191  -5e-06  0.981731  0.0
H  H23  1  0.05134860  0.38149178  0.39169691  1  0.098202  0.080188  -3.7e-05  1.032423  0.0
H  H24  1  0.94868575  0.61851329  0.60830006  1  0.098146  0.080142  -3.7e-05  1.032444  0.0
H  H25  1  0.87436960  0.46680349  0.37124636  1  0.119524  0.109518  -1e-05  0.962058  0.0
H  H26  1  0.12566533  0.53319472  0.62876059  1  0.11946  0.10949  -1e-05  0.961971  0.0
H  H27  1  0.75891041  0.51036944  0.94306952  1  0.115816  0.122839  -4.5e-05  1.043211  0.0
H  H28  1  0.24106458  0.48961520  0.05692185  1  0.115796  0.122723  -4.5e-05  1.043317  0.0
C  C29  1  0.63607035  0.02567747  0.46933676  1  -0.028566  0.024816  0.000737  3.970958  0.001
C  C30  1  0.36394426  0.97432727  0.53067157  1  -0.028613  0.024702  0.000737  3.970967  0.001
C  C31  1  0.36111611  0.04776138  0.44650882  1  -0.02554  0.022956  0.000727  3.968049  0.001
C  C32  1  0.63889592  0.95224113  0.55349835  1  -0.025549  0.02286  0.000727  3.968133  0.001
C  C33  1  0.78738782  0.61283509  0.20238805  1  -0.042057  -0.09936  -5.3e-05  3.901313  0.0
C  C34  1  0.21260507  0.38714182  0.79760538  1  -0.042075  -0.099176  -5.3e-05  3.901219  0.0
C  C35  1  0.49583219  0.07279869  0.41332049  1  -0.023554  -0.095838  0.002704  3.980886  0.004
C  C36  1  0.50417857  0.92720267  0.58668780  1  -0.023552  -0.095679  0.002704  3.980707  0.004
C  C37  1  0.82979308  0.10582258  0.03056261  1  -0.001634  -0.030014  -0.002588  3.960536  -0.002
C  C38  1  0.17019789  0.89417983  0.96944130  1  -0.001625  -0.030041  -0.002589  3.96067  -0.002
C  C39  1  0.04963464  0.53359516  0.29534084  1  -0.021347  0.02458  -0.000101  3.968432  0.0
C  C40  1  0.95037059  0.46641085  0.70465416  1  -0.021386  0.02452  -0.000101  3.96888  0.0
C  C41  1  0.21265605  0.72906576  0.22953740  1  -0.099156  -0.094718  -6.1e-05  4.034153  0.0
C  C42  1  0.78733204  0.27095585  0.77045207  1  -0.099218  -0.094871  -6.1e-05  4.034535  0.0
C  C43  1  0.48783458  0.14310975  0.31399352  1  0.183196  0.554517  0.00149  4.328788  0.003
C  C44  1  0.51216916  0.85689158  0.68601340  1  0.183127  0.554488  0.001489  4.328906  0.003
C  C45  1  0.94716543  0.21474250  0.11465578  1  -0.009024  -0.120186  7.7e-05  3.93308  0.0
C  C46  1  0.05283320  0.78525558  0.88534326  1  -0.008992  -0.120076  7.7e-05  3.93298  0.0
C  C47  1  0.64454069  0.80157029  0.12468058  1  0.137158  0.08418  -0.004829  3.883877  -0.003
C  C48  1  0.35545441  0.19841539  0.87532432  1  0.137161  0.084256  -0.004829  3.88382  -0.003
C  C49  1  0.73783261  0.23148508  0.18660699  1  0.128557  0.057925  -0.005528  3.896698  -0.004
C  C50  1  0.26218295  0.76851611  0.81341321  1  0.128643  0.058094  -0.005528  3.896673  -0.004
C  C51  1  0.04840509  0.71732372  0.19803205  1  -0.100826  -0.150432  -5.6e-05  4.029001  0.0
C  C52  1  0.95157436  0.28267111  0.80195299  1  -0.100995  -0.150901  -5.6e-05  4.029515  0.0
C  C53  1  0.63812645  0.70960982  0.92561024  1  -0.007886  -0.05479  -0.00231  3.97017  -0.002
C  C54  1  0.36185801  0.29038582  0.07439467  1  -0.007839  -0.054857  -0.002311  3.97021  -0.002
C  C55  1  0.21421837  0.54842083  0.32930915  1  -0.088534  -0.123303  -6.1e-05  3.960435  0.0
C  C56  1  0.78579570  0.45160310  0.67068602  1  -0.088533  -0.123407  -6.1e-05  3.960298  0.0
C  C57  1  0.96529896  0.62087218  0.23081597  1  -0.016731  0.035852  -3.2e-05  3.944482  0.0
C  C58  1  0.03469864  0.37912827  0.76917423  1  -0.016673  0.036008  -3.2e-05  3.944286  0.0
C  C59  1  0.29578439  0.64629369  0.29711436  1  -0.089198  -0.065657  -9e-06  3.998668  0.0
C  C60  1  0.70420837  0.35372795  0.70287518  1  -0.088902  -0.065067  -9e-06  3.998578  0.0
C  C61  1  0.96599752  0.42089548  0.32609477  1  -0.049235  -0.10733  -3.3e-05  3.911788  0.0
C  C62  1  0.03403081  0.57910724  0.67390713  1  -0.049125  -0.107211  -3.3e-05  3.911708  0.0
C  C63  1  0.70987135  0.61330258  0.98082808  1  -0.006785  -0.115229  -0.000289  3.933335  0.0
C  C64  1  0.29010600  0.38668202  0.01916629  1  -0.006764  -0.115063  -0.000289  3.93337  0.0
Br  Br65  1  0.17185872  0.11358055  0.36929882  1  0.066255  -0.013999  0.000624  1.724331  0.001
Br  Br66  1  0.82814999  0.88641311  0.63070172  1  0.066239  -0.014012  0.000624  1.724404  0.001
Br  Br67  1  0.82411941  0.06938130  0.43437620  1  0.052038  -0.049268  0.000421  1.802396  0.001
Br  Br68  1  0.17589900  0.93062561  0.56563773  1  0.05204  -0.049246  0.000421  1.802466  0.001
N  N69  1  0.88693905  0.29284831  0.21267809  1  -0.25149  0.03366  -0.001261  3.780151  -0.001
N  N70  1  0.11307510  0.70715197  0.78732969  1  -0.251509  0.033661  -0.001261  3.780127  -0.001
N  N71  1  0.70032879  0.11790028  0.07660669  1  -0.360981  -0.224942  -0.00824  3.688564  -0.006
N  N72  1  0.29967344  0.88209641  0.92341046  1  -0.361063  -0.225111  -0.008241  3.688712  -0.006
N  N73  1  0.71299150  0.67287522  0.10621121  1  -0.25004  0.039887  -0.000952  3.806204  -0.001
N  N74  1  0.28699115  0.32710379  0.89378594  1  -0.250026  0.039853  -0.000952  3.806037  -0.001
N  N75  1  0.59853194  0.82694488  0.01701511  1  -0.358824  -0.226013  -0.00808  3.669714  -0.006
N  N76  1  0.40146067  0.17304958  0.98299782  1  -0.358984  -0.226219  -0.008078  3.669967  -0.006
O  O77  1  0.51057864  0.28231210  0.35153041  1  -0.334676  -0.54562  0.000774  2.118712  0.001
O  O78  1  0.48944585  0.71768721  0.64847314  1  -0.334599  -0.545602  0.000774  2.118767  0.001
O  O79  1  0.45897280  0.04823643  0.20243668  1  -0.309119  -0.552497  0.018202  2.251991  0.028
O  O80  1  0.54102860  0.95176489  0.79756978  1  -0.309126  -0.552536  0.0182  2.252038  0.028
