# generated using pymatgen
data_CuH7C7INO
_symmetry_space_group_name_H-M   'P 1'
_cell_length_a   4.20225084
_cell_length_b   10.93380429
_cell_length_c   18.04363220
_cell_angle_alpha   89.99968004
_cell_angle_beta   89.99999269
_cell_angle_gamma   96.34072351
_symmetry_Int_Tables_number   1
_chemical_formula_structural   CuH7C7INO
_chemical_formula_sum   'Cu4 H28 C28 I4 N4 O4'
_cell_volume   823.97184014
_cell_formula_units_Z   4
loop_
 _symmetry_equiv_pos_site_id
 _symmetry_equiv_pos_as_xyz
  1  'x, y, z'
loop_
 _atom_site_type_symbol
 _atom_site_label
 _atom_site_symmetry_multiplicity
 _atom_site_fract_x
 _atom_site_fract_y
 _atom_site_fract_z
 _atom_site_occupancy
 _atom_site_hle17_bader_spin_density
 _atom_site_hle17_ddec_charge
 _atom_site_hle17_ddec_spin_density
 _atom_site_hle17_ddec_sum_bond_order
 _atom_site_hle17_magmom
 _atom_site_hse06_10hf_bader_spin_density
 _atom_site_hse06_10hf_ddec_charge
 _atom_site_hse06_10hf_ddec_spin_density
 _atom_site_hse06_10hf_ddec_sum_bond_order
 _atom_site_hse06_10hf_magmom
 _atom_site_hse06_bader_spin_density
 _atom_site_hse06_ddec_charge
 _atom_site_hse06_ddec_spin_density
 _atom_site_hse06_ddec_sum_bond_order
 _atom_site_hse06_magmom
 _atom_site_pbe_bader_spin_density
 _atom_site_pbe_cm5_charge
 _atom_site_pbe_ddec_charge
 _atom_site_pbe_ddec_spin_density
 _atom_site_pbe_ddec_sum_bond_order
 _atom_site_pbe_magmom
Cu  Cu0  1  0.24440667  0.48500966  0.04612459  1  0  0.23552  0  2.178322  0  0  0.155552  0  2.660868  0  0  0.170202  0  2.603074  0  0  0.238479  0.147346  0  2.699691  0
Cu  Cu1  1  0.75557563  0.01500167  0.54611672  1  0  0.235537  0  2.178297  0  0  0.155608  0  2.660852  0  0  0.170168  0  2.603113  0  0  0.238458  0.147383  0  2.699678  0
Cu  Cu2  1  0.75558228  0.51500223  0.95388301  1  0  0.235543  0  2.178325  0  0  0.155567  0  2.660883  0  0  0.170217  0  2.603155  0  0  0.238477  0.14737  0  2.699721  0
Cu  Cu3  1  0.24440550  0.98500742  0.45387480  1  0  0.235503  0  2.178329  0  0  0.155557  0  2.660888  0  0  0.170223  0  2.60305  0  0  0.238481  0.147333  0  2.699709  0
H  H4  1  0.42804475  0.42533110  0.20068226  1  0  0.079546  0  0.95162  0  0  0.081909  0  1.029235  0  0  0.085639  0  1.025246  0  0  0.106439  0.079002  0  1.032452  0
H  H5  1  0.57195264  0.07467429  0.70067863  1  0  0.079473  0  0.951742  0  0  0.08185  0  1.029354  0  0  0.085579  0  1.025364  0  0  0.106425  0.078942  0  1.032565  0
H  H6  1  0.57194845  0.57466888  0.79932146  1  0  0.0795  0  0.951698  0  0  0.081881  0  1.029323  0  0  0.085611  0  1.025332  0  0  0.106408  0.078969  0  1.032533  0
H  H7  1  0.42805382  0.92533129  0.29931677  1  0  0.079498  0  0.951643  0  0  0.081859  0  1.029258  0  0  0.085585  0  1.025273  0  0  0.106408  0.078944  0  1.032466  0
H  H8  1  0.01591804  0.68249604  0.34421003  1  0  0.089172  0  0.977082  0  0  0.098798  0  1.044741  0  0  0.101288  0  1.043273  0  0  0.091949  0.096715  0  1.04616  0
H  H9  1  0.98409035  0.81750009  0.84419892  1  0  0.089154  0  0.976923  0  0  0.09878  0  1.044562  0  0  0.101271  0  1.043091  0  0  0.091944  0.096699  0  1.045981  0
H  H10  1  0.98410698  0.31749773  0.65580366  1  0  0.089164  0  0.976955  0  0  0.098812  0  1.044567  0  0  0.101303  0  1.043095  0  0  0.091923  0.096729  0  1.045987  0
H  H11  1  0.01593057  0.18249641  0.15578706  1  0  0.089146  0  0.977042  0  0  0.098774  0  1.044705  0  0  0.101266  0  1.043235  0  0  0.09194  0.096693  0  1.046132  0
H  H12  1  0.82862330  0.78354959  0.22978333  1  0  0.117532  0  0.971426  0  0  0.123925  0  1.035695  0  0  0.127893  0  1.033944  0  0  0.105982  0.12094  0  1.037368  0
H  H13  1  0.17137442  0.71645121  0.72976871  1  0  0.117655  0  0.971324  0  0  0.124038  0  1.035589  0  0  0.128032  0  1.033804  0  0  0.10606  0.121053  0  1.037267  0
H  H14  1  0.17139419  0.21645240  0.77023535  1  0  0.117616  0  0.971382  0  0  0.124012  0  1.035621  0  0  0.128025  0  1.033815  0  0  0.106065  0.121027  0  1.037298  0
H  H15  1  0.82862831  0.28354884  0.27021395  1  0  0.117577  0  0.97136  0  0  0.123952  0  1.035648  0  0  0.127895  0  1.033926  0  0  0.105996  0.120976  0  1.037319  0
H  H16  1  0.95249579  0.69935469  0.10621522  1  0  0.079915  0  0.93583  0  0  0.085561  0  1.00713  0  0  0.088948  0  1.002975  0  0  0.107783  0.082754  0  1.010562  0
H  H17  1  0.04748241  0.80065357  0.60620199  1  0  0.079846  0  0.93591  0  0  0.085546  0  1.007211  0  0  0.088939  0  1.003044  0  0  0.107748  0.082742  0  1.010646  0
H  H18  1  0.04749986  0.30065542  0.89380069  1  0  0.079986  0  0.935931  0  0  0.085679  0  1.007212  0  0  0.08906  0  1.003061  0  0  0.107811  0.082872  0  1.010641  0
H  H19  1  0.95250043  0.19935278  0.39378234  1  0  0.079925  0  0.93587  0  0  0.085549  0  1.007187  0  0  0.088941  0  1.00303  0  0  0.107781  0.082743  0  1.010626  0
H  H20  1  0.31252920  0.43317140  0.46004855  1  0  0.129774  0  0.967023  0  0  0.147743  0  1.031504  0  0  0.150124  0  1.03081  0  0  0.089515  0.145923  0  1.031974  0
H  H21  1  0.68745890  0.06682599  0.96004272  1  0  0.129773  0  0.96701  0  0  0.147751  0  1.031503  0  0  0.150135  0  1.030805  0  0  0.089525  0.145937  0  1.031954  0
H  H22  1  0.68745984  0.56682120  0.53995739  1  0  0.129683  0  0.967044  0  0  0.147687  0  1.031524  0  0  0.150067  0  1.030828  0  0  0.089513  0.145873  0  1.031982  0
H  H23  1  0.31253773  0.93316851  0.03995158  1  0  0.129684  0  0.96706  0  0  0.147678  0  1.031534  0  0  0.150061  0  1.030837  0  0  0.089493  0.145862  0  1.031989  0
H  H24  1  0.95381671  0.47520181  0.41821099  1  0  0.145805  0  0.954185  0  0  0.167711  0  1.00934  0  0  0.169795  0  1.009031  0  0  0.101371  0.166094  0  1.009741  0
H  H25  1  0.04617607  0.02479509  0.91820755  1  0  0.14577  0  0.954229  0  0  0.167704  0  1.009364  0  0  0.169783  0  1.009055  0  0  0.101371  0.166087  0  1.009761  0
H  H26  1  0.04618187  0.52479087  0.58179162  1  0  0.145745  0  0.954244  0  0  0.167689  0  1.009367  0  0  0.169765  0  1.009063  0  0  0.101365  0.166074  0  1.009767  0
H  H27  1  0.95382511  0.97519852  0.08178952  1  0  0.145729  0  0.954131  0  0  0.167614  0  1.009339  0  0  0.169698  0  1.009026  0  0  0.101345  0.165998  0  1.009741  0
H  H28  1  0.27085848  0.59134204  0.43863352  1  0  0.129494  0  0.96994  0  0  0.14726  0  1.037283  0  0  0.149038  0  1.037355  0  0  0.085511  0.145692  0  1.037593  0
H  H29  1  0.72913598  0.90865586  0.93862932  1  0  0.12952  0  0.969906  0  0  0.1473  0  1.037254  0  0  0.149078  0  1.03732  0  0  0.085505  0.145729  0  1.037563  0
H  H30  1  0.72914031  0.40865155  0.56137186  1  0  0.129506  0  0.969937  0  0  0.147281  0  1.037296  0  0  0.149055  0  1.037371  0  0  0.085501  0.145708  0  1.037613  0
H  H31  1  0.27086304  0.09133866  0.06136498  1  0  0.12947  0  0.969988  0  0  0.147238  0  1.037333  0  0  0.14901  0  1.037406  0  0  0.085516  0.145674  0  1.037642  0
C  C32  1  0.29669520  0.50482788  0.20929237  1  0  0.123346  0  3.653738  0  0  0.082448  0  3.903172  0  0  0.090339  0  3.920429  0  0  0.051557  0.07728  0  3.892104  0
C  C33  1  0.70330087  0.99517586  0.70928566  1  0  0.123448  0  3.653836  0  0  0.082528  0  3.903286  0  0  0.090424  0  3.920536  0  0  0.051658  0.077371  0  3.892211  0
C  C34  1  0.70330754  0.49517217  0.79071467  1  0  0.123331  0  3.653693  0  0  0.082351  0  3.903116  0  0  0.090248  0  3.920372  0  0  0.051606  0.077205  0  3.89203  0
C  C35  1  0.29670298  0.00482880  0.29070753  1  0  0.12341  0  3.653796  0  0  0.082539  0  3.903218  0  0  0.090429  0  3.920475  0  0  0.051597  0.077386  0  3.892121  0
C  C36  1  0.23782616  0.54494037  0.28113870  1  0  -0.108218  0  3.75483  0  0  -0.08335  0  3.985748  0  0  -0.0946  0  4.010768  0  0  -0.0181  -0.076245  0  3.969405  0
C  C37  1  0.76217378  0.95505996  0.78113323  1  0  -0.108142  0  3.754682  0  0  -0.083318  0  3.985552  0  0  -0.094571  0  4.010565  0  0  -0.018124  -0.076216  0  3.969221  0
C  C38  1  0.76218500  0.45505515  0.71886779  1  0  -0.107998  0  3.754524  0  0  -0.083081  0  3.985218  0  0  -0.094331  0  4.01023  0  0  -0.018036  -0.076002  0  3.968907  0
C  C39  1  0.23783894  0.04494199  0.21885940  1  0  -0.108182  0  3.754924  0  0  -0.08335  0  3.985814  0  0  -0.094598  0  4.010833  0  0  -0.01811  -0.076237  0  3.969456  0
C  C40  1  0.06773597  0.64727668  0.28943454  1  0  -0.014726  0  3.688955  0  0  -0.04349  0  3.936342  0  0  -0.038395  0  3.95476  0  0  -0.064547  -0.047091  0  3.924489  0
C  C41  1  0.93226350  0.85272173  0.78942441  1  0  -0.01475  0  3.688951  0  0  -0.043463  0  3.936258  0  0  -0.038364  0  3.954676  0  0  -0.064552  -0.047062  0  3.924409  0
C  C42  1  0.93227780  0.35271977  0.71057750  1  0  -0.014692  0  3.688828  0  0  -0.043443  0  3.936058  0  0  -0.038351  0  3.954487  0  0  -0.064495  -0.047039  0  3.924216  0
C  C43  1  0.06774877  0.14727838  0.21056379  1  0  -0.014786  0  3.689151  0  0  -0.043559  0  3.936559  0  0  -0.038465  0  3.954969  0  0  -0.064586  -0.047164  0  3.924721  0
C  C44  1  0.96439998  0.70447686  0.22636287  1  0  -0.116143  0  3.711498  0  0  -0.127338  0  3.963184  0  0  -0.135845  0  3.984923  0  0  -0.084225  -0.121693  0  3.949097  0
C  C45  1  0.03559104  0.79552576  0.72635242  1  0  -0.116314  0  3.711554  0  0  -0.127463  0  3.963321  0  0  -0.135994  0  3.985045  0  0  -0.084261  -0.121816  0  3.949239  0
C  C46  1  0.03561013  0.29552416  0.77365083  1  0  -0.116308  0  3.71167  0  0  -0.127476  0  3.963446  0  0  -0.136017  0  3.98516  0  0  -0.084277  -0.121835  0  3.949356  0
C  C47  1  0.96440998  0.20447703  0.27363468  1  0  -0.116038  0  3.711272  0  0  -0.127227  0  3.963017  0  0  -0.135711  0  3.984764  0  0  -0.084155  -0.121596  0  3.94895  0
C  C48  1  0.03211131  0.65797880  0.15701828  1  0  0.158517  0  3.621314  0  0  0.12385  0  3.87355  0  0  0.132375  0  3.889456  0  0  0.051928  0.118088  0  3.863366  0
C  C49  1  0.96787367  0.84202810  0.65700708  1  0  0.158791  0  3.621099  0  0  0.123946  0  3.873536  0  0  0.132465  0  3.889461  0  0  0.052019  0.118184  0  3.863365  0
C  C50  1  0.96789060  0.34202767  0.84299486  1  0  0.158604  0  3.621305  0  0  0.123725  0  3.873771  0  0  0.132265  0  3.889679  0  0  0.051913  0.117956  0  3.863622  0
C  C51  1  0.03211893  0.15797923  0.34298001  1  0  0.15842  0  3.62118  0  0  0.12377  0  3.873426  0  0  0.132285  0  3.889329  0  0  0.051895  0.118007  0  3.863264  0
C  C52  1  0.35305946  0.47610337  0.34521405  1  0  0.504144  0  3.674009  0  0  0.490057  0  3.937607  0  0  0.511702  0  3.940901  0  0  0.167623  0.474945  0  3.935545  0
C  C53  1  0.64693525  0.02389147  0.84520893  1  0  0.504023  0  3.673855  0  0  0.490088  0  3.937287  0  0  0.511743  0  3.940549  0  0  0.167573  0.474973  0  3.935217  0
C  C54  1  0.64694366  0.52388842  0.65479299  1  0  0.503741  0  3.674215  0  0  0.489837  0  3.937556  0  0  0.511488  0  3.940818  0  0  0.167461  0.474738  0  3.935479  0
C  C55  1  0.35307591  0.97610404  0.15478537  1  0  0.504009  0  3.674209  0  0  0.490025  0  3.93767  0  0  0.511661  0  3.940971  0  0  0.167592  0.474909  0  3.935604  0
C  C56  1  0.21559039  0.49513827  0.42042726  1  0  -0.437212  0  3.67023  0  0  -0.515288  0  3.89772  0  0  -0.521577  0  3.902234  0  0  -0.253338  -0.510353  0  3.894626  0
C  C57  1  0.78441124  0.00485590  0.92042220  1  0  -0.437169  0  3.670332  0  0  -0.515351  0  3.897761  0  0  -0.52166  0  3.902317  0  0  -0.253339  -0.510411  0  3.894651  0
C  C58  1  0.78441467  0.50485169  0.57957812  1  0  -0.437007  0  3.670365  0  0  -0.515232  0  3.897779  0  0  -0.52153  0  3.902324  0  0  -0.253318  -0.510293  0  3.894675  0
C  C59  1  0.21559448  0.99513682  0.07957099  1  0  -0.436934  0  3.670186  0  0  -0.515062  0  3.897656  0  0  -0.521343  0  3.902184  0  0  -0.253277  -0.510134  0  3.894546  0
I  I60  1  0.68470597  0.33057627  0.04664636  1  0  -0.352138  0  1.704506  0  0  -0.296938  0  2.152976  0  0  -0.31258  0  2.1088  0  0  -0.164953  -0.284517  0  2.183539  0
I  I61  1  0.31527260  0.16942953  0.54664131  1  0  -0.352092  0  1.704427  0  0  -0.296939  0  2.152981  0  0  -0.312522  0  2.108751  0  0  -0.164967  -0.284495  0  2.18352  0
I  I62  1  0.31527664  0.66942916  0.95335736  1  0  -0.35211  0  1.704499  0  0  -0.296928  0  2.153025  0  0  -0.312567  0  2.108857  0  0  -0.164975  -0.284511  0  2.183589  0
I  I63  1  0.68470786  0.83057680  0.45335520  1  0  -0.352133  0  1.70453  0  0  -0.296949  0  2.15301  0  0  -0.312575  0  2.108816  0  0  -0.164965  -0.284513  0  2.183561  0
N  N64  1  0.19583399  0.55925893  0.14826244  1  0  -0.272664  0  3.355483  0  0  -0.193785  0  3.635133  0  0  -0.210357  0  3.648036  0  0  -0.355245  -0.183481  0  3.626897  0
N  N65  1  0.80414475  0.94075169  0.64825480  1  0  -0.272809  0  3.355436  0  0  -0.19388  0  3.635196  0  0  -0.210449  0  3.648082  0  0  -0.355338  -0.183589  0  3.626973  0
N  N66  1  0.80415384  0.44074837  0.85174793  1  0  -0.272716  0  3.355305  0  0  -0.193721  0  3.634965  0  0  -0.210313  0  3.6479  0  0  -0.355281  -0.183428  0  3.626728  0
N  N67  1  0.19584397  0.05925929  0.35173728  1  0  -0.272635  0  3.355515  0  0  -0.193782  0  3.635186  0  0  -0.210349  0  3.648084  0  0  -0.355251  -0.183485  0  3.626948  0
O  O68  1  0.55419212  0.40320830  0.33566011  1  0  -0.491709  0  1.952954  0  0  -0.444662  0  2.163658  0  0  -0.464019  0  2.162523  0  0  -0.257724  -0.431434  0  2.164597  0
O  O69  1  0.44579697  0.09678291  0.83565641  1  0  -0.491672  0  1.95282  0  0  -0.444675  0  2.163391  0  0  -0.46404  0  2.162255  0  0  -0.257702  -0.431453  0  2.164345  0
O  O70  1  0.44580728  0.59677795  0.66434416  1  0  -0.491568  0  1.953026  0  0  -0.444623  0  2.163603  0  0  -0.463981  0  2.162463  0  0  -0.257675  -0.431406  0  2.164553  0
O  O71  1  0.55420116  0.90320792  0.16433955  1  0  -0.491677  0  1.953132  0  0  -0.444656  0  2.163761  0  0  -0.46401  0  2.16263  0  0  -0.257691  -0.431429  0  2.164703  0
