# generated using pymatgen
data_CuH8C9S2BrN4
_symmetry_space_group_name_H-M   'P 1'
_cell_length_a   7.45141516
_cell_length_b   8.39393232
_cell_length_c   19.97827399
_cell_angle_alpha   89.99974944
_cell_angle_beta   89.99979115
_cell_angle_gamma   110.23960220
_symmetry_Int_Tables_number   1
_chemical_formula_structural   CuH8C9S2BrN4
_chemical_formula_sum   'Cu4 H32 C36 S8 Br4 N16'
_cell_volume   1172.41853330
_cell_formula_units_Z   4
loop_
 _symmetry_equiv_pos_site_id
 _symmetry_equiv_pos_as_xyz
  1  'x, y, z'
loop_
 _atom_site_type_symbol
 _atom_site_label
 _atom_site_symmetry_multiplicity
 _atom_site_fract_x
 _atom_site_fract_y
 _atom_site_fract_z
 _atom_site_occupancy
 _atom_site_hle17_bader_spin_density
 _atom_site_hle17_ddec_charge
 _atom_site_hle17_ddec_spin_density
 _atom_site_hle17_ddec_sum_bond_order
 _atom_site_hle17_magmom
 _atom_site_hse06_10hf_bader_spin_density
 _atom_site_hse06_10hf_ddec_charge
 _atom_site_hse06_10hf_ddec_spin_density
 _atom_site_hse06_10hf_ddec_sum_bond_order
 _atom_site_hse06_10hf_magmom
 _atom_site_hse06_bader_spin_density
 _atom_site_hse06_ddec_charge
 _atom_site_hse06_ddec_spin_density
 _atom_site_hse06_ddec_sum_bond_order
 _atom_site_hse06_magmom
 _atom_site_pbe_bader_spin_density
 _atom_site_pbe_cm5_charge
 _atom_site_pbe_ddec_charge
 _atom_site_pbe_ddec_spin_density
 _atom_site_pbe_ddec_sum_bond_order
 _atom_site_pbe_magmom
Cu  Cu0  1  0.95434584  0.41273533  0.42788984  1  0  0.390612  0  2.047458  0  0  0.291843  0  2.526863  0  0  0.290424  0  2.482082  0  0  0.412677  0.296853  0  2.554057  0
Cu  Cu1  1  0.04562553  0.08726398  0.92788886  1  0  0.390529  0  2.047465  0  0  0.291716  0  2.526914  0  0  0.290282  0  2.482101  0  0  0.41263  0.29671  0  2.554127  0
Cu  Cu2  1  0.04564959  0.58725775  0.57210997  1  0  0.390644  0  2.04758  0  0  0.291888  0  2.527009  0  0  0.290472  0  2.482227  0  0  0.412702  0.296889  0  2.55421  0
Cu  Cu3  1  0.95435242  0.91274217  0.07212547  1  0  0.390611  0  2.047667  0  0  0.29185  0  2.527112  0  0  0.290405  0  2.482304  0  0  0.412766  0.296839  0  2.554326  0
H  H4  1  0.96996685  0.80967264  0.32775873  1  0  0.128703  0  0.95732  0  0  0.132795  0  1.031317  0  0  0.135232  0  1.029885  0  0  0.099919  0.130946  0  1.032531  0
H  H5  1  0.03007992  0.69035419  0.82775060  1  0  0.12853  0  0.957597  0  0  0.132839  0  1.031302  0  0  0.135283  0  1.029857  0  0  0.099895  0.130997  0  1.032518  0
H  H6  1  0.03005783  0.19034935  0.67224358  1  0  0.128672  0  0.957412  0  0  0.132823  0  1.031328  0  0  0.135263  0  1.02989  0  0  0.099911  0.130975  0  1.032535  0
H  H7  1  0.96991656  0.30964143  0.17225072  1  0  0.128472  0  0.957581  0  0  0.132794  0  1.031241  0  0  0.135235  0  1.029802  0  0  0.09986  0.13095  0  1.032456  0
H  H8  1  0.72579745  0.80195294  0.32888663  1  0  0.12222  0  0.990415  0  0  0.129177  0  1.061697  0  0  0.131256  0  1.061328  0  0  0.102332  0.127664  0  1.06207  0
H  H9  1  0.27423968  0.69805358  0.82887715  1  0  0.122179  0  0.990259  0  0  0.129087  0  1.061619  0  0  0.131168  0  1.061249  0  0  0.102307  0.127582  0  1.061988  0
H  H10  1  0.27422094  0.19806021  0.67111519  1  0  0.122211  0  0.990449  0  0  0.129151  0  1.061741  0  0  0.131231  0  1.061372  0  0  0.102298  0.127636  0  1.062116  0
H  H11  1  0.72575865  0.30194328  0.17112616  1  0  0.122253  0  0.99018  0  0  0.129144  0  1.061523  0  0  0.131224  0  1.061152  0  0  0.102308  0.127635  0  1.061895  0
H  H12  1  0.26143447  0.82468271  0.40160291  1  0  0.080593  0  0.93624  0  0  0.085862  0  1.006102  0  0  0.089422  0  1.001489  0  0  0.109144  0.083065  0  1.009624  0
H  H13  1  0.73856695  0.67528739  0.90160587  1  0  0.080437  0  0.936361  0  0  0.085787  0  1.006123  0  0  0.08935  0  1.001538  0  0  0.109095  0.082997  0  1.009645  0
H  H14  1  0.73856007  0.17531805  0.59839791  1  0  0.080569  0  0.936323  0  0  0.085861  0  1.006153  0  0  0.089402  0  1.001591  0  0  0.109146  0.083067  0  1.009668  0
H  H15  1  0.26142419  0.32470832  0.09839745  1  0  0.080569  0  0.936391  0  0  0.085839  0  1.006248  0  0  0.089433  0  1.001594  0  0  0.109116  0.083041  0  1.00978  0
H  H16  1  0.24483269  0.08751308  0.46025975  1  0  0.11948  0  0.977806  0  0  0.122831  0  1.048498  0  0  0.126835  0  1.048221  0  0  0.095604  0.119819  0  1.04912  0
H  H17  1  0.75514171  0.41245497  0.96026480  1  0  0.119501  0  0.977888  0  0  0.122866  0  1.048564  0  0  0.126848  0  1.048334  0  0  0.095595  0.119858  0  1.049171  0
H  H18  1  0.75517119  0.91248753  0.53974457  1  0  0.11951  0  0.977861  0  0  0.122887  0  1.048499  0  0  0.126894  0  1.048221  0  0  0.095606  0.119863  0  1.049159  0
H  H19  1  0.24484862  0.58754204  0.03973702  1  0  0.119502  0  0.977886  0  0  0.122879  0  1.048552  0  0  0.126858  0  1.048329  0  0  0.095591  0.11987  0  1.049169  0
H  H20  1  0.55421448  0.33642892  0.47064912  1  0  0.072152  0  0.959056  0  0  0.079034  0  1.030135  0  0  0.081805  0  1.026615  0  0  0.104865  0.076826  0  1.032801  0
H  H21  1  0.44574315  0.16354434  0.97064748  1  0  0.072162  0  0.959089  0  0  0.078995  0  1.030167  0  0  0.081778  0  1.026634  0  0  0.10482  0.076774  0  1.032836  0
H  H22  1  0.44579013  0.66357679  0.52935370  1  0  0.072166  0  0.959114  0  0  0.079033  0  1.030196  0  0  0.081805  0  1.026678  0  0  0.104881  0.076842  0  1.032842  0
H  H23  1  0.55424828  0.83644881  0.02935683  1  0  0.072234  0  0.959051  0  0  0.079074  0  1.030138  0  0  0.081846  0  1.026617  0  0  0.10487  0.076858  0  1.032806  0
H  H24  1  0.51955754  0.96166165  0.27405857  1  0  0.071584  0  0.975338  0  0  0.078698  0  1.041178  0  0  0.081716  0  1.03755  0  0  0.106956  0.076427  0  1.043922  0
H  H25  1  0.48045167  0.53832453  0.77405159  1  0  0.071537  0  0.975319  0  0  0.078674  0  1.041131  0  0  0.081691  0  1.037501  0  0  0.106966  0.076412  0  1.043862  0
H  H26  1  0.48044745  0.03831210  0.72593473  1  0  0.071455  0  0.975443  0  0  0.078529  0  1.041323  0  0  0.081543  0  1.037698  0  0  0.106915  0.076267  0  1.044059  0
H  H27  1  0.51957168  0.46172049  0.22594622  1  0  0.071474  0  0.975337  0  0  0.078666  0  1.041109  0  0  0.081682  0  1.037481  0  0  0.106932  0.076404  0  1.043836  0
H  H28  1  0.62298937  0.01814367  0.15182550  1  0  0.109529  0  0.996236  0  0  0.112715  0  1.070395  0  0  0.116976  0  1.068916  0  0  0.094966  0.109489  0  1.071871  0
H  H29  1  0.37702638  0.48182631  0.65182193  1  0  0.109575  0  0.996206  0  0  0.1127  0  1.070425  0  0  0.116988  0  1.06892  0  0  0.094986  0.109477  0  1.071897  0
H  H30  1  0.37701465  0.98184415  0.84816581  1  0  0.109537  0  0.996211  0  0  0.112703  0  1.070373  0  0  0.116978  0  1.068879  0  0  0.095  0.109479  0  1.071842  0
H  H31  1  0.62297313  0.51818332  0.34817939  1  0  0.109625  0  0.996245  0  0  0.112762  0  1.070435  0  0  0.117076  0  1.068905  0  0  0.094992  0.109544  0  1.071901  0
H  H32  1  0.36960546  0.02153646  0.06908228  1  0  0.074564  0  0.96095  0  0  0.080763  0  1.032839  0  0  0.083985  0  1.028449  0  0  0.104563  0.078254  0  1.036145  0
H  H33  1  0.63040743  0.47840812  0.56907588  1  0  0.074628  0  0.960678  0  0  0.080788  0  1.032648  0  0  0.084014  0  1.028252  0  0  0.104571  0.078282  0  1.035951  0
H  H34  1  0.63038020  0.97844912  0.93091653  1  0  0.074659  0  0.960786  0  0  0.080845  0  1.032712  0  0  0.084068  0  1.028325  0  0  0.104634  0.078341  0  1.036012  0
H  H35  1  0.36958474  0.52156712  0.43092644  1  0  0.074578  0  0.960699  0  0  0.080747  0  1.032664  0  0  0.083973  0  1.028269  0  0  0.10455  0.078243  0  1.035966  0
C  C36  1  0.87375757  0.87938367  0.31648800  1  0  -0.199321  0  3.617621  0  0  -0.226313  0  3.880579  0  0  -0.225179  0  3.887431  0  0  -0.149122  -0.227054  0  3.875832  0
C  C37  1  0.12626346  0.62062588  0.81648235  1  0  -0.199052  0  3.617508  0  0  -0.226137  0  3.880432  0  0  -0.225006  0  3.887282  0  0  -0.149044  -0.226905  0  3.875732  0
C  C38  1  0.12625978  0.12062693  0.68351332  1  0  -0.199226  0  3.6177  0  0  -0.226219  0  3.880592  0  0  -0.225087  0  3.887442  0  0  -0.149053  -0.226955  0  3.875838  0
C  C39  1  0.87372849  0.37936854  0.18351997  1  0  -0.1991  0  3.617374  0  0  -0.226137  0  3.880289  0  0  -0.225006  0  3.887139  0  0  -0.149011  -0.226906  0  3.875592  0
C  C40  1  0.71208391  0.06477949  0.39476581  1  0  0.327017  0  3.788103  0  0  0.31046  0  4.068045  0  0  0.327576  0  4.079701  0  0  0.233431  0.298915  0  4.060384  0
C  C41  1  0.28790956  0.43522384  0.89476844  1  0  0.327044  0  3.787761  0  0  0.310417  0  4.067865  0  0  0.327533  0  4.079508  0  0  0.233413  0.298855  0  4.060252  0
C  C42  1  0.28792019  0.93522495  0.60523250  1  0  0.327112  0  3.787615  0  0  0.310516  0  4.067652  0  0  0.327635  0  4.079304  0  0  0.233488  0.298952  0  4.060028  0
C  C43  1  0.71207625  0.56477196  0.10523388  1  0  0.327116  0  3.787706  0  0  0.310564  0  4.067716  0  0  0.327682  0  4.079366  0  0  0.233478  0.299012  0  4.060066  0
C  C44  1  0.38899517  0.93685453  0.40890567  1  0  0.194352  0  3.674061  0  0  0.161582  0  3.939602  0  0  0.174664  0  3.950424  0  0  0.062457  0.152874  0  3.932643  0
C  C45  1  0.61099391  0.56313483  0.90890848  1  0  0.194525  0  3.6741  0  0  0.161721  0  3.939646  0  0  0.174784  0  3.950447  0  0  0.062594  0.153008  0  3.932707  0
C  C46  1  0.61100404  0.06315766  0.59109315  1  0  0.194411  0  3.673916  0  0  0.161609  0  3.939519  0  0  0.174686  0  3.950334  0  0  0.062476  0.152904  0  3.932558  0
C  C47  1  0.38899241  0.43686224  0.09109134  1  0  0.194571  0  3.674128  0  0  0.161793  0  3.939689  0  0  0.174854  0  3.950504  0  0  0.062622  0.153083  0  3.932736  0
C  C48  1  0.37850786  0.08076594  0.44094868  1  0  -0.180424  0  3.707471  0  0  -0.194719  0  3.960119  0  0  -0.206386  0  3.981184  0  0  -0.096441  -0.1876  0  3.946886  0
C  C49  1  0.62147418  0.41921380  0.94095440  1  0  -0.18062  0  3.707385  0  0  -0.194974  0  3.960029  0  0  -0.206634  0  3.98109  0  0  -0.096601  -0.187845  0  3.946797  0
C  C50  1  0.62148935  0.91923478  0.55904712  1  0  -0.180521  0  3.707304  0  0  -0.194837  0  3.960006  0  0  -0.206502  0  3.981061  0  0  -0.096496  -0.187721  0  3.946774  0
C  C51  1  0.37851696  0.58078191  0.05904491  1  0  -0.180607  0  3.707422  0  0  -0.194933  0  3.96004  0  0  -0.206601  0  3.981108  0  0  -0.096546  -0.187811  0  3.94682  0
C  C52  1  0.54811348  0.21734943  0.44711966  1  0  0.184712  0  3.670551  0  0  0.152449  0  3.919562  0  0  0.163604  0  3.933578  0  0  0.054351  0.145172  0  3.910557  0
C  C53  1  0.45185513  0.28263043  0.94712183  1  0  0.184605  0  3.670869  0  0  0.15246  0  3.91982  0  0  0.163603  0  3.933825  0  0  0.054396  0.145204  0  3.910801  0
C  C54  1  0.45188477  0.78265383  0.55287965  1  0  0.184625  0  3.670845  0  0  0.152399  0  3.919872  0  0  0.163548  0  3.933892  0  0  0.054319  0.145123  0  3.91085  0
C  C55  1  0.54813334  0.71736532  0.05288099  1  0  0.184539  0  3.670783  0  0  0.152348  0  3.919809  0  0  0.1635  0  3.933819  0  0  0.054309  0.145086  0  3.910793  0
C  C56  1  0.11825445  0.95290030  0.20752357  1  0  0.333618  0  3.797538  0  0  0.316451  0  4.077536  0  0  0.333604  0  4.089326  0  0  0.232756  0.30499  0  4.069637  0
C  C57  1  0.88178578  0.54710437  0.70752255  1  0  0.333581  0  3.798124  0  0  0.31632  0  4.078323  0  0  0.33347  0  4.090117  0  0  0.232678  0.304857  0  4.070426  0
C  C58  1  0.88176439  0.04709750  0.79247474  1  0  0.333642  0  3.797989  0  0  0.316339  0  4.078126  0  0  0.333478  0  4.089914  0  0  0.232748  0.304901  0  4.070214  0
C  C59  1  0.11821195  0.45289762  0.29247727  1  0  0.333523  0  3.798371  0  0  0.316324  0  4.078451  0  0  0.333474  0  4.090244  0  0  0.232675  0.304872  0  4.070542  0
C  C60  1  0.42130794  0.96998248  0.23482952  1  0  0.180345  0  3.682846  0  0  0.151889  0  3.936581  0  0  0.165197  0  3.947812  0  0  0.05265  0.143096  0  3.929031  0
C  C61  1  0.57870822  0.53001319  0.73482592  1  0  0.180322  0  3.683484  0  0  0.151843  0  3.937205  0  0  0.165145  0  3.948446  0  0  0.052585  0.143053  0  3.929664  0
C  C62  1  0.57870438  0.03000265  0.76516129  1  0  0.180336  0  3.683374  0  0  0.151941  0  3.93706  0  0  0.165246  0  3.948296  0  0  0.052543  0.14314  0  3.929526  0
C  C63  1  0.42129988  0.47001419  0.26517389  1  0  0.180404  0  3.683273  0  0  0.151911  0  3.936952  0  0  0.165212  0  3.9482  0  0  0.052664  0.143121  0  3.929402  0
C  C64  1  0.47795825  0.99947978  0.16828617  1  0  -0.1927  0  3.739939  0  0  -0.203877  0  3.992199  0  0  -0.215519  0  4.011327  0  0  -0.099376  -0.196726  0  3.980115  0
C  C65  1  0.52204693  0.50050058  0.66828920  1  0  -0.192735  0  3.739696  0  0  -0.203891  0  3.992011  0  0  -0.215555  0  4.011112  0  0  -0.099305  -0.196744  0  3.979936  0
C  C66  1  0.52203993  0.00050686  0.83170263  1  0  -0.192715  0  3.739894  0  0  -0.203916  0  3.992262  0  0  -0.215566  0  4.011376  0  0  -0.099281  -0.196766  0  3.980181  0
C  C67  1  0.47795813  0.49951280  0.33171361  1  0  -0.192811  0  3.739584  0  0  -0.204002  0  3.991943  0  0  -0.215689  0  4.011025  0  0  -0.099293  -0.196857  0  3.979863  0
C  C68  1  0.33954239  0.00274561  0.12246681  1  0  0.197761  0  3.660557  0  0  0.161313  0  3.914108  0  0  0.174373  0  3.925124  0  0  0.057452  0.152704  0  3.907131  0
C  C69  1  0.66047807  0.49722862  0.62246634  1  0  0.197804  0  3.660334  0  0  0.161406  0  3.913868  0  0  0.17447  0  3.924878  0  0  0.057487  0.152794  0  3.906886  0
C  C70  1  0.66046290  0.99724859  0.87752700  1  0  0.197753  0  3.660311  0  0  0.161249  0  3.913909  0  0  0.174298  0  3.924913  0  0  0.057381  0.152653  0  3.906939  0
C  C71  1  0.33951870  0.50276444  0.37753498  1  0  0.197894  0  3.660343  0  0  0.16146  0  3.913928  0  0  0.174516  0  3.924951  0  0  0.057508  0.15285  0  3.906953  0
S  S72  1  0.93784855  0.06591480  0.36926846  1  0  0.033452  0  2.466014  0  0  0.021687  0  2.825909  0  0  0.018441  0  2.824222  0  0  0.037537  0.023746  0  2.827145  0
S  S73  1  0.06215474  0.43410541  0.86926539  1  0  0.033391  0  2.465938  0  0  0.02167  0  2.825839  0  0  0.018433  0  2.824151  0  0  0.037592  0.023746  0  2.827097  0
S  S74  1  0.06215036  0.93409995  0.63073286  1  0  0.03342  0  2.465975  0  0  0.021682  0  2.82582  0  0  0.018435  0  2.824134  0  0  0.037551  0.02375  0  2.827065  0
S  S75  1  0.93784277  0.56589274  0.13073543  1  0  0.033403  0  2.465761  0  0  0.02165  0  2.825626  0  0  0.018409  0  2.823936  0  0  0.037565  0.02372  0  2.82688  0
S  S76  1  0.87902038  0.91925140  0.22731810  1  0  0.005931  0  2.458392  0  0  -0.006595  0  2.825804  0  0  -0.010144  0  2.822893  0  0  0.033127  -0.003981  0  2.827491  0
S  S77  1  0.12098605  0.58074328  0.72731052  1  0  0.005914  0  2.458768  0  0  -0.006544  0  2.826154  0  0  -0.010095  0  2.823252  0  0  0.03315  -0.003924  0  2.827862  0
S  S78  1  0.12098454  0.08075175  0.77268422  1  0  0.005932  0  2.458528  0  0  -0.006557  0  2.825953  0  0  -0.010107  0  2.823055  0  0  0.033153  -0.003946  0  2.827638  0
S  S79  1  0.87902264  0.41925596  0.27268979  1  0  0.005961  0  2.458892  0  0  -0.006555  0  2.826311  0  0  -0.010108  0  2.823417  0  0  0.033099  -0.003935  0  2.828004  0
Br  Br80  1  0.86679595  0.65521105  0.46888824  1  0  -0.53957  0  1.198136  0  0  -0.47567  0  1.564811  0  0  -0.493582  0  1.534069  0  0  -0.276184  -0.462188  0  1.584359  0
Br  Br81  1  0.13322443  0.84479723  0.96888672  1  0  -0.539575  0  1.197926  0  0  -0.475726  0  1.56464  0  0  -0.49361  0  1.53388  0  0  -0.276186  -0.462235  0  1.584171  0
Br  Br82  1  0.13320577  0.34479087  0.53111157  1  0  -0.539564  0  1.198182  0  0  -0.475666  0  1.564857  0  0  -0.493574  0  1.534111  0  0  -0.276178  -0.462188  0  1.584397  0
Br  Br83  1  0.86676442  0.15518957  0.03111660  1  0  -0.539526  0  1.198217  0  0  -0.475663  0  1.564953  0  0  -0.493551  0  1.534185  0  0  -0.276138  -0.46217  0  1.584488  0
N  N84  1  0.55517812  0.92821444  0.38634506  1  0  -0.382966  0  3.089722  0  0  -0.337678  0  3.351588  0  0  -0.355574  0  3.365618  0  0  -0.318344  -0.325741  0  3.342139  0
N  N85  1  0.44483310  0.57178260  0.88635058  1  0  -0.382875  0  3.089805  0  0  -0.337567  0  3.3517  0  0  -0.355458  0  3.365732  0  0  -0.318322  -0.325637  0  3.342282  0
N  N86  1  0.44482827  0.07179890  0.61365176  1  0  -0.38299  0  3.089725  0  0  -0.337685  0  3.351635  0  0  -0.355575  0  3.365661  0  0  -0.318363  -0.325753  0  3.342205  0
N  N87  1  0.55515737  0.42820162  0.11365074  1  0  -0.383099  0  3.089882  0  0  -0.337813  0  3.351731  0  0  -0.35571  0  3.365772  0  0  -0.318402  -0.32588  0  3.342293  0
N  N88  1  0.71603752  0.21283185  0.42373115  1  0  -0.380676  0  3.374965  0  0  -0.308623  0  3.665945  0  0  -0.322383  0  3.669723  0  0  -0.367997  -0.300454  0  3.66338  0
N  N89  1  0.28394517  0.28716223  0.92373303  1  0  -0.380401  0  3.374889  0  0  -0.308387  0  3.66589  0  0  -0.322162  0  3.669721  0  0  -0.367931  -0.300221  0  3.663342  0
N  N90  1  0.28396139  0.78715989  0.57626666  1  0  -0.3806  0  3.374825  0  0  -0.308546  0  3.665787  0  0  -0.322315  0  3.669591  0  0  -0.367988  -0.300384  0  3.663251  0
N  N91  1  0.71604559  0.71284244  0.07627179  1  0  -0.380457  0  3.374822  0  0  -0.308471  0  3.66586  0  0  -0.322228  0  3.669638  0  0  -0.367981  -0.300301  0  3.663302  0
N  N92  1  0.15736876  0.97547247  0.14076751  1  0  -0.38282  0  3.36629  0  0  -0.3096  0  3.656883  0  0  -0.323055  0  3.65937  0  0  -0.369304  -0.301816  0  3.655279  0
N  N93  1  0.84265464  0.52451571  0.64076758  1  0  -0.382944  0  3.366454  0  0  -0.309746  0  3.6571  0  0  -0.3232  0  3.659595  0  0  -0.369334  -0.301949  0  3.655486  0
N  N94  1  0.84263356  0.02452432  0.85922630  1  0  -0.382764  0  3.366038  0  0  -0.309397  0  3.65656  0  0  -0.322827  0  3.659042  0  0  -0.369213  -0.301653  0  3.654993  0
N  N95  1  0.15735227  0.47547590  0.35922974  1  0  -0.382785  0  3.366307  0  0  -0.309552  0  3.656853  0  0  -0.323014  0  3.659366  0  0  -0.369244  -0.301775  0  3.655247  0
N  N96  1  0.24261288  0.94963756  0.25489145  1  0  -0.36821  0  3.047007  0  0  -0.326532  0  3.308588  0  0  -0.343334  0  3.321361  0  0  -0.31812  -0.315341  0  3.299888  0
N  N97  1  0.75739725  0.55036682  0.75488157  1  0  -0.368124  0  3.047614  0  0  -0.326433  0  3.30926  0  0  -0.343235  0  3.322037  0  0  -0.31808  -0.315242  0  3.300566  0
N  N98  1  0.75739307  0.05034512  0.74510987  1  0  -0.368223  0  3.047554  0  0  -0.326525  0  3.309174  0  0  -0.343325  0  3.321948  0  0  -0.318133  -0.315328  0  3.300466  0
N  N99  1  0.24260907  0.44965292  0.24511974  1  0  -0.368272  0  3.047801  0  0  -0.326612  0  3.309449  0  0  -0.343415  0  3.322224  0  0  -0.318192  -0.315422  0  3.300746  0
