# generated using pymatgen
data_Ni4H12C24O13
_symmetry_space_group_name_H-M   'P 1'
_cell_length_a   18.25525379
_cell_length_b   18.25520817
_cell_length_c   18.25537344
_cell_angle_alpha   59.99908463
_cell_angle_beta   59.99915818
_cell_angle_gamma   59.99884401
_symmetry_Int_Tables_number   1
_chemical_formula_structural   Ni4H12C24O13
_chemical_formula_sum   'Ni8 H24 C48 O26'
_cell_volume   4301.70700463
_cell_formula_units_Z   2
loop_
 _symmetry_equiv_pos_site_id
 _symmetry_equiv_pos_as_xyz
  1  'x, y, z'
loop_
 _atom_site_type_symbol
 _atom_site_label
 _atom_site_symmetry_multiplicity
 _atom_site_fract_x
 _atom_site_fract_y
 _atom_site_fract_z
 _atom_site_occupancy
 _atom_site_pbe_bader_charge
 _atom_site_pbe_bader_spin_density
 _atom_site_pbe_cm5_charge
 _atom_site_pbe_ddec_charge
 _atom_site_pbe_ddec_spin_density
 _atom_site_pbe_ddec_sum_bond_order
 _atom_site_pbe_magmom
Ni  Ni0  1  0.79234923  0.79234453  0.79231763  1  1.154937  1.593651  0.632493  0.906813  1.780025  2.599023  1.565
Ni  Ni1  1  0.62302855  0.79233677  0.79231295  1  1.135401  1.593083  0.631748  0.905353  1.779214  2.597314  1.565
Ni  Ni2  1  0.79234976  0.62300283  0.79231742  1  1.135787  1.593175  0.632022  0.906051  1.779413  2.597723  1.565
Ni  Ni3  1  0.79234261  0.79233789  0.62299697  1  1.136094  1.593421  0.632542  0.907002  1.779739  2.598306  1.565
Ni  Ni4  1  0.37698780  0.20765734  0.20766079  1  1.135652  1.593358  0.632241  0.906575  1.779608  2.598166  1.565
Ni  Ni5  1  0.20765719  0.20765278  0.20765748  1  1.154878  1.59376  0.63291  0.907631  1.780224  2.600139  1.565
Ni  Ni6  1  0.20766145  0.37698175  0.20766227  1  1.135775  1.593062  0.631982  0.906048  1.779238  2.597436  1.565
Ni  Ni7  1  0.20766077  0.20765638  0.37698555  1  1.13566  1.593124  0.631945  0.905956  1.779321  2.597838  1.565
H  H8  1  0.66623543  0.95146366  0.95146491  1  0.091243  0.000498  0.110892  0.117622  0.000275  0.987857  0.0
H  H9  1  0.43084438  0.95146291  0.95146330  1  0.087158  0.000501  0.110906  0.117608  0.000274  0.987934  0.0
H  H10  1  0.95145649  0.43084728  0.66624161  1  0.090663  0.000495  0.110904  0.117634  0.000274  0.98776  0.0
H  H11  1  0.95145544  0.66624315  0.43084918  1  0.092094  0.000494  0.110899  0.117641  0.000275  0.987918  0.0
H  H12  1  0.95146033  0.95146299  0.66623823  1  0.091146  0.000498  0.110908  0.11768  0.000275  0.987829  0.0
H  H13  1  0.95145780  0.95146042  0.43084731  1  0.087986  0.000501  0.110897  0.117643  0.000274  0.987868  0.0
H  H14  1  0.43084607  0.66623984  0.95145954  1  0.092572  0.000493  0.110929  0.11768  0.000275  0.987835  0.0
H  H15  1  0.66623801  0.43084561  0.95146085  1  0.092606  0.000493  0.110921  0.117685  0.000274  0.987844  0.0
H  H16  1  0.95146130  0.66623594  0.95146371  1  0.091223  0.000499  0.110859  0.117575  0.000275  0.987877  0.0
H  H17  1  0.95146134  0.43084450  0.95146475  1  0.087151  0.0005  0.11087  0.117547  0.000274  0.988002  0.0
H  H18  1  0.66624255  0.95145756  0.43084737  1  0.092461  0.000493  0.1109  0.117613  0.000275  0.98787  0.0
H  H19  1  0.43084524  0.95145935  0.66624079  1  0.092556  0.000492  0.110909  0.117616  0.000274  0.98775  0.0
H  H20  1  0.56915118  0.04854984  0.04855016  1  0.08826  0.0005  0.11088  0.117656  0.000274  0.987778  0.0
H  H21  1  0.33375324  0.04854987  0.04854929  1  0.090997  0.000499  0.110895  0.117686  0.000275  0.98786  0.0
H  H22  1  0.04854212  0.56915756  0.33375993  1  0.090729  0.000495  0.110893  0.117641  0.000274  0.987844  0.0
H  H23  1  0.04854368  0.33375891  0.56915597  1  0.089948  0.000495  0.11092  0.11768  0.000274  0.987765  0.0
H  H24  1  0.56915519  0.04854621  0.33375822  1  0.089818  0.000495  0.110933  0.117695  0.000275  0.98788  0.0
H  H25  1  0.33375751  0.04854655  0.56915548  1  0.089847  0.000495  0.110909  0.117622  0.000274  0.98781  0.0
H  H26  1  0.04854831  0.33375360  0.04855086  1  0.091007  0.000498  0.110882  0.11767  0.000275  0.987894  0.0
H  H27  1  0.04854715  0.56915379  0.04854890  1  0.087817  0.0005  0.110879  0.117654  0.000274  0.987808  0.0
H  H28  1  0.56915396  0.33375547  0.04854743  1  0.089754  0.000495  0.110893  0.11767  0.000275  0.987887  0.0
H  H29  1  0.33375513  0.56915595  0.04854675  1  0.089732  0.000495  0.110906  0.117685  0.000274  0.987898  0.0
H  H30  1  0.04854563  0.04854814  0.56915375  1  0.087816  0.0005  0.110881  0.117662  0.000274  0.987734  0.0
H  H31  1  0.04854463  0.04854820  0.33375733  1  0.091099  0.000499  0.110923  0.117676  0.000275  0.987879  0.0
C  C32  1  0.59341282  0.97308893  0.97308917  1  -0.066135  0.00012  -0.078785  -0.091313  -0.000436  3.966324  0.0
C  C33  1  0.46041359  0.97308809  0.97308843  1  0.058502  0.000128  -0.078752  -0.09114  -0.000438  3.966084  0.0
C  C34  1  0.97307660  0.46042483  0.59341928  1  0.044229  0.000124  -0.078865  -0.091198  -0.00044  3.966524  0.0
C  C35  1  0.97307597  0.59342433  0.46042033  1  0.042786  0.000125  -0.078842  -0.091267  -0.000441  3.96678  0.0
C  C36  1  0.97308084  0.97308469  0.59341654  1  -0.067161  0.000116  -0.078717  -0.090952  -0.000441  3.966188  0.0
C  C37  1  0.97307980  0.97308364  0.46041958  1  0.057079  0.000122  -0.078816  -0.091019  -0.000443  3.966573  0.0
C  C38  1  0.46041349  0.59341827  0.97308389  1  -0.065805  0.000139  -0.078729  -0.091139  -0.000435  3.966371  0.0
C  C39  1  0.59341675  0.46041531  0.97308341  1  -0.065832  0.000138  -0.078689  -0.091114  -0.000435  3.966431  0.0
C  C40  1  0.97308671  0.59341323  0.97308916  1  -0.066414  0.000118  -0.078748  -0.091152  -0.000439  3.96624  0.0
C  C41  1  0.97308593  0.46041558  0.97308861  1  0.058207  0.000125  -0.078769  -0.09108  -0.000441  3.966292  0.0
C  C42  1  0.59342241  0.97307982  0.46041755  1  0.042388  0.000129  -0.07872  -0.091089  -0.000437  3.966601  0.0
C  C43  1  0.46042212  0.97307903  0.59341888  1  0.042238  0.00013  -0.078712  -0.091029  -0.000437  3.966165  0.0
C  C44  1  0.53956772  0.02693232  0.02693027  1  0.056829  0.000123  -0.078737  -0.091399  -0.000442  3.966327  0.0
C  C45  1  0.40657231  0.02692982  0.02692872  1  -0.067843  0.000116  -0.078792  -0.0916  -0.000441  3.966473  0.0
C  C46  1  0.02691682  0.53958360  0.40658051  1  -0.107207  0.000171  -0.078674  -0.090983  -0.000436  3.966337  0.0
C  C47  1  0.02691761  0.40658096  0.53958177  1  -0.10708  0.000173  -0.078707  -0.091075  -0.000434  3.96615  0.0
C  C48  1  0.53958416  0.02692033  0.40657712  1  -0.06307  0.000134  -0.07874  -0.091177  -0.000437  3.966423  0.0
C  C49  1  0.40658051  0.02692056  0.53958013  1  -0.063556  0.000137  -0.078792  -0.091176  -0.000436  3.966364  0.0
C  C50  1  0.02692825  0.40657182  0.02693059  1  -0.067478  0.000117  -0.078775  -0.091562  -0.00044  3.966472  0.0
C  C51  1  0.02692937  0.53956761  0.02693132  1  0.0573  0.000123  -0.078719  -0.091431  -0.000441  3.966404  0.0
C  C52  1  0.53957692  0.40657509  0.02692393  1  0.001979  0.000161  -0.078849  -0.091487  -0.000437  3.966666  0.0
C  C53  1  0.40657530  0.53957639  0.02692441  1  0.002606  0.000161  -0.078849  -0.091508  -0.000437  3.966764  0.0
C  C54  1  0.02692235  0.02692804  0.53957293  1  0.057336  0.000125  -0.078831  -0.091408  -0.00044  3.966298  0.0
C  C55  1  0.02692056  0.02692623  0.40657614  1  -0.067489  0.000117  -0.078907  -0.091482  -0.00044  3.966604  0.0
C  C56  1  0.61192319  0.88807520  0.88807452  1  1.476385  -0.008123  0.224255  0.586297  -0.00971  4.157081  -0.007
C  C57  1  0.55415835  0.94584420  0.94584501  1  -0.014935  0.012522  -0.01051  -0.023321  0.007611  3.961368  0.011
C  C58  1  0.88806821  0.61194033  0.61192202  1  1.486331  -0.008168  0.224133  0.586529  -0.009711  4.156885  -0.007
C  C59  1  0.94583409  0.55416799  0.55415987  1  -0.009074  0.012507  -0.010054  -0.023322  0.007612  3.962238  0.011
C  C60  1  0.88806631  0.88806865  0.61192407  1  1.478079  -0.008139  0.224053  0.586443  -0.00973  4.157066  -0.007
C  C61  1  0.94583300  0.94583781  0.55416256  1  -0.01565  0.012528  -0.01012  -0.023651  0.007612  3.962151  0.011
C  C62  1  0.61192231  0.61192549  0.88807652  1  1.48582  -0.008148  0.224207  0.586558  -0.009689  4.157092  -0.007
C  C63  1  0.55415498  0.55415459  0.94584443  1  -0.009823  0.012507  -0.010584  -0.023455  0.007611  3.961771  0.011
C  C64  1  0.88806996  0.61192679  0.88807246  1  1.476382  -0.008132  0.224236  0.586407  -0.009721  4.157222  -0.007
C  C65  1  0.94583991  0.55416072  0.94584308  1  -0.01458  0.012524  -0.010441  -0.023431  0.007613  3.961602  0.011
C  C66  1  0.61193552  0.88807544  0.61191594  1  1.484985  -0.008152  0.224289  0.58653  -0.009697  4.156839  -0.007
C  C67  1  0.55416542  0.94583917  0.55415451  1  -0.010012  0.012506  -0.010421  -0.023425  0.00761  3.962046  0.011
C  C68  1  0.38805347  0.11193727  0.11193598  1  1.476152  -0.008134  0.22418  0.586478  -0.009727  4.1573  -0.007
C  C69  1  0.44582047  0.05417700  0.05417474  1  -0.012396  0.012523  -0.010129  -0.022459  0.007613  3.961665  0.011
C  C70  1  0.11192765  0.38807381  0.38806761  1  1.485079  -0.008154  0.224192  0.586356  -0.009695  4.157441  -0.007
C  C71  1  0.05415961  0.44584180  0.44583694  1  0.076523  0.012433  -0.010366  -0.023461  0.007607  3.961806  0.011
C  C72  1  0.38807475  0.11192682  0.38807117  1  1.485033  -0.008157  0.224132  0.586209  -0.0097  4.157353  -0.007
C  C73  1  0.44584195  0.05416238  0.44583553  1  -0.009044  0.012505  -0.010262  -0.023337  0.007611  3.961866  0.011
C  C74  1  0.11193776  0.38805101  0.11194099  1  1.475895  -0.008129  0.224227  0.586722  -0.009725  4.157031  -0.007
C  C75  1  0.05417495  0.44582093  0.05417682  1  -0.01238  0.012518  -0.010161  -0.022537  0.007611  3.961485  0.011
C  C76  1  0.38806412  0.38806607  0.11193506  1  1.487466  -0.00816  0.224261  0.586417  -0.009697  4.157595  -0.007
C  C77  1  0.44583190  0.44583085  0.05416811  1  0.075563  0.012442  -0.010025  -0.022712  0.007612  3.961748  0.011
C  C78  1  0.11192979  0.11193149  0.38805584  1  1.475892  -0.008136  0.224297  0.586743  -0.009729  4.156555  -0.007
C  C79  1  0.05416512  0.05417093  0.44582551  1  -0.012383  0.012515  -0.010011  -0.022824  0.007608  3.961688  0.011
O  O80  1  0.75007142  0.75001721  0.74999294  1  -0.979946  0.453992  -0.551337  -0.992189  0.264097  2.968461  0.431
O  O81  1  0.24998810  0.24994009  0.24996974  1  -0.97959  0.45403  -0.551264  -0.992433  0.264105  2.968378  0.431
O  O82  1  0.69688659  0.86550825  0.86550778  1  -1.115325  0.094955  -0.303884  -0.527396  0.052722  2.37818  0.084
O  O83  1  0.57210291  0.86551259  0.86550812  1  -1.114756  0.094793  -0.303809  -0.527159  0.052619  2.378607  0.084
O  O84  1  0.86551052  0.57210934  0.69686586  1  -1.117003  0.094914  -0.303776  -0.527385  0.052652  2.378974  0.084
O  O85  1  0.86549807  0.69690524  0.57209839  1  -1.117687  0.095003  -0.304072  -0.527739  0.052698  2.378473  0.084
O  O86  1  0.86550698  0.86550921  0.69687623  1  -1.115302  0.094946  -0.303832  -0.52738  0.052722  2.378921  0.084
O  O87  1  0.86549653  0.86549546  0.57211042  1  -1.114494  0.094903  -0.304049  -0.527691  0.052687  2.378974  0.084
O  O88  1  0.57209052  0.69688324  0.86551225  1  -1.116931  0.094883  -0.303768  -0.527359  0.052634  2.378326  0.084
O  O89  1  0.69687509  0.57209881  0.86551262  1  -1.116417  0.094903  -0.303726  -0.527388  0.052644  2.378503  0.084
O  O90  1  0.86550429  0.69689178  0.86550500  1  -1.115414  0.094959  -0.303931  -0.527497  0.052726  2.37834  0.084
O  O91  1  0.86550490  0.57211142  0.86550827  1  -1.114963  0.094812  -0.303858  -0.527336  0.052631  2.379006  0.084
O  O92  1  0.69689821  0.86550339  0.57209429  1  -1.116603  0.094985  -0.304063  -0.527732  0.052689  2.378387  0.084
O  O93  1  0.57209986  0.86551937  0.69686485  1  -1.115803  0.094883  -0.303711  -0.527238  0.052634  2.378421  0.084
O  O94  1  0.42788668  0.13449419  0.13449178  1  -1.114482  0.094886  -0.303801  -0.527485  0.052674  2.378912  0.084
O  O95  1  0.30309233  0.13450758  0.13450649  1  -1.115906  0.095  -0.304062  -0.527857  0.052751  2.379301  0.084
O  O96  1  0.13449196  0.42789608  0.30311514  1  -1.116295  0.094881  -0.303944  -0.52747  0.052632  2.378595  0.084
O  O97  1  0.13449076  0.30311831  0.42789623  1  -1.116155  0.094893  -0.303879  -0.527421  0.052638  2.378659  0.084
O  O98  1  0.42790247  0.13449577  0.30310859  1  -1.117228  0.09498  -0.303929  -0.527481  0.052686  2.378289  0.084
O  O99  1  0.30312481  0.13448971  0.42789461  1  -1.116008  0.094877  -0.303776  -0.527217  0.05263  2.378638  0.084
O  O100  1  0.13450873  0.30308474  0.13451046  1  -1.11612  0.095003  -0.304088  -0.527973  0.052754  2.378966  0.084
O  O101  1  0.13449261  0.42787699  0.13449874  1  -1.114178  0.094809  -0.303764  -0.527489  0.052633  2.379354  0.084
O  O102  1  0.42789649  0.30310343  0.13450096  1  -1.117388  0.094992  -0.303986  -0.527609  0.052691  2.378448  0.084
O  O103  1  0.30311793  0.42788400  0.13449978  1  -1.117442  0.094872  -0.303988  -0.527552  0.052624  2.379022  0.084
O  O104  1  0.13448608  0.13448790  0.42788567  1  -1.114162  0.094828  -0.303889  -0.527568  0.052642  2.378995  0.084
O  O105  1  0.13450200  0.13450381  0.30308999  1  -1.11599  0.094992  -0.304142  -0.527895  0.052747  2.378653  0.084
