# generated using pymatgen
data_KH4C2N7O
_symmetry_space_group_name_H-M   'P 1'
_cell_length_a   8.00170823
_cell_length_b   8.00229305
_cell_length_c   11.86466341
_cell_angle_alpha   93.50965812
_cell_angle_beta   108.93668130
_cell_angle_gamma   115.34132938
_symmetry_Int_Tables_number   1
_chemical_formula_structural   KH4C2N7O
_chemical_formula_sum   'K4 H16 C8 N28 O4'
_cell_volume   631.40722496
_cell_formula_units_Z   4
loop_
 _symmetry_equiv_pos_site_id
 _symmetry_equiv_pos_as_xyz
  1  'x, y, z'
loop_
 _atom_site_type_symbol
 _atom_site_label
 _atom_site_symmetry_multiplicity
 _atom_site_fract_x
 _atom_site_fract_y
 _atom_site_fract_z
 _atom_site_occupancy
 _atom_site_hle17_bader_spin_density
 _atom_site_hle17_ddec_charge
 _atom_site_hle17_ddec_spin_density
 _atom_site_hle17_ddec_sum_bond_order
 _atom_site_hle17_magmom
 _atom_site_hse06_10hf_bader_spin_density
 _atom_site_hse06_10hf_ddec_charge
 _atom_site_hse06_10hf_ddec_spin_density
 _atom_site_hse06_10hf_ddec_sum_bond_order
 _atom_site_hse06_10hf_magmom
 _atom_site_hse06_bader_spin_density
 _atom_site_hse06_ddec_charge
 _atom_site_hse06_ddec_spin_density
 _atom_site_hse06_ddec_sum_bond_order
 _atom_site_hse06_magmom
 _atom_site_pbe_bader_spin_density
 _atom_site_pbe_cm5_charge
 _atom_site_pbe_ddec_charge
 _atom_site_pbe_ddec_spin_density
 _atom_site_pbe_ddec_sum_bond_order
 _atom_site_pbe_magmom
K  K0  1  0.73725209  0.99863215  0.96552913  1  0  0.88014  0  0.585319  0  0  0.795377  0  0.830501  0  0  0.812136  0  0.806974  0  0  0.954674  0.782981  0  0.84728  0
K  K1  1  0.53260597  0.77119948  0.53433921  1  0  0.879904  0  0.585299  0  0  0.795134  0  0.830827  0  0  0.811875  0  0.807271  0  0  0.954938  0.782741  0  0.847612  0
K  K2  1  0.26274998  0.00136809  0.03447124  1  0  0.880147  0  0.585312  0  0  0.795396  0  0.830471  0  0  0.812161  0  0.806938  0  0  0.95468  0.783003  0  0.847246  0
K  K3  1  0.46739681  0.22880217  0.46565801  1  0  0.879917  0  0.585266  0  0  0.795128  0  0.830836  0  0  0.81187  0  0.807282  0  0  0.954946  0.782736  0  0.84762  0
H  H4  1  0.93448945  0.37908235  0.56108624  1  0  0.274023  0  0.932685  0  0  0.25478  0  1.016753  0  0  0.261063  0  1.010022  0  0  0.299377  0.250228  0  1.021688  0
H  H5  1  0.31800953  0.37339380  0.93894857  1  0  0.274758  0  0.931252  0  0  0.255643  0  1.015222  0  0  0.261882  0  1.008536  0  0  0.299502  0.251123  0  1.020122  0
H  H6  1  0.06550998  0.62091787  0.43891356  1  0  0.274008  0  0.932688  0  0  0.254764  0  1.016766  0  0  0.261052  0  1.010023  0  0  0.299372  0.250212  0  1.0217  0
H  H7  1  0.68199052  0.62660501  0.06105130  1  0  0.27474  0  0.931268  0  0  0.255627  0  1.015236  0  0  0.261866  0  1.00855  0  0  0.299493  0.251108  0  1.020136  0
H  H8  1  0.88553603  0.56130920  0.56475996  1  0  0.286005  0  0.925533  0  0  0.270634  0  0.999094  0  0  0.276973  0  0.992201  0  0  0.306616  0.266074  0  1.004058  0
H  H9  1  0.49642736  0.32050435  0.93528053  1  0  0.287225  0  0.925026  0  0  0.271844  0  0.998697  0  0  0.278207  0  0.991754  0  0  0.30691  0.267261  0  1.003709  0
H  H10  1  0.11446269  0.43868960  0.43524047  1  0  0.286008  0  0.925506  0  0  0.270641  0  0.999066  0  0  0.276978  0  0.992176  0  0  0.306623  0.26608  0  1.004031  0
H  H11  1  0.50357269  0.67949446  0.06471934  1  0  0.28719  0  0.925057  0  0  0.271792  0  0.998726  0  0  0.278155  0  0.991784  0  0  0.306892  0.267209  0  1.003737  0
H  H12  1  0.74243973  0.26141497  0.75578446  1  0  0.327036  0  0.94192  0  0  0.300659  0  1.023965  0  0  0.309805  0  1.015332  0  0  0.295624  0.294166  0  1.030009  0
H  H13  1  0.00561571  0.98657621  0.74425535  1  0  0.326999  0  0.943342  0  0  0.300455  0  1.02525  0  0  0.309576  0  1.016691  0  0  0.295538  0.293957  0  1.031296  0
H  H14  1  0.25756102  0.73858525  0.24421647  1  0  0.327023  0  0.941934  0  0  0.300644  0  1.023987  0  0  0.30979  0  1.015354  0  0  0.295616  0.29415  0  1.030031  0
H  H15  1  0.99438301  0.01342260  0.25574423  1  0  0.327013  0  0.943312  0  0  0.300467  0  1.025228  0  0  0.309588  0  1.016668  0  0  0.29554  0.293969  0  1.031273  0
H  H16  1  0.83867474  0.35857581  0.91332135  1  0  0.307411  0  0.954458  0  0  0.281659  0  1.037826  0  0  0.289994  0  1.030853  0  0  0.287594  0.275788  0  1.04269  0
H  H17  1  0.94517261  0.92539851  0.58667853  1  0  0.307636  0  0.954295  0  0  0.281555  0  1.037988  0  0  0.289876  0  1.031037  0  0  0.287581  0.275678  0  1.042856  0
H  H18  1  0.16132601  0.64142442  0.08667873  1  0  0.307404  0  0.954467  0  0  0.281648  0  1.037841  0  0  0.289984  0  1.030868  0  0  0.287587  0.275777  0  1.042706  0
H  H19  1  0.05482682  0.07460172  0.41332127  1  0  0.307644  0  0.954299  0  0  0.281569  0  1.037976  0  0  0.289892  0  1.031023  0  0  0.28759  0.275693  0  1.042843  0
C  C20  1  0.22607566  0.71030420  0.76391938  1  0  0.381203  0  3.868541  0  0  0.334468  0  4.167617  0  0  0.353942  0  4.178926  0  0  0.308933  0.321716  0  4.159681  0
C  C21  1  0.44642984  0.46207719  0.73614687  1  0  0.381788  0  3.867075  0  0  0.33514  0  4.165987  0  0  0.35465  0  4.177216  0  0  0.309591  0.322356  0  4.158114  0
C  C22  1  0.77392509  0.28969603  0.23608155  1  0  0.381282  0  3.868424  0  0  0.334556  0  4.16749  0  0  0.35403  0  4.178798  0  0  0.308986  0.321804  0  4.159556  0
C  C23  1  0.55357020  0.53792162  0.26385300  1  0  0.381789  0  3.866975  0  0  0.335136  0  4.165899  0  0  0.354646  0  4.177126  0  0  0.309588  0.322352  0  4.158027  0
C  C24  1  0.02568134  0.49158925  0.83169710  1  0  0.538068  0  3.80816  0  0  0.482882  0  4.092804  0  0  0.506485  0  4.102184  0  0  0.336761  0.466982  0  4.086122  0
C  C25  1  0.15989764  0.19392645  0.66834751  1  0  0.535758  0  3.806588  0  0  0.480107  0  4.092064  0  0  0.503728  0  4.101438  0  0  0.336243  0.464226  0  4.085335  0
C  C26  1  0.97431941  0.50841098  0.16830383  1  0  0.538051  0  3.808119  0  0  0.482873  0  4.092747  0  0  0.506485  0  4.102115  0  0  0.336742  0.46697  0  4.086069  0
C  C27  1  0.84010178  0.80607378  0.33165229  1  0  0.535784  0  3.806565  0  0  0.480131  0  4.092045  0  0  0.503753  0  4.101419  0  0  0.336248  0.464251  0  4.085317  0
N  N28  1  0.19185669  0.61259412  0.92821813  1  0  -0.421935  0  2.987862  0  0  -0.375979  0  3.265106  0  0  -0.392306  0  3.277507  0  0  -0.305498  -0.364749  0  3.256628  0
N  N29  1  0.18438250  0.26364115  0.57184469  1  0  -0.420778  0  2.987275  0  0  -0.374537  0  3.264363  0  0  -0.390849  0  3.276771  0  0  -0.305326  -0.363333  0  3.255866  0
N  N30  1  0.80814407  0.38740611  0.07178280  1  0  -0.421915  0  2.987853  0  0  -0.375965  0  3.265103  0  0  -0.392293  0  3.2775  0  0  -0.305487  -0.364733  0  3.256625  0
N  N31  1  0.81561693  0.73635908  0.42815511  1  0  -0.420785  0  2.987283  0  0  -0.37454  0  3.264371  0  0  -0.390853  0  3.276777  0  0  -0.305329  -0.363335  0  3.255873  0
N  N32  1  0.31630383  0.75242856  0.88456054  1  0  -0.441649  0  3.09665  0  0  -0.41798  0  3.401161  0  0  -0.43206  0  3.416657  0  0  -0.40848  -0.408471  0  3.390548  0
N  N33  1  0.36786546  0.43176123  0.61551980  1  0  -0.442092  0  3.098126  0  0  -0.418218  0  3.402152  0  0  -0.432322  0  3.417704  0  0  -0.408807  -0.408694  0  3.391505  0
N  N34  1  0.68369692  0.24757167  0.11543955  1  0  -0.441677  0  3.096586  0  0  -0.418013  0  3.401104  0  0  -0.432092  0  3.416601  0  0  -0.408499  -0.408502  0  3.390489  0
N  N35  1  0.63213529  0.56823900  0.38448029  1  0  -0.442091  0  3.098122  0  0  -0.418212  0  3.402144  0  0  -0.432315  0  3.417696  0  0  -0.408818  -0.408688  0  3.391497  0
N  N36  1  0.28379086  0.80080416  0.67726878  1  0  -0.367462  0  3.021751  0  0  -0.347398  0  3.332848  0  0  -0.361245  0  3.338349  0  0  -0.258229  -0.338281  0  3.329133  0
N  N37  1  0.62361751  0.60641034  0.82276990  1  0  -0.36703  0  3.021076  0  0  -0.346641  0  3.332437  0  0  -0.360414  0  3.337893  0  0  -0.257562  -0.337589  0  3.328779  0
N  N38  1  0.71620990  0.19919607  0.32273215  1  0  -0.367465  0  3.021842  0  0  -0.347404  0  3.332931  0  0  -0.361251  0  3.338433  0  0  -0.258229  -0.338287  0  3.329217  0
N  N39  1  0.37638121  0.39358847  0.17722968  1  0  -0.367006  0  3.021005  0  0  -0.346616  0  3.332361  0  0  -0.360389  0  3.337819  0  0  -0.257549  -0.337563  0  3.328702  0
N  N40  1  0.43834358  0.96856869  0.72724614  1  0  0.094867  0  3.180831  0  0  0.107389  0  3.492455  0  0  0.124765  0  3.496076  0  0  -0.148359  0.096268  0  3.48964  0
N  N41  1  0.74123525  0.71103814  0.77271350  1  0  0.095605  0  3.181361  0  0  0.10634  0  3.496425  0  0  0.123733  0  3.500063  0  0  -0.149381  0.095195  0  3.493596  0
N  N42  1  0.56165788  0.03143296  0.27275417  1  0  0.094867  0  3.180972  0  0  0.107395  0  3.492586  0  0  0.124773  0  3.496204  0  0  -0.148365  0.096274  0  3.489771  0
N  N43  1  0.25876550  0.28896209  0.22728743  1  0  0.095581  0  3.181336  0  0  0.106317  0  3.496402  0  0  0.123711  0  3.50004  0  0  -0.1494  0.095172  0  3.493574  0
N  N44  1  0.04371016  0.54521142  0.72656451  1  0  -0.085256  0  3.477069  0  0  -0.001532  0  3.70084  0  0  -0.017761  0  3.720774  0  0  -0.150646  0.009063  0  3.687277  0
N  N45  1  0.31866281  0.31707883  0.77349196  1  0  -0.08391  0  3.473619  0  0  -0.000195  0  3.697707  0  0  -0.016455  0  3.717652  0  0  -0.150921  0.010443  0  3.684056  0
N  N46  1  0.95628927  0.45478880  0.27343614  1  0  -0.08531  0  3.477096  0  0  -0.001588  0  3.700859  0  0  -0.017819  0  3.720792  0  0  -0.150652  0.009013  0  3.687289  0
N  N47  1  0.68133723  0.68291998  0.22650792  1  0  -0.083939  0  3.473582  0  0  -0.000225  0  3.697674  0  0  -0.016486  0  3.717619  0  0  -0.150932  0.010412  0  3.684025  0
N  N48  1  0.89470522  0.45711145  0.60888843  1  0  -0.514869  0  2.967362  0  0  -0.513622  0  3.216298  0  0  -0.519957  0  3.211966  0  0  -0.553299  -0.50888  0  3.219559  0
N  N49  1  0.34814553  0.28571796  0.89116077  1  0  -0.517747  0  2.965357  0  0  -0.516774  0  3.214128  0  0  -0.523081  0  3.209764  0  0  -0.553622  -0.512058  0  3.217401  0
N  N50  1  0.10529553  0.54288878  0.39111250  1  0  -0.514845  0  2.967384  0  0  -0.513585  0  3.216279  0  0  -0.51992  0  3.211946  0  0  -0.553292  -0.508845  0  3.21954  0
N  N51  1  0.65185522  0.71428227  0.10883932  1  0  -0.517679  0  2.965352  0  0  -0.516678  0  3.214165  0  0  -0.522986  0  3.209803  0  0  -0.553584  -0.511962  0  3.217438  0
N  N52  1  0.86725251  0.33959171  0.83593409  1  0  -0.707853  0  3.099716  0  0  -0.672324  0  3.349618  0  0  -0.693308  0  3.343345  0  0  -0.609632  -0.657405  0  3.353532  0
N  N53  1  0.00368532  0.03127985  0.66411531  1  0  -0.707115  0  3.098966  0  0  -0.670866  0  3.349564  0  0  -0.691837  0  3.343304  0  0  -0.609046  -0.655953  0  3.353522  0
N  N54  1  0.13274824  0.66040852  0.16406599  1  0  -0.707821  0  3.099695  0  0  -0.672296  0  3.349596  0  0  -0.693284  0  3.343321  0  0  -0.609625  -0.657376  0  3.353512  0
N  N55  1  0.99631543  0.96872038  0.33588478  1  0  -0.707155  0  3.098928  0  0  -0.670906  0  3.349518  0  0  -0.691877  0  3.343258  0  0  -0.609064  -0.655993  0  3.353477  0
O  O56  1  0.49998751  0.05591728  0.64922248  1  0  -0.550046  0  1.968365  0  0  -0.498953  0  2.231404  0  0  -0.518478  0  2.224719  0  0  -0.35531  -0.485375  0  2.235513  0
O  O57  1  0.90672207  0.85061216  0.85069573  1  0  -0.550684  0  1.972031  0  0  -0.499056  0  2.235308  0  0  -0.518635  0  2.22887  0  0  -0.355753  -0.485473  0  2.239354  0
O  O58  1  0.50001191  0.94408294  0.35077732  1  0  -0.550078  0  1.968427  0  0  -0.498991  0  2.231472  0  0  -0.518516  0  2.224783  0  0  -0.355332  -0.485413  0  2.235582  0
O  O59  1  0.09327797  0.14938665  0.14930414  1  0  -0.550684  0  1.972027  0  0  -0.499052  0  2.235296  0  0  -0.518635  0  2.228862  0  0  -0.355757  -0.485471  0  2.239347  0
