# generated using pymatgen
data_CuH6C7IN2
_symmetry_space_group_name_H-M   'P 1'
_cell_length_a   4.22403484
_cell_length_b   11.88218542
_cell_length_c   15.76062471
_cell_angle_alpha   89.99980001
_cell_angle_beta   98.41937213
_cell_angle_gamma   89.99944528
_symmetry_Int_Tables_number   1
_chemical_formula_structural   CuH6C7IN2
_chemical_formula_sum   'Cu4 H24 C28 I4 N8'
_cell_volume   782.51270835
_cell_formula_units_Z   4
loop_
 _symmetry_equiv_pos_site_id
 _symmetry_equiv_pos_as_xyz
  1  'x, y, z'
loop_
 _atom_site_type_symbol
 _atom_site_label
 _atom_site_symmetry_multiplicity
 _atom_site_fract_x
 _atom_site_fract_y
 _atom_site_fract_z
 _atom_site_occupancy
 _atom_site_hle17_bader_spin_density
 _atom_site_hle17_ddec_charge
 _atom_site_hle17_ddec_spin_density
 _atom_site_hle17_ddec_sum_bond_order
 _atom_site_hle17_magmom
 _atom_site_hse06_10hf_bader_spin_density
 _atom_site_hse06_10hf_ddec_charge
 _atom_site_hse06_10hf_ddec_spin_density
 _atom_site_hse06_10hf_ddec_sum_bond_order
 _atom_site_hse06_10hf_magmom
 _atom_site_hse06_bader_spin_density
 _atom_site_hse06_ddec_charge
 _atom_site_hse06_ddec_spin_density
 _atom_site_hse06_ddec_sum_bond_order
 _atom_site_hse06_magmom
 _atom_site_pbe_bader_spin_density
 _atom_site_pbe_cm5_charge
 _atom_site_pbe_ddec_charge
 _atom_site_pbe_ddec_spin_density
 _atom_site_pbe_ddec_sum_bond_order
 _atom_site_pbe_magmom
Cu  Cu0  1  0.72141535  0.45151976  0.45779890  1  0  0.259028  0  2.145746  0  0  0.182622  0  2.629049  0  0  0.197376  0  2.570527  0  0  0.238829  0.173722  0  2.669264  0
Cu  Cu1  1  0.27854170  0.95152133  0.04219781  1  0  0.259103  0  2.145645  0  0  0.18262  0  2.629096  0  0  0.197344  0  2.57058  0  0  0.238869  0.173713  0  2.669307  0
Cu  Cu2  1  0.27857525  0.54848904  0.54220576  1  0  0.259055  0  2.145699  0  0  0.182674  0  2.62899  0  0  0.197411  0  2.570473  0  0  0.238836  0.173777  0  2.66921  0
Cu  Cu3  1  0.72147491  0.04848579  0.95779640  1  0  0.259092  0  2.14562  0  0  0.18268  0  2.629009  0  0  0.197435  0  2.570488  0  0  0.238847  0.17377  0  2.669212  0
H  H4  1  0.31770038  0.27357625  0.33198642  1  0  0.082274  0  0.969938  0  0  0.090466  0  1.038193  0  0  0.092253  0  1.036361  0  0  0.122973  0.089123  0  1.039438  0
H  H5  1  0.68227111  0.77358250  0.16800558  1  0  0.082281  0  0.969911  0  0  0.090472  0  1.038172  0  0  0.092256  0  1.036352  0  0  0.122957  0.089138  0  1.0394  0
H  H6  1  0.68229269  0.72642666  0.66802087  1  0  0.082267  0  0.969999  0  0  0.090466  0  1.038233  0  0  0.09225  0  1.036411  0  0  0.12299  0.089127  0  1.039473  0
H  H7  1  0.31772382  0.22642210  0.83198275  1  0  0.082306  0  0.970004  0  0  0.0905  0  1.038236  0  0  0.092284  0  1.036413  0  0  0.122996  0.089158  0  1.039486  0
H  H8  1  0.32139354  0.26890830  0.16931923  1  0  0.289205  0  0.920233  0  0  0.273145  0  0.984726  0  0  0.280513  0  0.979422  0  0  0.295745  0.267917  0  0.988549  0
H  H9  1  0.67860201  0.76890957  0.33067368  1  0  0.289282  0  0.920085  0  0  0.273168  0  0.98461  0  0  0.280531  0  0.979307  0  0  0.295762  0.26794  0  0.988435  0
H  H10  1  0.67860666  0.73109124  0.83068706  1  0  0.289177  0  0.920339  0  0  0.273128  0  0.98479  0  0  0.28048  0  0.979489  0  0  0.295741  0.267899  0  0.988612  0
H  H11  1  0.32139294  0.23108661  0.66931528  1  0  0.28924  0  0.920221  0  0  0.273153  0  0.984713  0  0  0.28052  0  0.97941  0  0  0.295783  0.267925  0  0.988533  0
H  H12  1  0.60441474  0.40540992  0.04790561  1  0  0.104754  0  0.969534  0  0  0.114669  0  1.033576  0  0  0.117409  0  1.032676  0  0  0.093718  0.112609  0  1.034464  0
H  H13  1  0.39558669  0.90540487  0.45209288  1  0  0.104774  0  0.969528  0  0  0.114698  0  1.033557  0  0  0.117439  0  1.032656  0  0  0.09373  0.11264  0  1.034442  0
H  H14  1  0.39559265  0.59458542  0.95210094  1  0  0.104716  0  0.969581  0  0  0.1147  0  1.033543  0  0  0.117449  0  1.032632  0  0  0.093751  0.112611  0  1.034462  0
H  H15  1  0.60441078  0.09458710  0.54790062  1  0  0.104675  0  0.969613  0  0  0.114626  0  1.033622  0  0  0.117379  0  1.032705  0  0  0.093696  0.112536  0  1.034541  0
H  H16  1  0.96659730  0.57261757  0.04771213  1  0  0.083161  0  0.97677  0  0  0.09473  0  1.040198  0  0  0.096959  0  1.03989  0  0  0.090129  0.093149  0  1.040439  0
H  H17  1  0.03340413  0.07261512  0.45229356  1  0  0.083155  0  0.976705  0  0  0.094723  0  1.040129  0  0  0.096952  0  1.039823  0  0  0.090162  0.093141  0  1.04037  0
H  H18  1  0.03340050  0.42737861  0.95229343  1  0  0.083118  0  0.976849  0  0  0.094729  0  1.040223  0  0  0.096958  0  1.039914  0  0  0.090142  0.093147  0  1.040467  0
H  H19  1  0.96660542  0.92737854  0.54770483  1  0  0.083147  0  0.976801  0  0  0.094751  0  1.040184  0  0  0.09698  0  1.039877  0  0  0.09017  0.093169  0  1.040428  0
H  H20  1  0.20385572  0.66266096  0.18212888  1  0  0.079408  0  0.986917  0  0  0.090989  0  1.049682  0  0  0.092942  0  1.049881  0  0  0.090667  0.089506  0  1.049733  0
H  H21  1  0.79614084  0.16266738  0.31787893  1  0  0.079442  0  0.986793  0  0  0.091047  0  1.049535  0  0  0.093002  0  1.049729  0  0  0.090706  0.089563  0  1.049582  0
H  H22  1  0.79613962  0.33733774  0.81787405  1  0  0.07937  0  0.986849  0  0  0.090976  0  1.049597  0  0  0.092931  0  1.049792  0  0  0.09065  0.089491  0  1.049643  0
H  H23  1  0.20386158  0.83733048  0.68212109  1  0  0.079521  0  0.986706  0  0  0.091147  0  1.049433  0  0  0.093104  0  1.049622  0  0  0.090731  0.08966  0  1.04948  0
H  H24  1  0.08134883  0.59506216  0.32451601  1  0  0.098232  0  0.972343  0  0  0.102901  0  1.048268  0  0  0.106885  0  1.044493  0  0  0.088372  0.099789  0  1.051387  0
H  H25  1  0.91863760  0.09507388  0.17548906  1  0  0.09823  0  0.972381  0  0  0.10291  0  1.048289  0  0  0.106896  0  1.044513  0  0  0.088347  0.0998  0  1.051407  0
H  H26  1  0.91865132  0.40494159  0.67548837  1  0  0.098224  0  0.972554  0  0  0.102928  0  1.048413  0  0  0.106898  0  1.044655  0  0  0.088374  0.099817  0  1.05153  0
H  H27  1  0.08136241  0.90492819  0.82451024  1  0  0.098226  0  0.9724  0  0  0.102919  0  1.048303  0  0  0.106902  0  1.044534  0  0  0.088369  0.09981  0  1.051419  0
C  C28  1  0.45300195  0.33039729  0.29700355  1  0  0.24782  0  3.668283  0  0  0.190158  0  3.938469  0  0  0.207245  0  3.94866  0  0  0.150132  0.178994  0  3.931287  0
C  C29  1  0.54697520  0.83040385  0.20299169  1  0  0.247801  0  3.668498  0  0  0.190041  0  3.938637  0  0  0.207117  0  3.948823  0  0  0.150153  0.17888  0  3.93146  0
C  C30  1  0.54699590  0.66960394  0.70300392  1  0  0.24778  0  3.66846  0  0  0.190126  0  3.938614  0  0  0.207185  0  3.948792  0  0  0.150094  0.17896  0  3.931439  0
C  C31  1  0.45301980  0.16959906  0.79699918  1  0  0.247757  0  3.668574  0  0  0.190074  0  3.938721  0  0  0.207157  0  3.948915  0  0  0.150108  0.178905  0  3.931542  0
C  C32  1  0.70468488  0.44733454  0.10725671  1  0  -0.162575  0  3.769262  0  0  -0.181191  0  4.022487  0  0  -0.184188  0  4.042267  0  0  -0.104837  -0.17916  0  4.009262  0
C  C33  1  0.29531540  0.94733351  0.39274290  1  0  -0.162639  0  3.769289  0  0  -0.181296  0  4.022519  0  0  -0.184292  0  4.042298  0  0  -0.104811  -0.179265  0  4.009289  0
C  C34  1  0.29531770  0.55266248  0.89274904  1  0  -0.162637  0  3.769345  0  0  -0.181343  0  4.022542  0  0  -0.184346  0  4.042322  0  0  -0.104928  -0.179285  0  4.00933  0
C  C35  1  0.70468685  0.05266014  0.60725077  1  0  -0.162526  0  3.769391  0  0  -0.181194  0  4.022586  0  0  -0.184198  0  4.042362  0  0  -0.104829  -0.179135  0  4.009372  0
C  C36  1  0.90671740  0.53994593  0.10795074  1  0  -0.07675  0  3.797548  0  0  -0.093164  0  4.052817  0  0  -0.095052  0  4.075079  0  0  -0.103498  -0.09182  0  4.037656  0
C  C37  1  0.09328011  0.03994608  0.39205298  1  0  -0.076575  0  3.797309  0  0  -0.092971  0  4.052575  0  0  -0.09486  0  4.07484  0  0  -0.103479  -0.091628  0  4.03741  0
C  C38  1  0.09327804  0.46005193  0.89205600  1  0  -0.076541  0  3.797366  0  0  -0.092971  0  4.052626  0  0  -0.09486  0  4.07489  0  0  -0.103413  -0.091627  0  4.037454  0
C  C39  1  0.90672700  0.96004926  0.60794341  1  0  -0.076543  0  3.797483  0  0  -0.092968  0  4.052742  0  0  -0.094858  0  4.075013  0  0  -0.103381  -0.091624  0  4.03757  0
C  C40  1  0.03977129  0.59266992  0.18513036  1  0  -0.082764  0  3.796289  0  0  -0.097115  0  4.047242  0  0  -0.099919  0  4.070585  0  0  -0.105728  -0.095177  0  4.031414  0
C  C41  1  0.96022241  0.09267492  0.31487562  1  0  -0.082923  0  3.79619  0  0  -0.097312  0  4.047181  0  0  -0.100118  0  4.070529  0  0  -0.105844  -0.095366  0  4.031345  0
C  C42  1  0.96022890  0.40732879  0.81487529  1  0  -0.082852  0  3.796098  0  0  -0.097239  0  4.047092  0  0  -0.100045  0  4.070433  0  0  -0.105815  -0.095292  0  4.031255  0
C  C43  1  0.03977996  0.90732294  0.68512250  1  0  -0.083064  0  3.796207  0  0  -0.097463  0  4.047223  0  0  -0.100271  0  4.070568  0  0  -0.10596  -0.095515  0  4.031386  0
C  C44  1  0.97194459  0.55646176  0.26451670  1  0  -0.130961  0  3.729114  0  0  -0.148358  0  3.977371  0  0  -0.150531  0  3.99725  0  0  -0.098584  -0.146816  0  3.964105  0
C  C45  1  0.02804290  0.05647131  0.23548725  1  0  -0.131055  0  3.729098  0  0  -0.148501  0  3.97735  0  0  -0.150679  0  3.997226  0  0  -0.098628  -0.146962  0  3.964087  0
C  C46  1  0.02805083  0.44353863  0.73548941  1  0  -0.13102  0  3.729325  0  0  -0.148431  0  3.97758  0  0  -0.150594  0  3.99747  0  0  -0.098567  -0.146888  0  3.964313  0
C  C47  1  0.97196423  0.94353160  0.76450978  1  0  -0.131008  0  3.729222  0  0  -0.148511  0  3.977469  0  0  -0.150686  0  3.997353  0  0  -0.09861  -0.14697  0  3.964203  0
C  C48  1  0.76196330  0.46530971  0.26478879  1  0  0.131596  0  3.797562  0  0  0.133534  0  4.034416  0  0  0.135232  0  4.059362  0  0  0.080457  0.132365  0  4.017594  0
C  C49  1  0.23801734  0.96531638  0.23521068  1  0  0.131745  0  3.797692  0  0  0.133771  0  4.034347  0  0  0.135474  0  4.059288  0  0  0.080613  0.1326  0  4.017531  0
C  C50  1  0.23803687  0.53469152  0.73521623  1  0  0.131817  0  3.797558  0  0  0.133729  0  4.034418  0  0  0.135428  0  4.05936  0  0  0.080562  0.132559  0  4.017602  0
C  C51  1  0.76198014  0.03468401  0.76478345  1  0  0.13175  0  3.797674  0  0  0.133921  0  4.034217  0  0  0.135623  0  4.059157  0  0  0.080632  0.132749  0  4.017399  0
C  C52  1  0.63501685  0.41141263  0.18686466  1  0  0.151339  0  3.798133  0  0  0.145185  0  4.036743  0  0  0.149281  0  4.059623  0  0  0.090543  0.142405  0  4.021351  0
C  C53  1  0.36497719  0.91141679  0.31313227  1  0  0.151385  0  3.798298  0  0  0.145194  0  4.036792  0  0  0.149283  0  4.059669  0  0  0.090494  0.142414  0  4.021401  0
C  C54  1  0.36498573  0.58858355  0.81314108  1  0  0.151237  0  3.798109  0  0  0.14514  0  4.036656  0  0  0.14921  0  4.05953  0  0  0.090513  0.14236  0  4.021258  0
C  C55  1  0.63502262  0.08858023  0.68685941  1  0  0.151379  0  3.798152  0  0  0.145147  0  4.036683  0  0  0.149244  0  4.059563  0  0  0.090578  0.142368  0  4.021282  0
I  I56  1  0.74759633  0.66708354  0.48220020  1  0  -0.362819  0  1.734317  0  0  -0.315691  0  2.195871  0  0  -0.327141  0  2.148424  0  0  -0.163671  -0.307812  0  2.230007  0
I  I57  1  0.25242615  0.16708409  0.01779842  1  0  -0.362827  0  1.734286  0  0  -0.315688  0  2.195889  0  0  -0.327132  0  2.148428  0  0  -0.163682  -0.307797  0  2.230009  0
I  I58  1  0.25239664  0.33292358  0.51780392  1  0  -0.362845  0  1.734305  0  0  -0.315713  0  2.195831  0  0  -0.327171  0  2.14839  0  0  -0.163685  -0.307835  0  2.229958  0
I  I59  1  0.74758332  0.83292051  0.98219679  1  0  -0.362841  0  1.734218  0  0  -0.315698  0  2.195793  0  0  -0.327144  0  2.148358  0  0  -0.163689  -0.307811  0  2.229911  0
N  N60  1  0.64271170  0.41221599  0.33235226  1  0  -0.373948  0  3.305542  0  0  -0.308464  0  3.605692  0  0  -0.326666  0  3.614986  0  0  -0.382361  -0.296555  0  3.599165  0
N  N61  1  0.35726082  0.91222256  0.16764514  1  0  -0.373995  0  3.305837  0  0  -0.30848  0  3.605906  0  0  -0.326676  0  3.615193  0  0  -0.382463  -0.296574  0  3.599385  0
N  N62  1  0.35728611  0.58778608  0.66765394  1  0  -0.373991  0  3.305626  0  0  -0.30858  0  3.605922  0  0  -0.326783  0  3.615216  0  0  -0.382466  -0.296674  0  3.599405  0
N  N63  1  0.64273902  0.08778119  0.83234781  1  0  -0.374105  0  3.305724  0  0  -0.308751  0  3.605938  0  0  -0.326956  0  3.615232  0  0  -0.382536  -0.29684  0  3.599411  0
N  N64  1  0.44255816  0.32618365  0.21041073  1  0  -0.336995  0  3.428852  0  0  -0.274419  0  3.655502  0  0  -0.292593  0  3.669437  0  0  -0.382873  -0.262248  0  3.64598  0
N  N65  1  0.55742629  0.82618555  0.28958479  1  0  -0.337176  0  3.42876  0  0  -0.274417  0  3.655244  0  0  -0.292568  0  3.669162  0  0  -0.382875  -0.262248  0  3.645723  0
N  N66  1  0.55744446  0.67381590  0.78959628  1  0  -0.336904  0  3.429012  0  0  -0.274321  0  3.655607  0  0  -0.292418  0  3.669475  0  0  -0.382797  -0.262151  0  3.646089  0
N  N67  1  0.44256632  0.17381232  0.71040599  1  0  -0.336992  0  3.428739  0  0  -0.274305  0  3.655294  0  0  -0.292472  0  3.669226  0  0  -0.382909  -0.262134  0  3.645773  0
