# generated using pymatgen
data_CuP2H18C18(NO3)2
_symmetry_space_group_name_H-M   'P 1'
_cell_length_a   7.59387833
_cell_length_b   8.31992151
_cell_length_c   8.61807752
_cell_angle_alpha   94.84411035
_cell_angle_beta   110.10498266
_cell_angle_gamma   92.58645827
_symmetry_Int_Tables_number   1
_chemical_formula_structural   CuP2H18C18(NO3)2
_chemical_formula_sum   'Cu1 P2 H18 C18 N2 O6'
_cell_volume   507.88633818
_cell_formula_units_Z   1
loop_
 _symmetry_equiv_pos_site_id
 _symmetry_equiv_pos_as_xyz
  1  'x, y, z'
loop_
 _atom_site_type_symbol
 _atom_site_label
 _atom_site_symmetry_multiplicity
 _atom_site_fract_x
 _atom_site_fract_y
 _atom_site_fract_z
 _atom_site_occupancy
 _atom_site_hle17_ddec_charge
 _atom_site_hle17_ddec_spin_density
 _atom_site_hle17_ddec_sum_bond_order
 _atom_site_hle17_magmom
 _atom_site_hse06_10hf_ddec_charge
 _atom_site_hse06_10hf_ddec_spin_density
 _atom_site_hse06_10hf_ddec_sum_bond_order
 _atom_site_hse06_10hf_magmom
 _atom_site_hse06_ddec_charge
 _atom_site_hse06_ddec_spin_density
 _atom_site_hse06_ddec_sum_bond_order
 _atom_site_hse06_magmom
 _atom_site_pbe_cm5_charge
 _atom_site_pbe_ddec_charge
 _atom_site_pbe_ddec_spin_density
 _atom_site_pbe_ddec_sum_bond_order
 _atom_site_pbe_magmom
Cu  Cu0  1  0.49999722  0.99999991  0.00000013  1  0.883789  0.67712  1.745909  0.496  0.863042  0.761287  2.120398  0.606  0.947211  0.824619  2.054143  0.686  0.78609  0.811606  0.717119  2.166973  0.554
P  P1  1  0.46111726  0.13978342  0.31591733  1  1.428231  -0.000792  4.839485  -0.003  1.276318  0.002889  5.348303  0.0  1.3283  0.001504  5.310446  0.0  0.339462  1.240185  0.004056  5.373838  0.0
P  P2  1  0.53888775  0.86021443  0.68408120  1  1.428309  -0.000798  4.839638  -0.003  1.276375  0.002885  5.348479  0.0  1.328364  0.001503  5.310618  0.0  0.339496  1.240237  0.004056  5.37401  0.0
H  H3  1  0.31054446  0.00666422  0.45080152  1  0.441263  -3.1e-05  0.863895  0.0  0.40968  2.7e-05  0.927001  0.0  0.421865  1.3e-05  0.909673  0.0  0.297936  0.401181  4.6e-05  0.939019  0.0
H  H4  1  0.68946074  0.99333616  0.54919151  1  0.441209  -3.1e-05  0.863963  0.0  0.40963  2.7e-05  0.927065  0.0  0.421817  1.3e-05  0.909735  0.0  0.297916  0.40113  4.6e-05  0.939084  0.0
H  H5  1  0.53783813  0.68481888  0.13939392  1  0.09209  0.001008  0.914117  0.002  0.103774  0.00086  0.970084  0.001  0.104981  0.000597  0.968991  0.001  0.126872  0.102602  0.001067  0.971229  0.002
H  H6  1  0.46215312  0.31518114  0.86061116  1  0.092074  0.001017  0.914095  0.002  0.103757  0.00086  0.97008  0.001  0.104956  0.000598  0.968985  0.001  0.126861  0.102585  0.001067  0.971214  0.002
H  H7  1  0.32306179  0.44945795  0.12883164  1  0.115918  0.000751  0.984535  0.001  0.124827  0.000697  1.047008  0.001  0.127742  0.000509  1.047034  0.0  0.109634  0.122703  0.000857  1.047193  0.001
H  H8  1  0.67693638  0.55054085  0.87117771  1  0.115998  0.000764  0.984434  0.001  0.124891  0.000697  1.046945  0.001  0.127809  0.000509  1.046962  0.0  0.109651  0.122765  0.000857  1.04713  0.001
H  H9  1  0.85970336  0.73733908  0.89670196  1  0.120177  0.000903  0.99859  0.001  0.12982  0.000853  1.058856  0.001  0.133562  0.000627  1.057426  0.0  0.111153  0.127154  0.001043  1.059924  0.001
H  H10  1  0.14029202  0.26265959  0.10331234  1  0.120164  0.000896  0.998644  0.001  0.129786  0.000852  1.058918  0.001  0.133528  0.000626  1.057487  0.0  0.111146  0.127123  0.001043  1.059985  0.001
H  H11  1  0.09373094  0.95552440  0.90835939  1  0.093898  0.000962  0.921217  0.002  0.101948  0.0008  0.98356  0.001  0.103583  0.000546  0.981716  0.001  0.127347  0.10048  0.001  0.985205  0.002
H  H12  1  0.90626424  0.04447346  0.09163389  1  0.093889  0.000958  0.921196  0.002  0.101996  0.0008  0.983489  0.001  0.103634  0.000546  0.981639  0.001  0.127336  0.100525  0.001  0.985143  0.002
H  H13  1  0.23506470  0.30480789  0.47892644  1  0.098992  3e-06  0.95624  0.0  0.11124  4.8e-05  1.015145  0.0  0.114232  3e-05  1.013841  0.0  0.103636  0.109096  6.6e-05  1.016137  0.0
H  H14  1  0.76493620  0.69519120  0.52106866  1  0.098959  3e-06  0.956194  0.0  0.111173  4.8e-05  1.015153  0.0  0.114165  3e-05  1.013849  0.0  0.103603  0.10903  6.6e-05  1.016146  0.0
H  H15  1  0.88617131  0.51182025  0.37309282  1  0.107031  -2.8e-05  0.956063  0.0  0.129255  -1e-05  1.014798  0.0  0.130548  -1.3e-05  1.014849  0.0  0.089169  0.128333  -1e-05  1.014744  0.0
H  H16  1  0.11382558  0.48818129  0.62689901  1  0.107019  -3.4e-05  0.956  0.0  0.129248  -1e-05  1.014741  0.0  0.130541  -1.3e-05  1.014793  0.0  0.089155  0.128324  -1e-05  1.014686  0.0
H  H17  1  0.71830719  0.36738813  0.22676666  1  0.100909  -0.00017  1.008159  0.0  0.119453  -9.8e-05  1.074222  0.0  0.119745  -9.9e-05  1.076933  0.0  0.086065  0.119244  -9e-05  1.072328  0.0
H  H18  1  0.28169369  0.63261105  0.77322381  1  0.100826  -0.00017  1.00825  0.0  0.119404  -9.8e-05  1.074282  0.0  0.119699  -9.9e-05  1.076989  0.0  0.086037  0.119197  -9e-05  1.07238  0.0
H  H19  1  0.86239737  0.30684035  0.41601114  1  0.125933  0.000215  0.934478  0.0  0.147689  8.5e-05  0.990602  0.0  0.149239  5e-05  0.98982  0.0  0.095935  0.14653  0.000128  0.991197  0.0
H  H20  1  0.13759587  0.69316711  0.58398599  1  0.125874  0.000215  0.934448  0.0  0.147651  8.5e-05  0.990557  0.0  0.149199  5e-05  0.989777  0.0  0.095932  0.146494  0.000128  0.991157  0.0
C  C21  1  0.38609434  0.69025685  0.08598427  1  0.141219  -0.010183  3.678734  -0.007  0.11015  -0.002313  3.938704  -0.001  0.119803  -0.003927  3.956183  -0.002  0.055571  0.103914  -0.001068  3.927338  0.0
C  C22  1  0.61390257  0.30974461  0.91401220  1  0.141222  -0.010207  3.678674  -0.007  0.110161  -0.002311  3.938656  -0.001  0.119829  -0.003928  3.956119  -0.002  0.055592  0.10393  -0.001068  3.927281  0.0
C  C23  1  0.26360765  0.55891997  0.07962308  1  -0.143417  0.008358  3.665121  0.009  -0.160931  0.003654  3.906343  0.004  -0.16863  0.003245  3.927102  0.004  -0.072016  -0.155987  0.003905  3.892568  0.005
C  C24  1  0.73639555  0.44108860  0.92038410  1  -0.143467  0.008329  3.665233  0.009  -0.161014  0.003651  3.906425  0.004  -0.168711  0.003245  3.927181  0.004  -0.07202  -0.156069  0.003905  3.892645  0.005
C  C25  1  0.06836314  0.56921428  0.00759868  1  0.098659  -0.009803  3.728118  -0.006  0.112819  -0.003807  3.950273  -0.002  0.117246  -0.004398  3.970713  -0.002  0.020106  0.109871  -0.003279  3.936554  -0.002
C  C26  1  0.93163523  0.43078695  0.99240981  1  0.098646  -0.009796  3.728283  -0.006  0.112933  -0.003806  3.950288  -0.002  0.117356  -0.004393  3.970732  -0.002  0.020139  0.109984  -0.003278  3.936565  -0.002
C  C27  1  0.00792833  0.71671899  0.94921089  1  -0.137324  0.008603  3.653548  0.009  -0.153992  0.003884  3.890416  0.005  -0.161665  0.003388  3.910162  0.004  -0.071651  -0.149046  0.004211  3.877286  0.005
C  C28  1  0.99207155  0.28328343  0.05079933  1  -0.137287  0.008618  3.653502  0.009  -0.153925  0.003885  3.8903  0.005  -0.1616  0.003388  3.910055  0.004  -0.071637  -0.148981  0.004211  3.87717  0.005
C  C29  1  0.13875837  0.84214479  0.95792832  1  0.149635  -0.011131  3.66524  -0.007  0.117197  -0.002862  3.926263  -0.002  0.126699  -0.004532  3.943853  -0.003  0.060972  0.111048  -0.001574  3.914922  -0.001
C  C30  1  0.86123450  0.15785759  0.04208097  1  0.149618  -0.011121  3.664998  -0.007  0.117123  -0.002861  3.926032  -0.002  0.126622  -0.004533  3.943624  -0.003  0.060958  0.110972  -0.001574  3.914699  -0.001
C  C31  1  0.48757866  0.34219466  0.42209071  1  -0.285905  0.01114  3.736169  0.011  -0.253794  0.004937  3.980889  0.005  -0.263079  0.003094  4.001921  0.003  -0.02908  -0.247236  0.006857  3.966432  0.007
C  C32  1  0.51243029  0.65779938  0.57791906  1  -0.285907  0.011134  3.736489  0.011  -0.253758  0.00494  3.981126  0.005  -0.263036  0.003094  4.002143  0.003  -0.029026  -0.247199  0.006858  3.966667  0.007
C  C33  1  0.63955310  0.45254476  0.43322230  1  0.165982  0.003157  3.731928  0.003  0.18227  0.001438  3.972196  0.001  0.183956  0.000824  3.99659  0.001  -0.004808  0.181175  0.002167  3.955473  0.002
C  C34  1  0.36044913  0.54745300  0.56678003  1  0.165828  0.003163  3.732173  0.003  0.182123  0.001438  3.972444  0.001  0.18381  0.000825  3.99684  0.001  -0.004843  0.181027  0.002167  3.955723  0.002
C  C35  1  0.35160945  0.39142420  0.48845724  1  -0.109695  0.000336  3.743925  0.0  -0.141775  0.00126  3.99685  0.001  -0.144191  0.000775  4.019733  0.001  -0.08944  -0.140072  0.001675  3.981216  0.001
C  C36  1  0.64839798  0.60856867  0.51154964  1  -0.109703  0.000348  3.74395  0.0  -0.141757  0.001259  3.996876  0.001  -0.144173  0.000775  4.019763  0.001  -0.089411  -0.140056  0.001675  3.981243  0.001
C  C37  1  0.78567757  0.40828296  0.35940711  1  -0.355094  -0.000365  3.733221  0.0  -0.435361  -0.000116  3.969165  0.0  -0.43808  -0.000138  3.979548  0.0  -0.247772  -0.433185  -7.2e-05  3.961843  0.0
C  C38  1  0.21432095  0.59172096  0.64058776  1  -0.354887  -0.000355  3.733185  0.0  -0.435207  -0.000116  3.969099  0.0  -0.437928  -0.000139  3.979482  0.0  -0.247728  -0.433033  -7.2e-05  3.961779  0.0
N  N39  1  0.32494361  0.82871033  0.02362870  1  -0.30009  0.076154  3.371706  0.098  -0.250937  0.053345  3.669316  0.073  -0.280348  0.044433  3.689357  0.065  -0.350133  -0.233402  0.058274  3.657643  0.076
N  N40  1  0.67504890  0.17128864  0.97636853  1  -0.300121  0.07615  3.371643  0.098  -0.251008  0.053343  3.669305  0.073  -0.280417  0.044434  3.689341  0.065  -0.350172  -0.233471  0.058274  3.657632  0.076
O  O41  1  0.28190118  0.05219787  0.33520837  1  -0.750857  -0.000134  1.989626  0.0  -0.679451  9e-05  2.203741  0.0  -0.701139  -7.8e-05  2.17975  0.0  -0.390642  -0.663929  0.000329  2.219822  0.001
O  O42  1  0.71810530  0.94780137  0.66478145  1  -0.750788  -0.000133  1.989598  0.0  -0.679375  9e-05  2.203716  0.0  -0.70107  -7.8e-05  2.179724  0.0  -0.390576  -0.663856  0.000329  2.219795  0.001
O  O43  1  0.63806484  0.05176077  0.38444352  1  -0.829967  -0.000161  1.898368  0.001  -0.764414  -0.000745  2.132063  0.0  -0.790755  -0.00126  2.111257  0.0  -0.377334  -0.745815  -0.000139  2.145928  0.001
O  O44  1  0.36194131  0.94823486  0.61554468  1  -0.830079  -0.000155  1.898457  0.001  -0.764541  -0.000744  2.132188  0.0  -0.79088  -0.001259  2.111377  0.0  -0.377404  -0.745944  -0.000139  2.14605  0.001
O  O45  1  0.41034737  0.16394571  0.12966780  1  -0.809391  0.082657  2.007341  0.112  -0.767247  0.054446  2.311182  0.08  -0.807169  0.042499  2.293587  0.067  -0.384031  -0.74059  0.061992  2.323562  0.086
O  O46  1  0.58964814  0.83605574  0.87032825  1  -0.809385  0.082639  2.00736  0.112  -0.767244  0.054441  2.311234  0.08  -0.80717  0.042495  2.293642  0.067  -0.384047  -0.740572  0.061988  2.323578  0.086
