# generated using pymatgen
data_TlH18C16N4O
_symmetry_space_group_name_H-M   'P 1'
_cell_length_a   7.61846052
_cell_length_b   9.76658692
_cell_length_c   11.36885619
_cell_angle_alpha   108.44442514
_cell_angle_beta   97.57742885
_cell_angle_gamma   92.38759905
_symmetry_Int_Tables_number   1
_chemical_formula_structural   TlH18C16N4O
_chemical_formula_sum   'Tl2 H36 C32 N8 O2'
_cell_volume   792.32071267
_cell_formula_units_Z   2
loop_
 _symmetry_equiv_pos_site_id
 _symmetry_equiv_pos_as_xyz
  1  'x, y, z'
loop_
 _atom_site_type_symbol
 _atom_site_label
 _atom_site_symmetry_multiplicity
 _atom_site_fract_x
 _atom_site_fract_y
 _atom_site_fract_z
 _atom_site_occupancy
 _atom_site_hle17_bader_spin_density
 _atom_site_hle17_ddec_charge
 _atom_site_hle17_ddec_spin_density
 _atom_site_hle17_ddec_sum_bond_order
 _atom_site_hle17_magmom
 _atom_site_hse06_10hf_bader_spin_density
 _atom_site_hse06_10hf_ddec_charge
 _atom_site_hse06_10hf_ddec_spin_density
 _atom_site_hse06_10hf_ddec_sum_bond_order
 _atom_site_hse06_10hf_magmom
 _atom_site_hse06_bader_spin_density
 _atom_site_hse06_ddec_charge
 _atom_site_hse06_ddec_spin_density
 _atom_site_hse06_ddec_sum_bond_order
 _atom_site_hse06_magmom
 _atom_site_pbe_bader_spin_density
 _atom_site_pbe_cm5_charge
 _atom_site_pbe_ddec_charge
 _atom_site_pbe_ddec_spin_density
 _atom_site_pbe_ddec_sum_bond_order
 _atom_site_pbe_magmom
Tl  Tl0  1  0.24424358  0.08314992  0.40505839  1  0  0.950377  0  2.166482  0  0  0.773464  0  2.638537  0  0  0.819679  0  2.614693  0  0  0.536536  0.741362  0  2.655072  0
Tl  Tl1  1  0.75575701  0.91685225  0.59494140  1  0  0.95036  0  2.166522  0  0  0.77344  0  2.638583  0  0  0.819658  0  2.614734  0  0  0.536532  0.741338  0  2.655119  0
H  H2  1  0.00725265  0.24467363  0.29247332  1  0  0.318198  0  0.992419  0  0  0.284859  0  1.085378  0  0  0.295284  0  1.074199  0  0  0.278453  0.277512  0  1.093193  0
H  H3  1  0.99274782  0.75532746  0.70752615  1  0  0.31818  0  0.992441  0  0  0.284839  0  1.085404  0  0  0.295264  0  1.074225  0  0  0.278435  0.277493  0  1.093218  0
H  H4  1  0.34865386  0.76909123  0.29158804  1  0  0.087366  0  0.983566  0  0  0.092374  0  1.056637  0  0  0.094139  0  1.057162  0  0  0.096749  0.090971  0  1.056344  0
H  H5  1  0.65134505  0.23090768  0.70841158  1  0  0.087347  0  0.983583  0  0  0.092361  0  1.056644  0  0  0.094126  0  1.057168  0  0  0.096743  0.090957  0  1.05635  0
H  H6  1  0.27598251  0.56564851  0.09328917  1  0  0.07834  0  0.97094  0  0  0.090318  0  1.032122  0  0  0.092302  0  1.032293  0  0  0.095299  0.088454  0  1.032933  0
H  H7  1  0.72401375  0.43435040  0.90671197  1  0  0.078356  0  0.970947  0  0  0.090342  0  1.032119  0  0  0.092328  0  1.032292  0  0  0.0953  0.088477  0  1.032929  0
H  H8  1  0.05844269  0.58881968  0.91707681  1  0  0.086181  0  0.968992  0  0  0.096995  0  1.032511  0  0  0.099026  0  1.032761  0  0  0.099451  0.095828  0  1.031944  0
H  H9  1  0.94155357  0.41117922  0.08292520  1  0  0.086133  0  0.968979  0  0  0.097008  0  1.032428  0  0  0.099039  0  1.032676  0  0  0.09944  0.095839  0  1.031865  0
H  H10  1  0.91267160  0.81525867  0.94224880  1  0  0.088166  0  0.978791  0  0  0.096788  0  1.044126  0  0  0.100178  0  1.041866  0  0  0.096807  0.094312  0  1.045786  0
H  H11  1  0.08733008  0.18474133  0.05775048  1  0  0.088171  0  0.978779  0  0  0.096791  0  1.044115  0  0  0.100181  0  1.041856  0  0  0.096811  0.094312  0  1.04578  0
H  H12  1  0.98126254  0.02080780  0.14283202  1  0  0.080521  0  0.995639  0  0  0.088207  0  1.06646  0  0  0.090466  0  1.065696  0  0  0.097339  0.086647  0  1.066857  0
H  H13  1  0.01874047  0.97919221  0.85716650  1  0  0.080552  0  0.995616  0  0  0.08822  0  1.066455  0  0  0.090475  0  1.065695  0  0  0.097344  0.086659  0  1.066858  0
H  H14  1  0.13841036  0.15857612  0.67773413  1  0  0.081583  0  0.982524  0  0  0.087932  0  1.054112  0  0  0.089032  0  1.055515  0  0  0.097133  0.086959  0  1.053204  0
H  H15  1  0.86158470  0.84142390  0.32226193  1  0  0.081588  0  0.982539  0  0  0.087911  0  1.05415  0  0  0.089014  0  1.055552  0  0  0.097121  0.086945  0  1.053227  0
H  H16  1  0.21947241  0.35294816  0.88024096  1  0  0.081972  0  0.969602  0  0  0.093709  0  1.029059  0  0  0.095536  0  1.029752  0  0  0.096134  0.091847  0  1.029572  0
H  H17  1  0.78052374  0.64704968  0.11975724  1  0  0.081921  0  0.969516  0  0  0.093658  0  1.02899  0  0  0.095484  0  1.029684  0  0  0.096102  0.091796  0  1.029502  0
H  H18  1  0.42479938  0.56727039  0.89834392  1  0  0.078693  0  0.965715  0  0  0.09065  0  1.026992  0  0  0.093212  0  1.025957  0  0  0.097824  0.088921  0  1.027723  0
H  H19  1  0.57519809  0.43272743  0.10165790  1  0  0.0787  0  0.965755  0  0  0.090662  0  1.027025  0  0  0.093222  0  1.025992  0  0  0.097824  0.088933  0  1.027757  0
H  H20  1  0.55000313  0.58265872  0.71062251  1  0  0.089489  0  0.968247  0  0  0.103479  0  1.026414  0  0  0.105535  0  1.02619  0  0  0.101736  0.101881  0  1.026653  0
H  H21  1  0.44999722  0.41734126  0.28938017  1  0  0.089481  0  0.968292  0  0  0.103474  0  1.026453  0  0  0.10553  0  1.02623  0  0  0.101742  0.101878  0  1.026691  0
H  H22  1  0.47582126  0.38382127  0.50794805  1  0  0.084717  0  0.962509  0  0  0.09694  0  1.024534  0  0  0.098697  0  1.024613  0  0  0.100465  0.095646  0  1.024481  0
H  H23  1  0.52418307  0.61617873  0.49205410  1  0  0.084738  0  0.962482  0  0  0.096927  0  1.024545  0  0  0.098685  0  1.024622  0  0  0.100461  0.095633  0  1.024494  0
H  H24  1  0.62330076  0.22384183  0.14256818  1  0  0.090762  0  0.943511  0  0  0.106812  0  1.005489  0  0  0.107747  0  1.006099  0  0  0.099584  0.106079  0  1.005219  0
H  H25  1  0.37670115  0.77616034  0.85743260  1  0  0.090791  0  0.943526  0  0  0.106808  0  1.00554  0  0  0.107739  0  1.006146  0  0  0.099587  0.106075  0  1.005264  0
H  H26  1  0.41759113  0.17091059  0.18015595  1  0  0.090694  0  0.936227  0  0  0.106219  0  1.000183  0  0  0.107503  0  0.999489  0  0  0.10071  0.105245  0  1.000879  0
H  H27  1  0.58241078  0.82909158  0.81984395  1  0  0.090697  0  0.936264  0  0  0.106241  0  1.000195  0  0  0.107519  0  0.999508  0  0  0.100712  0.105266  0  1.00089  0
H  H28  1  0.53125919  0.08960261  0.91367847  1  0  0.067068  0  0.946545  0  0  0.085199  0  1.007487  0  0  0.08527  0  1.009927  0  0  0.087751  0.085154  0  1.005598  0
H  H29  1  0.46874248  0.91039739  0.08632170  1  0  0.067058  0  0.946519  0  0  0.085193  0  1.00746  0  0  0.085265  0  1.009897  0  0  0.087737  0.085149  0  1.005571  0
H  H30  1  0.32139260  0.03955811  0.94528942  1  0  0.064092  0  0.944252  0  0  0.084912  0  1.003173  0  0  0.08498  0  1.004715  0  0  0.089033  0.084756  0  1.002164  0
H  H31  1  0.67860931  0.96044407  0.05471049  1  0  0.064144  0  0.944234  0  0  0.084959  0  1.003146  0  0  0.085012  0  1.004707  0  0  0.089057  0.084803  0  1.002134  0
H  H32  1  0.95873484  0.46718694  0.34647643  1  0  0.068345  0  0.958873  0  0  0.084167  0  1.027807  0  0  0.08418  0  1.029211  0  0  0.08928  0.084018  0  1.027067  0
H  H33  1  0.04126286  0.53281305  0.65352426  1  0  0.068352  0  0.958816  0  0  0.084171  0  1.027751  0  0  0.084185  0  1.029153  0  0  0.089276  0.084022  0  1.027012  0
H  H34  1  0.15894904  0.51230966  0.29661644  1  0  0.06803  0  0.954098  0  0  0.084606  0  1.022142  0  0  0.084657  0  1.022935  0  0  0.086747  0.08458  0  1.021434  0
H  H35  1  0.84104878  0.48769142  0.70338368  1  0  0.068049  0  0.954073  0  0  0.084627  0  1.022112  0  0  0.084679  0  1.022903  0  0  0.086753  0.084609  0  1.021394  0
H  H36  1  0.16640562  0.48877394  0.44680849  1  0  0.061837  0  0.956892  0  0  0.076509  0  1.027961  0  0  0.077019  0  1.028403  0  0  0.082777  0.075995  0  1.027737  0
H  H37  1  0.83359352  0.51122714  0.55319175  1  0  0.061805  0  0.956921  0  0  0.076462  0  1.028006  0  0  0.07697  0  1.028451  0  0  0.082758  0.075948  0  1.027785  0
C  C38  1  0.17054212  0.90956096  0.23047306  1  0  -0.229289  0  3.687493  0  0  -0.178969  0  3.954152  0  0  -0.193147  0  3.987106  0  0  -0.103094  -0.169612  0  3.932052  0
C  C39  1  0.82945933  0.09043687  0.76952737  1  0  -0.229282  0  3.687499  0  0  -0.178965  0  3.954162  0  0  -0.193144  0  3.987114  0  0  -0.10309  -0.169605  0  3.932058  0
C  C40  1  0.25286447  0.78083838  0.21593360  1  0  -0.066468  0  3.810631  0  0  -0.085166  0  4.05375  0  0  -0.084627  0  4.078761  0  0  -0.092786  -0.085418  0  4.036702  0
C  C41  1  0.74713577  0.21916053  0.78406789  1  0  -0.06641  0  3.810552  0  0  -0.085107  0  4.053667  0  0  -0.084568  0  4.07868  0  0  -0.092771  -0.085357  0  4.036613  0
C  C42  1  0.21172400  0.66562699  0.10335086  1  0  -0.078334  0  3.772357  0  0  -0.088618  0  4.018119  0  0  -0.091442  0  4.039398  0  0  -0.093654  -0.08654  0  4.003719  0
C  C43  1  0.78827371  0.33437299  0.89665158  1  0  -0.078432  0  3.772438  0  0  -0.088728  0  4.018206  0  0  -0.091558  0  4.03949  0  0  -0.093682  -0.086649  0  4.003804  0
C  C44  1  0.08995659  0.67842435  0.00499107  1  0  -0.073514  0  3.770566  0  0  -0.086982  0  4.014823  0  0  -0.087734  0  4.035531  0  0  -0.093438  -0.086215  0  4.000287  0
C  C45  1  0.91004076  0.32157239  0.99500869  1  0  -0.07339  0  3.770661  0  0  -0.086898  0  4.014892  0  0  -0.087649  0  4.035603  0  0  -0.093386  -0.086131  0  4.000355  0
C  C46  1  0.00768243  0.80658627  0.01963251  1  0  -0.075528  0  3.754612  0  0  -0.082548  0  3.994546  0  0  -0.085237  0  4.014452  0  0  -0.096187  -0.080495  0  3.980812  0
C  C47  1  0.99231637  0.19341156  0.98036679  1  0  -0.075536  0  3.75468  0  0  -0.082558  0  3.994631  0  0  -0.085249  0  4.014538  0  0  -0.096184  -0.080501  0  3.980901  0
C  C48  1  0.04773527  0.92205292  0.13225685  1  0  -0.069986  0  3.815406  0  0  -0.089174  0  4.056252  0  0  -0.089398  0  4.082518  0  0  -0.097436  -0.088874  0  4.0381  0
C  C49  1  0.95226762  0.07794600  0.86774312  1  0  -0.070046  0  3.815412  0  0  -0.089222  0  4.056264  0  0  -0.089444  0  4.082538  0  0  -0.097472  -0.088924  0  4.038113  0
C  C50  1  0.30156974  0.25820599  0.57894530  1  0  -0.21928  0  3.695559  0  0  -0.175269  0  3.96881  0  0  -0.189192  0  4.001221  0  0  -0.101637  -0.165968  0  3.947107  0
C  C51  1  0.69842929  0.74179401  0.42105462  1  0  -0.219174  0  3.695466  0  0  -0.175154  0  3.96868  0  0  -0.189076  0  4.001093  0  0  -0.10157  -0.165853  0  3.946981  0
C  C52  1  0.22980730  0.25027701  0.68389790  1  0  -0.058074  0  3.801548  0  0  -0.077032  0  4.04282  0  0  -0.076936  0  4.069101  0  0  -0.091073  -0.076693  0  4.024657  0
C  C53  1  0.77018885  0.74972084  0.31609854  1  0  -0.058204  0  3.801652  0  0  -0.077144  0  4.042943  0  0  -0.077053  0  4.069223  0  0  -0.091114  -0.076807  0  4.024783  0
C  C54  1  0.27526061  0.36107522  0.79885615  1  0  -0.065158  0  3.748801  0  0  -0.072472  0  3.987608  0  0  -0.074797  0  4.008882  0  0  -0.090344  -0.070788  0  3.973317  0
C  C55  1  0.72473422  0.63892261  0.20114369  1  0  -0.065047  0  3.74882  0  0  -0.072363  0  3.987624  0  0  -0.074687  0  4.008898  0  0  -0.090295  -0.07068  0  3.973337  0
C  C56  1  0.38996071  0.48080123  0.80854728  1  0  -0.08211  0  3.790534  0  0  -0.095519  0  4.036574  0  0  -0.096817  0  4.057068  0  0  -0.095808  -0.094682  0  4.022697  0
C  C57  1  0.61003665  0.51919552  0.19145160  1  0  -0.082187  0  3.790524  0  0  -0.095597  0  4.036583  0  0  -0.096894  0  4.057077  0  0  -0.095864  -0.09476  0  4.022707  0
C  C58  1  0.46003732  0.48961457  0.70339088  1  0  -0.077785  0  3.762844  0  0  -0.088681  0  4.007185  0  0  -0.091131  0  4.028454  0  0  -0.093329  -0.086938  0  3.992736  0
C  C59  1  0.53996159  0.51038433  0.29661137  1  0  -0.077761  0  3.76292  0  0  -0.088665  0  4.007254  0  0  -0.091116  0  4.028525  0  0  -0.093331  -0.086922  0  3.992806  0
C  C60  1  0.41694612  0.37774450  0.58875734  1  0  -0.075882  0  3.829656  0  0  -0.094264  0  4.073591  0  0  -0.094025  0  4.098319  0  0  -0.096713  -0.094407  0  4.056961  0
C  C61  1  0.58305411  0.62225442  0.41124240  1  0  -0.075882  0  3.829808  0  0  -0.094236  0  4.073734  0  0  -0.093997  0  4.098463  0  0  -0.096685  -0.094379  0  4.057106  0
C  C62  1  0.64883641  0.13448790  0.28957333  1  0  0.331601  0  3.745716  0  0  0.311423  0  4.021558  0  0  0.322852  0  4.037522  0  0  0.222719  0.304234  0  4.009426  0
C  C63  1  0.35116406  0.86551319  0.71042615  1  0  0.331716  0  3.745637  0  0  0.311546  0  4.021475  0  0  0.32298  0  4.037428  0  0  0.222755  0.304357  0  4.009344  0
C  C64  1  0.55301449  0.13969061  0.16848029  1  0  -0.196463  0  3.712738  0  0  -0.241006  0  3.969116  0  0  -0.242942  0  3.979762  0  0  -0.149887  -0.239668  0  3.961791  0
C  C65  1  0.44698862  0.86031047  0.83152118  1  0  -0.196566  0  3.712713  0  0  -0.241113  0  3.969137  0  0  -0.243041  0  3.979779  0  0  -0.149902  -0.23977  0  3.961805  0
C  C66  1  0.54344466  0.99437744  0.06244156  1  0  -0.087993  0  3.664441  0  0  -0.125834  0  3.919947  0  0  -0.126808  0  3.934144  0  0  -0.16244  -0.12481  0  3.909838  0
C  C67  1  0.45655604  0.00562582  0.93755765  1  0  -0.087923  0  3.664417  0  0  -0.125766  0  3.919925  0  0  -0.126748  0  3.934117  0  0  -0.162467  -0.124745  0  3.909816  0
C  C68  1  0.10045583  0.44893504  0.34846358  1  0  -0.018946  0  3.67682  0  0  -0.10513  0  3.94044  0  0  -0.098917  0  3.94493  0  0  -0.157297  -0.109232  0  3.937395  0
C  C69  1  0.89954199  0.55106605  0.65153654  1  0  -0.018931  0  3.676747  0  0  -0.105098  0  3.940373  0  0  -0.098883  0  3.94486  0  0  -0.157278  -0.109208  0  3.937324  0
N  N70  1  0.57512102  0.09342047  0.37570035  1  0  -0.339265  0  3.070219  0  0  -0.288958  0  3.348373  0  0  -0.305157  0  3.36617  0  0  -0.214318  -0.277769  0  3.335335  0
N  N71  1  0.42487945  0.90658061  0.62430088  1  0  -0.339267  0  3.070334  0  0  -0.28896  0  3.348488  0  0  -0.305162  0  3.366285  0  0  -0.214296  -0.277772  0  3.335451  0
N  N72  1  0.82587662  0.16103524  0.32522093  1  0  -0.330267  0  3.066931  0  0  -0.281403  0  3.330466  0  0  -0.294764  0  3.344333  0  0  -0.210958  -0.272439  0  3.320611  0
N  N73  1  0.17412506  0.83896477  0.67477923  1  0  -0.330329  0  3.066983  0  0  -0.281459  0  3.330515  0  0  -0.294821  0  3.344379  0  0  -0.210989  -0.272495  0  3.320662  0
N  N74  1  0.71081229  0.09499739  0.46516727  1  0  -0.116952  0  3.134772  0  0  -0.079017  0  3.426754  0  0  -0.084383  0  3.443461  0  0  -0.092009  -0.074994  0  3.415045  0
N  N75  1  0.28919083  0.90500370  0.53483244  1  0  -0.117004  0  3.1348  0  0  -0.079071  0  3.42678  0  0  -0.084439  0  3.443487  0  0  -0.092022  -0.075047  0  3.41507  0
N  N76  1  0.86127005  0.13450024  0.43473304  1  0  -0.127447  0  3.032811  0  0  -0.10687  0  3.318412  0  0  -0.108405  0  3.332444  0  0  -0.093163  -0.105412  0  3.308661  0
N  N77  1  0.13873295  0.86549976  0.56526724  1  0  -0.127408  0  3.032768  0  0  -0.106831  0  3.318367  0  0  -0.108366  0  3.3324  0  0  -0.093157  -0.105371  0  3.308615  0
O  O78  1  0.12211847  0.29808876  0.29074179  1  0  -0.559331  0  2.114072  0  0  -0.492681  0  2.359284  0  0  -0.511449  0  2.349057  0  0  -0.426952  -0.479482  0  2.366136  0
O  O79  1  0.87788080  0.70191341  0.70925875  1  0  -0.559326  0  2.114086  0  0  -0.492675  0  2.359272  0  0  -0.511448  0  2.349057  0  0  -0.426943  -0.479476  0  2.366129  0
