# generated using pymatgen
data_SmH14C27N5O6
_symmetry_space_group_name_H-M   'P 1'
_cell_length_a   9.37352091
_cell_length_b   10.07540317
_cell_length_c   13.76822431
_cell_angle_alpha   92.67952105
_cell_angle_beta   92.88587118
_cell_angle_gamma   96.96594914
_symmetry_Int_Tables_number   1
_chemical_formula_structural   SmH14C27N5O6
_chemical_formula_sum   'Sm2 H28 C54 N10 O12'
_cell_volume   1287.23007350
_cell_formula_units_Z   2
loop_
 _symmetry_equiv_pos_site_id
 _symmetry_equiv_pos_as_xyz
  1  'x, y, z'
loop_
 _atom_site_type_symbol
 _atom_site_label
 _atom_site_symmetry_multiplicity
 _atom_site_fract_x
 _atom_site_fract_y
 _atom_site_fract_z
 _atom_site_occupancy
 _atom_site_pbe_bader_charge
 _atom_site_pbe_bader_spin_density
 _atom_site_pbe_cm5_charge
 _atom_site_pbe_ddec_charge
 _atom_site_pbe_ddec_spin_density
 _atom_site_pbe_ddec_sum_bond_order
 _atom_site_pbe_magmom
Sm  Sm0  1  0.88641827  0.44566320  0.11627471  1  2.182853  0  1.502908  1.938771  0  2.26916  0
Sm  Sm1  1  0.11358024  0.55433505  0.88372564  1  2.182862  0  1.502893  1.938772  0  2.269158  0
H  H2  1  0.64112281  0.67475984  0.09352797  1  0.116167  0  0.115283  0.079259  0  1.044707  0
H  H3  1  0.35887809  0.32524042  0.90647181  1  0.116177  0  0.115262  0.079245  0  1.044687  0
H  H4  1  0.52273490  0.85158656  0.17924128  1  0.08924  0  0.109575  0.115472  0  0.99806  0
H  H5  1  0.47726374  0.14841270  0.82075838  1  0.089266  0  0.109578  0.115497  0  0.998072  0
H  H6  1  0.60544711  0.92163277  0.35433255  1  0.1283  0  0.115737  0.125823  0  0.989708  0
H  H7  1  0.39455607  0.07836850  0.64566516  1  0.12824  0  0.115718  0.125754  0  0.989727  0
H  H8  1  0.19666072  0.66065839  0.54025966  1  0.074454  0  0.113136  0.120743  0  0.998005  0
H  H9  1  0.80334126  0.33934188  0.45973943  1  0.074449  0  0.113138  0.120731  0  0.998034  0
H  H10  1  0.28933951  0.47918602  0.43789892  1  0.068621  0  0.109977  0.115681  0  0.981504  0
H  H11  1  0.71066367  0.52081525  0.56209951  1  0.06861  0  0.109966  0.115703  0  0.981482  0
H  H12  1  0.16172875  0.40612438  0.27653985  1  0.107583  0  0.116629  0.080269  0  1.047132  0
H  H13  1  0.83827095  0.59387487  0.72346130  1  0.107629  0  0.116614  0.08026  0  1.047049  0
H  H14  1  0.71233252  0.11047553  0.62498117  1  0.070461  0  0.106542  0.111586  0  1.005511  0
H  H15  1  0.28766985  0.88952773  0.37501876  1  0.070445  0  0.106574  0.111635  0  1.005436  0
H  H16  1  0.70893672  0.25962057  0.77447244  1  0.067937  0  0.102124  0.100692  0  1.008603  0
H  H17  1  0.29105991  0.74037968  0.22552792  1  0.06801  0  0.102114  0.100662  0  1.008652  0
H  H18  1  0.03829561  0.05800120  0.91375553  1  0.076857  0  0.109363  0.112626  0  0.986602  0
H  H19  1  0.96170249  0.94200205  0.08624571  1  0.076872  0  0.109393  0.112698  0  0.986538  0
H  H20  1  0.04320740  0.91230253  0.76555087  1  0.12223  0  0.109736  0.119473  0  1.039581  0
H  H21  1  0.95679403  0.08770173  0.23445053  1  0.122203  0  0.109732  0.119471  0  1.039584  0
H  H22  1  0.46258449  0.12602215  0.29898361  1  0.119209  0  0.113842  0.125544  0  1.004919  0
H  H23  1  0.53741120  0.87397909  0.70101966  1  0.119252  0  0.113845  0.125557  0  1.004871  0
H  H24  1  0.23925664  0.19301039  0.21207392  1  0.129922  0  0.111004  0.110884  0  1.030387  0
H  H25  1  0.76074054  0.80698587  0.78792558  1  0.129968  0  0.11101  0.110883  0  1.030431  0
H  H26  1  0.51955860  0.47403806  0.06154217  1  0.105247  0  0.118174  0.077765  0  1.072579  0
H  H27  1  0.48043965  0.52595819  0.93845809  1  0.105396  0  0.118167  0.077719  0  1.072604  0
H  H28  1  0.08697175  0.84196494  0.61678854  1  0.55967  0  0.303998  0.285818  0  1.000001  0
H  H29  1  0.91302996  0.15803332  0.38321192  1  0.559714  0  0.304006  0.285858  0  0.999974  0
C  C30  1  0.67505478  0.70785171  0.16844302  1  0.477946  0  0.046215  0.101198  0  3.984847  0
C  C31  1  0.32494612  0.29214856  0.83155530  1  0.477973  0  0.046281  0.10124  0  3.984736  0
C  C32  1  0.60795629  0.80650534  0.21739118  1  -0.108136  0  -0.086027  -0.132515  0  3.987078  0
C  C33  1  0.39204568  0.19349493  0.78260718  1  -0.108168  0  -0.086069  -0.132631  0  3.987052  0
C  C34  1  0.65230111  0.84456018  0.31297186  1  0.049465  0  -0.058109  -0.046688  0  3.901495  0
C  C35  1  0.34770193  0.15544009  0.68702654  1  0.049345  0  -0.05809  -0.046561  0  3.901412  0
C  C36  1  0.76719446  0.78647483  0.35667493  1  0.018657  0  0.004423  -0.00257  0  3.976989  0
C  C37  1  0.23280884  0.21352744  0.64332428  1  0.018908  0  0.004442  -0.002602  0  3.976992  0
C  C38  1  0.82735185  0.82522002  0.45280681  1  0.46615  0  0.083615  0.086386  0  4.109075  0
C  C39  1  0.17265279  0.17478426  0.54719106  1  0.466082  0  0.083575  0.086369  0  4.109085  0
C  C40  1  0.95373760  0.77725085  0.48757122  1  0.402578  0  0.093288  0.083236  0  4.049323  0
C  C41  1  0.04626370  0.22275242  0.51242940  1  0.402548  0  0.093296  0.083187  0  4.049269  0
C  C42  1  0.02147990  0.67973746  0.43505882  1  0.041493  0  0.002548  -0.013227  0  4.016162  0
C  C43  1  0.97852100  0.32026280  0.56494095  1  0.041492  0  0.002571  -0.013192  0  4.01615  0
C  C44  1  0.14459047  0.62484081  0.46971613  1  -0.007336  0  -0.063717  -0.058594  0  3.914316  0
C  C45  1  0.85541044  0.37515946  0.53028292  1  -0.007334  0  -0.063735  -0.058623  0  3.914228  0
C  C46  1  0.19630090  0.52634000  0.41311166  1  -0.053549  0  -0.084573  -0.130439  0  3.995821  0
C  C47  1  0.80369906  0.47366126  0.58688813  1  -0.053558  0  -0.084562  -0.130447  0  3.99571  0
C  C48  1  0.12590044  0.48526011  0.32235091  1  0.523465  0  0.049778  0.106092  0  3.967788  0
C  C49  1  0.87409901  0.51473714  0.67764870  1  0.523455  0  0.049791  0.10609  0  3.967708  0
C  C50  1  0.95743848  0.63368188  0.34115893  1  0.518487  0  0.121749  0.13051  0  3.976543  0
C  C51  1  0.04256122  0.36631738  0.65884004  1  0.518445  0  0.121715  0.130538  0  3.97651  0
C  C52  1  0.83261968  0.68978964  0.30084336  1  0.453442  0  0.117964  0.126525  0  3.972919  0
C  C53  1  0.16738242  0.31021162  0.69915577  1  0.453458  0  0.117934  0.126491  0  3.972871  0
C  C54  1  0.88204422  0.92095295  0.59478526  1  0.944847  0  0.217415  0.290561  0  4.018698  0
C  C55  1  0.11796336  0.07904932  0.40521555  1  0.944874  0  0.217385  0.290429  0  4.018722  0
C  C56  1  0.87963450  0.00388414  0.68420802  1  -0.026384  0  -0.008806  0.002852  0  4.031024  0
C  C57  1  0.12036667  0.99611812  0.31579256  1  -0.026415  0  -0.00883  0.002888  0  4.030951  0
C  C58  1  0.78272570  0.10001237  0.68891692  1  0.003695  0  -0.084776  -0.113756  0  3.979986  0
C  C59  1  0.21727427  0.89998889  0.31108286  1  0.003758  0  -0.084823  -0.113834  0  3.980008  0
C  C60  1  0.78074097  0.18222844  0.77267366  1  -0.031949  0  -0.089871  -0.113936  0  4.000381  0
C  C61  1  0.21925686  0.81777281  0.22732823  1  -0.031991  0  -0.08984  -0.113916  0  4.000501  0
C  C62  1  0.87310157  0.16830142  0.85388346  1  -0.084069  0  -0.007028  -0.013863  0  3.956107  0
C  C63  1  0.12689399  0.83169883  0.14611759  1  -0.08405  0  -0.007002  -0.01377  0  3.956109  0
C  C64  1  0.96693733  0.07034895  0.85059731  1  0.011163  0  -0.08306  -0.10072  0  3.965889  0
C  C65  1  0.03306064  0.92965329  0.14940607  1  0.010788  0  -0.083141  -0.100915  0  3.966112  0
C  C66  1  0.97104690  0.98935257  0.76629741  1  -0.058223  0  -0.084067  -0.110943  0  3.945051  0
C  C67  1  0.02895320  0.01064969  0.23370314  1  -0.057926  0  -0.084047  -0.110907  0  3.945172  0
C  C68  1  0.87676292  0.26213697  0.94159657  1  1.569684  0  0.221089  0.637028  0  4.15832  0
C  C69  1  0.12323465  0.73786228  0.05840451  1  1.569704  0  0.221128  0.637065  0  4.158345  0
C  C70  1  0.60415361  0.26365381  0.22223991  1  0.474437  0  0.124069  0.125006  0  3.958714  0
C  C71  1  0.39584651  0.73634044  0.77776034  1  0.474484  0  0.124001  0.124893  0  3.95879  0
C  C72  1  0.46924183  0.20165728  0.24480628  1  -0.028427  0  -0.069945  -0.124497  0  3.91162  0
C  C73  1  0.53075454  0.79834096  0.75519545  1  -0.028389  0  -0.069954  -0.124495  0  3.911667  0
C  C74  1  0.34670377  0.23967953  0.19781969  1  -0.004296  0  -0.055374  -0.030609  0  3.90617  0
C  C75  1  0.65329473  0.76031871  0.80218139  1  -0.004223  0  -0.05536  -0.030601  0  3.906208  0
C  C76  1  0.36266134  0.33942510  0.13043836  1  0.020376  0  -0.009075  -0.084189  0  3.939924  0
C  C77  1  0.63733464  0.66057016  0.86955961  1  0.020264  0  -0.009044  -0.08416  0  3.940012  0
C  C78  1  0.50192869  0.39571368  0.11270257  1  0.470316  0  0.060137  0.098855  0  3.943081  0
C  C79  1  0.49806955  0.60428257  0.88729770  1  0.470195  0  0.060143  0.098855  0  3.943062  0
C  C80  1  0.74276628  0.22948121  0.26963758  1  1.614674  0  0.215662  0.549876  0  4.239189  0
C  C81  1  0.25723541  0.77052506  0.73036172  1  1.614989  0  0.215682  0.54994  0  4.239205  0
C  C82  1  0.23516187  0.38953555  0.08025031  1  1.606394  0  0.236268  0.636171  0  4.161201  0
C  C83  1  0.76483530  0.61046070  0.91974992  1  1.606393  0  0.236306  0.636232  0  4.161046  0
N  N84  1  0.78276774  0.64931115  0.20825270  1  -1.241018  0  -0.365369  -0.378501  0  3.500239  0
N  N85  1  0.21723436  0.35069011  0.79174716  1  -1.241034  0  -0.365377  -0.378493  0  3.500227  0
N  N86  1  0.01187762  0.53832093  0.28647631  1  -1.245156  0  -0.367118  -0.358564  0  3.509639  0
N  N87  1  0.98811995  0.46167833  0.71352331  1  -1.245115  0  -0.3671  -0.35855  0  3.509623  0
N  N88  1  0.78299992  0.91339052  0.52040937  1  -1.131143  0  -0.34182  -0.398443  0  3.179444  0
N  N89  1  0.21700592  0.08661476  0.47958930  1  -1.131335  0  -0.341758  -0.398299  0  3.179483  0
N  N90  1  0.98750345  0.84005465  0.57757320  1  -1.273685  0  -0.368919  -0.287301  0  3.562411  0
N  N91  1  0.01249758  0.15994661  0.42242589  1  -1.273588  0  -0.368921  -0.287309  0  3.562197  0
N  N92  1  0.62012701  0.35908712  0.15672017  1  -1.268862  0  -0.36646  -0.342852  0  3.500037  0
N  N93  1  0.37987003  0.64090813  0.84327856  1  -1.269047  0  -0.366428  -0.342769  0  3.49996  0
O  O94  1  0.81103012  0.22962463  0.01627136  1  -1.168107  0  -0.356908  -0.588638  0  2.118916  0
O  O95  1  0.18896972  0.77037562  0.98372910  1  -1.168074  0  -0.35692  -0.588659  0  2.118858  0
O  O96  1  0.95045008  0.37801144  0.93789286  1  -1.210895  0  -0.436851  -0.737007  0  2.453254  0
O  O97  1  0.04954736  0.62198681  0.06210746  1  -1.210966  0  -0.436851  -0.737021  0  2.45328  0
O  O98  1  0.73733612  0.15371152  0.33984682  1  -1.179585  0  -0.304737  -0.525358  0  2.16945  0
O  O99  1  0.26266360  0.84627970  0.66015766  1  -1.179894  0  -0.304715  -0.525314  0  2.169742  0
O  O100  1  0.85881828  0.28294189  0.23493115  1  -1.187235  0  -0.405747  -0.644173  0  2.344885  0
O  O101  1  0.14117983  0.71705335  0.76507053  1  -1.187253  0  -0.405786  -0.644241  0  2.34472  0
O  O102  1  0.25926838  0.45851747  0.00617887  1  -1.191693  0  -0.378013  -0.642682  0  2.328752  0
O  O103  1  0.74073080  0.54147779  0.99381848  1  -1.191728  0  -0.37804  -0.642706  0  2.32871  0
O  O104  1  0.11457538  0.35999708  0.11670045  1  -1.186241  0  -0.375852  -0.614613  0  2.29886  0
O  O105  1  0.88542299  0.64000018  0.88329767  1  -1.186196  0  -0.375896  -0.614669  0  2.29872  0
