# generated using pymatgen
data_Zn2H17C28(NO3)3
_symmetry_space_group_name_H-M   'P 1'
_cell_length_a   10.74314936
_cell_length_b   11.45797581
_cell_length_c   11.65909566
_cell_angle_alpha   114.24835080
_cell_angle_beta   103.95796462
_cell_angle_gamma   91.35166609
_symmetry_Int_Tables_number   1
_chemical_formula_structural   Zn2H17C28(NO3)3
_chemical_formula_sum   'Zn4 H34 C56 N6 O18'
_cell_volume   1257.65690831
_cell_formula_units_Z   2
loop_
 _symmetry_equiv_pos_site_id
 _symmetry_equiv_pos_as_xyz
  1  'x, y, z'
loop_
 _atom_site_type_symbol
 _atom_site_label
 _atom_site_symmetry_multiplicity
 _atom_site_fract_x
 _atom_site_fract_y
 _atom_site_fract_z
 _atom_site_occupancy
 _atom_site_hle17_bader_spin_density
 _atom_site_hle17_ddec_charge
 _atom_site_hle17_ddec_spin_density
 _atom_site_hle17_ddec_sum_bond_order
 _atom_site_hle17_magmom
 _atom_site_hse06_10hf_bader_spin_density
 _atom_site_hse06_10hf_ddec_charge
 _atom_site_hse06_10hf_ddec_spin_density
 _atom_site_hse06_10hf_ddec_sum_bond_order
 _atom_site_hse06_10hf_magmom
 _atom_site_hse06_bader_spin_density
 _atom_site_hse06_ddec_charge
 _atom_site_hse06_ddec_spin_density
 _atom_site_hse06_ddec_sum_bond_order
 _atom_site_hse06_magmom
 _atom_site_pbe_bader_spin_density
 _atom_site_pbe_cm5_charge
 _atom_site_pbe_ddec_charge
 _atom_site_pbe_ddec_spin_density
 _atom_site_pbe_ddec_sum_bond_order
 _atom_site_pbe_magmom
Zn  Zn0  1  0.20566423  0.54228014  0.40243448  1  0  1.072995  0  1.751816  0  0  0.884574  0  2.210607  0  0  0.936527  0  2.150649  0  0  0.703842  0.848256  0  2.251697  0
Zn  Zn1  1  0.79433582  0.45772047  0.59756552  1  0  1.073038  0  1.751786  0  0  0.884624  0  2.210588  0  0  0.936581  0  2.150625  0  0  0.703846  0.848306  0  2.251678  0
Zn  Zn2  1  0.15195263  0.75109494  0.76578819  1  0  1.210717  0  1.70758  0  0  1.044458  0  2.185238  0  0  1.092996  0  2.118235  0  0  0.714082  1.009817  0  2.231978  0
Zn  Zn3  1  0.84805069  0.24890857  0.23421283  1  0  1.210719  0  1.707606  0  0  1.044432  0  2.185288  0  0  1.09297  0  2.118285  0  0  0.714082  1.009797  0  2.232022  0
H  H4  1  0.03073162  0.13582568  0.69051154  1  0  0.098796  0  0.949673  0  0  0.109441  0  1.009437  0  0  0.111965  0  1.009012  0  0  0.106055  0.10755  0  1.009938  0
H  H5  1  0.96927430  0.86417598  0.30949450  1  0  0.09878  0  0.94967  0  0  0.109426  0  1.009433  0  0  0.11195  0  1.009009  0  0  0.10604  0.107536  0  1.009934  0
H  H6  1  0.21039729  0.99965992  0.67011852  1  0  0.105544  0  0.96897  0  0  0.11547  0  1.028121  0  0  0.118763  0  1.026333  0  0  0.101511  0.113116  0  1.029537  0
H  H7  1  0.78960756  0.00034070  0.32988172  1  0  0.105531  0  0.968963  0  0  0.115478  0  1.028089  0  0  0.118772  0  1.026297  0  0  0.101497  0.113105  0  1.029531  0
H  H8  1  0.33710772  0.99024624  0.51545695  1  0  0.095043  0  0.940104  0  0  0.106675  0  0.998501  0  0  0.109285  0  0.997617  0  0  0.10231  0.104759  0  0.999238  0
H  H9  1  0.66288920  0.00975237  0.48453727  1  0  0.094991  0  0.939952  0  0  0.106636  0  0.99835  0  0  0.109236  0  0.997476  0  0  0.102269  0.104718  0  0.999087  0
H  H10  1  0.17259420  0.95830811  0.20375891  1  0  0.112474  0  0.930316  0  0  0.124281  0  0.989059  0  0  0.127603  0  0.987282  0  0  0.111494  0.121736  0  0.990705  0
H  H11  1  0.82740297  0.04169252  0.79624130  1  0  0.112402  0  0.930343  0  0  0.124247  0  0.989059  0  0  0.127569  0  0.987281  0  0  0.111461  0.121701  0  0.990704  0
H  H12  1  0.53632216  0.01633238  0.12661138  1  0  0.112929  0  0.94573  0  0  0.119842  0  1.012558  0  0  0.123492  0  1.009924  0  0  0.109735  0.117118  0  1.014654  0
H  H13  1  0.46367544  0.98366439  0.87338828  1  0  0.112858  0  0.945785  0  0  0.119809  0  1.012567  0  0  0.123459  0  1.009934  0  0  0.109727  0.117085  0  1.014663  0
H  H14  1  0.47243434  0.26314877  0.49573343  1  0  0.107915  0  0.951724  0  0  0.114765  0  1.019713  0  0  0.117771  0  1.018422  0  0  0.104513  0.112549  0  1.020661  0
H  H15  1  0.52756309  0.73685375  0.50426587  1  0  0.107903  0  0.951726  0  0  0.114739  0  1.019726  0  0  0.117744  0  1.018436  0  0  0.104518  0.112524  0  1.020675  0
H  H16  1  0.42974823  0.41874281  0.33011245  1  0  0.089658  0  0.93393  0  0  0.098683  0  0.996482  0  0  0.101164  0  0.994447  0  0  0.119039  0.096752  0  0.998188  0
H  H17  1  0.57025936  0.58125685  0.66988890  1  0  0.08966  0  0.933898  0  0  0.098673  0  0.996465  0  0  0.101155  0  0.99443  0  0  0.119038  0.096744  0  0.998169  0
H  H18  1  0.20115770  0.66321191  0.22000289  1  0  0.090185  0  0.966187  0  0  0.10048  0  1.026653  0  0  0.102902  0  1.024535  0  0  0.119678  0.098763  0  1.028086  0
H  H19  1  0.79883788  0.33677713  0.77999330  1  0  0.090231  0  0.966215  0  0  0.100498  0  1.026709  0  0  0.102921  0  1.02459  0  0  0.119681  0.09878  0  1.028142  0
H  H20  1  0.35929188  0.71307553  0.11757027  1  0  0.108009  0  0.970624  0  0  0.118808  0  1.030546  0  0  0.121554  0  1.030209  0  0  0.109333  0.116725  0  1.031045  0
H  H21  1  0.64070406  0.28692321  0.88243150  1  0  0.107981  0  0.970639  0  0  0.11878  0  1.030571  0  0  0.121537  0  1.030217  0  0  0.109313  0.116701  0  1.031059  0
H  H22  1  0.59891583  0.46108909  0.23156269  1  0  0.129186  0  0.956107  0  0  0.138537  0  1.017287  0  0  0.142367  0  1.01494  0  0  0.115397  0.135826  0  1.019074  0
H  H23  1  0.40108968  0.53891636  0.76843958  1  0  0.129147  0  0.956114  0  0  0.13853  0  1.017246  0  0  0.142359  0  1.014901  0  0  0.115376  0.135815  0  1.019039  0
H  H24  1  0.96478224  0.55841374  0.10061077  1  0  0.099108  0  0.955853  0  0  0.111484  0  1.016124  0  0  0.113785  0  1.015582  0  0  0.100474  0.109855  0  1.016436  0
H  H25  1  0.03521454  0.44158395  0.89938649  1  0  0.099082  0  0.955863  0  0  0.11148  0  1.016111  0  0  0.113781  0  1.015568  0  0  0.100466  0.10985  0  1.016425  0
H  H26  1  0.05734446  0.69017799  0.00613242  1  0  0.0865  0  0.962061  0  0  0.098474  0  1.021677  0  0  0.100957  0  1.021409  0  0  0.094729  0.096769  0  1.021873  0
H  H27  1  0.94265601  0.30981876  0.99386617  1  0  0.086501  0  0.962035  0  0  0.098471  0  1.021658  0  0  0.100953  0  1.02139  0  0  0.094724  0.096767  0  1.02185  0
H  H28  1  0.93206883  0.84062247  0.94083079  1  0  0.101195  0  0.953782  0  0  0.112329  0  1.012543  0  0  0.115365  0  1.011054  0  0  0.098787  0.110102  0  1.013757  0
H  H29  1  0.06793505  0.15937816  0.05917009  1  0  0.101182  0  0.95388  0  0  0.112318  0  1.012636  0  0  0.115354  0  1.011148  0  0  0.098755  0.110092  0  1.013851  0
H  H30  1  0.70692218  0.86310443  0.95970855  1  0  0.102221  0  0.976463  0  0  0.111771  0  1.038034  0  0  0.113867  0  1.038382  0  0  0.096549  0.110294  0  1.037901  0
H  H31  1  0.29308198  0.13689809  0.04029055  1  0  0.102244  0  0.976445  0  0  0.111824  0  1.037976  0  0  0.113893  0  1.038351  0  0  0.096585  0.110347  0  1.037842  0
H  H32  1  0.51529050  0.75705863  0.04178313  1  0  0.315879  0  0.931665  0  0  0.296921  0  0.994544  0  0  0.305819  0  0.987169  0  0  0.304912  0.290661  0  0.999722  0
H  H33  1  0.48470885  0.24294391  0.95821661  1  0  0.315915  0  0.931615  0  0  0.296977  0  0.994474  0  0  0.305874  0  0.987104  0  0  0.30492  0.290715  0  0.999653  0
H  H34  1  0.09562009  0.50095087  0.65132253  1  0  0.43896  0  0.865166  0  0  0.405555  0  0.931209  0  0  0.416541  0  0.915667  0  0  0.295605  0.397791  0  0.942136  0
H  H35  1  0.90438321  0.49905272  0.34868366  1  0  0.438933  0  0.865202  0  0  0.405525  0  0.93125  0  0  0.416511  0  0.915708  0  0  0.295587  0.397761  0  0.942179  0
H  H36  1  0.23066420  0.54315722  0.63792557  1  0  0.427392  0  0.85815  0  0  0.396001  0  0.935825  0  0  0.405734  0  0.921471  0  0  0.306247  0.389091  0  0.945246  0
H  H37  1  0.76933488  0.45684341  0.36207508  1  0  0.427403  0  0.858156  0  0  0.396019  0  0.935803  0  0  0.405752  0  0.92145  0  0  0.306251  0.389108  0  0.945237  0
C  C38  1  0.12911939  0.29707031  0.40652335  1  0  0.721507  0  3.83905  0  0  0.661158  0  4.142137  0  0  0.697784  0  4.131455  0  0  0.2347  0.636144  0  4.148618  0
C  C39  1  0.87088079  0.70293129  0.59347793  1  0  0.721493  0  3.839175  0  0  0.661101  0  4.14233  0  0  0.697726  0  4.131649  0  0  0.234654  0.636092  0  4.148805  0
C  C40  1  0.14493676  0.21174200  0.47739385  1  0  -0.101886  0  3.670602  0  0  -0.095179  0  3.907861  0  0  -0.098989  0  3.927311  0  0  -0.007407  -0.092888  0  3.895146  0
C  C41  1  0.85506423  0.78825867  0.52260982  1  0  -0.101869  0  3.670585  0  0  -0.095146  0  3.907873  0  0  -0.098953  0  3.927322  0  0  -0.007418  -0.092857  0  3.895155  0
C  C42  1  0.06844182  0.21173016  0.56017495  1  0  -0.076602  0  3.738666  0  0  -0.062713  0  3.977733  0  0  -0.07048  0  4.000375  0  0  -0.013836  -0.05769  0  3.962746  0
C  C43  1  0.93155919  0.78827048  0.43982700  1  0  -0.076565  0  3.73855  0  0  -0.062726  0  3.97769  0  0  -0.070497  0  4.000333  0  0  -0.013809  -0.057702  0  3.962699  0
C  C44  1  0.96018917  0.28947477  0.58113877  1  0  0.643175  0  3.879993  0  0  0.591409  0  4.171841  0  0  0.625212  0  4.165195  0  0  0.210567  0.568429  0  4.175755  0
C  C45  1  0.03980746  0.71052200  0.41886068  1  0  0.643158  0  3.879906  0  0  0.5914  0  4.171761  0  0  0.625204  0  4.165115  0  0  0.210587  0.568423  0  4.17567  0
C  C46  1  0.09162000  0.13392023  0.62760271  1  0  -0.046426  0  3.724533  0  0  -0.072838  0  3.977677  0  0  -0.072008  0  3.997929  0  0  -0.074939  -0.073277  0  3.963988  0
C  C47  1  0.90838304  0.86608141  0.37240095  1  0  -0.046421  0  3.724335  0  0  -0.072812  0  3.977484  0  0  -0.071982  0  3.997735  0  0  -0.074941  -0.073252  0  3.96379  0
C  C48  1  0.19084476  0.05828806  0.61598367  1  0  -0.049378  0  3.739434  0  0  -0.06882  0  4.002719  0  0  -0.070696  0  4.021393  0  0  -0.088028  -0.06769  0  3.99011  0
C  C49  1  0.80915639  0.94171351  0.38401610  1  0  -0.049405  0  3.739446  0  0  -0.068859  0  4.002714  0  0  -0.070735  0  4.021387  0  0  -0.088033  -0.067716  0  3.990113  0
C  C50  1  0.26307286  0.05424359  0.53030972  1  0  -0.072221  0  3.70372  0  0  -0.098043  0  3.959121  0  0  -0.097731  0  3.976948  0  0  -0.077909  -0.098122  0  3.947199  0
C  C51  1  0.73692884  0.94575507  0.46968818  1  0  -0.072138  0  3.703664  0  0  -0.097981  0  3.959069  0  0  -0.09766  0  3.976899  0  0  -0.077869  -0.098059  0  3.947142  0
C  C52  1  0.24044471  0.12881020  0.45949333  1  0  0.02798  0  3.753944  0  0  0.037747  0  3.987532  0  0  0.03628  0  4.012557  0  0  -0.00405  0.03853  0  3.970936  0
C  C53  1  0.75955438  0.87119044  0.54050818  1  0  0.027954  0  3.753964  0  0  0.037729  0  3.987534  0  0  0.036261  0  4.012556  0  0  -0.004035  0.038513  0  3.970938  0
C  C54  1  0.31622315  0.10984425  0.36295756  1  0  0.052893  0  3.779836  0  0  0.072326  0  4.017531  0  0  0.069503  0  4.042437  0  0  -0.002627  0.073901  0  4.00069  0
C  C55  1  0.68377415  0.89015734  0.63704306  1  0  0.052903  0  3.77984  0  0  0.072359  0  4.017497  0  0  0.069537  0  4.042402  0  0  -0.00261  0.073934  0  4.000655  0
C  C56  1  0.26974721  0.01097177  0.23570922  1  0  -0.08486  0  3.649705  0  0  -0.119592  0  3.891863  0  0  -0.117681  0  3.909762  0  0  -0.069254  -0.120864  0  3.880295  0
C  C57  1  0.73025091  0.98902885  0.76429121  1  0  -0.084713  0  3.649676  0  0  -0.119487  0  3.891823  0  0  -0.117577  0  3.909724  0  0  -0.069176  -0.120759  0  3.880253  0
C  C58  1  0.34867708  0.97698322  0.15040549  1  0  -0.069708  0  3.792197  0  0  -0.043148  0  4.03103  0  0  -0.051922  0  4.053253  0  0  -0.019222  -0.037704  0  4.01648  0
C  C59  1  0.65132091  0.02301645  0.84959540  1  0  -0.069866  0  3.792333  0  0  -0.043312  0  4.031214  0  0  -0.052088  0  4.05344  0  0  -0.01929  -0.037866  0  4.016662  0
C  C60  1  0.30250360  0.87362362  0.01317887  1  0  0.633936  0  3.928916  0  0  0.583556  0  4.224459  0  0  0.61759  0  4.217297  0  0  0.20913  0.56051  0  4.228581  0
C  C61  1  0.69749947  0.12637794  0.98682047  1  0  0.634089  0  3.928624  0  0  0.583694  0  4.224184  0  0  0.617728  0  4.217017  0  0  0.20923  0.560648  0  4.228306  0
C  C62  1  0.47393443  0.04280026  0.19173627  1  0  -0.069968  0  3.696577  0  0  -0.110073  0  3.947161  0  0  -0.106716  0  3.965046  0  0  -0.075885  -0.112178  0  3.935341  0
C  C63  1  0.52606356  0.95719943  0.80826548  1  0  -0.06984  0  3.696514  0  0  -0.109961  0  3.947102  0  0  -0.106603  0  3.964987  0  0  -0.075857  -0.112065  0  3.93528  0
C  C64  1  0.51653323  0.14849789  0.31406729  1  0  -0.068078  0  3.769415  0  0  -0.041054  0  4.004705  0  0  -0.051175  0  4.027904  0  0  -0.016349  -0.034639  0  3.989129  0
C  C65  1  0.48346586  0.85150271  0.68593163  1  0  -0.068038  0  3.76932  0  0  -0.041062  0  4.004636  0  0  -0.051182  0  4.027836  0  0  -0.016324  -0.034646  0  3.98906  0
C  C66  1  0.64388867  0.22744957  0.34957438  1  0  0.696509  0  3.843784  0  0  0.641938  0  4.130397  0  0  0.678421  0  4.121369  0  0  0.23161  0.617099  0  4.135803  0
C  C67  1  0.35610946  0.77255101  0.65042346  1  0  0.696441  0  3.844035  0  0  0.641935  0  4.130547  0  0  0.678414  0  4.121526  0  0  0.231602  0.617094  0  4.13596  0
C  C68  1  0.43782258  0.18183356  0.39959739  1  0  -0.091117  0  3.669263  0  0  -0.126977  0  3.917194  0  0  -0.124456  0  3.934655  0  0  -0.074307  -0.128041  0  3.905127  0
C  C69  1  0.56217665  0.81816799  0.60040108  1  0  -0.091118  0  3.669215  0  0  -0.126963  0  3.91715  0  0  -0.124443  0  3.93461  0  0  -0.074342  -0.128029  0  3.905085  0
C  C70  1  0.41783023  0.48334499  0.28202467  1  0  0.131768  0  3.69138  0  0  0.09939  0  3.945848  0  0  0.107755  0  3.96241  0  0  0.046788  0.09389  0  3.934773  0
C  C71  1  0.58217518  0.51665274  0.71797543  1  0  0.13188  0  3.691214  0  0  0.099494  0  3.945677  0  0  0.10786  0  3.962238  0  0  0.046857  0.093992  0  3.934604  0
C  C72  1  0.28971580  0.61932697  0.21933883  1  0  0.134244  0  3.704981  0  0  0.102231  0  3.952738  0  0  0.110644  0  3.96997  0  0  0.046537  0.096704  0  3.940672  0
C  C73  1  0.71028209  0.38066499  0.78065988  1  0  0.134277  0  3.704866  0  0  0.102308  0  3.952609  0  0  0.110717  0  3.969847  0  0  0.046574  0.096781  0  3.940542  0
C  C74  1  0.38013736  0.64879958  0.16501672  1  0  -0.137094  0  3.688367  0  0  -0.157426  0  3.933826  0  0  -0.163943  0  3.952943  0  0  -0.079526  -0.152901  0  3.920826  0
C  C75  1  0.61986024  0.35119720  0.83498294  1  0  -0.137112  0  3.688436  0  0  -0.157464  0  3.9339  0  0  -0.163989  0  3.953014  0  0  -0.07956  -0.152938  0  3.920898  0
C  C76  1  0.51228036  0.50804101  0.22939587  1  0  -0.125303  0  3.652893  0  0  -0.14913  0  3.903106  0  0  -0.154759  0  3.920427  0  0  -0.075431  -0.145786  0  3.891789  0
C  C77  1  0.48772243  0.49195866  0.77060524  1  0  -0.125242  0  3.652805  0  0  -0.149051  0  3.902955  0  0  -0.15468  0  3.920277  0  0  -0.075407  -0.14571  0  3.891646  0
C  C78  1  0.59978691  0.62873189  0.12555825  1  0  0.31161  0  3.782346  0  0  0.280959  0  4.060427  0  0  0.293166  0  4.074921  0  0  0.214083  0.273254  0  4.049865  0
C  C79  1  0.40021258  0.37127158  0.87444016  1  0  0.311581  0  3.782374  0  0  0.280891  0  4.060529  0  0  0.2931  0  4.075021  0  0  0.214055  0.273184  0  4.049964  0
C  C80  1  0.71107640  0.72367418  0.04291605  1  0  0.164256  0  3.801958  0  0  0.156657  0  4.042584  0  0  0.160863  0  4.066453  0  0  0.097851  0.153682  0  4.026608  0
C  C81  1  0.28892308  0.27632935  0.95708582  1  0  0.16431  0  3.801935  0  0  0.156665  0  4.042636  0  0  0.160873  0  4.066498  0  0  0.097821  0.153687  0  4.026655  0
C  C82  1  0.78335432  0.63784484  0.08380965  1  0  0.132193  0  3.855647  0  0  0.136793  0  4.10441  0  0  0.137534  0  4.129283  0  0  0.083926  0.136423  0  4.087118  0
C  C83  1  0.21664503  0.36215769  0.91619008  1  0  0.132057  0  3.855669  0  0  0.136702  0  4.104407  0  0  0.137441  0  4.129282  0  0  0.083895  0.136334  0  4.087115  0
C  C84  1  0.90922374  0.62412981  0.07008298  1  0  -0.1412  0  3.759422  0  0  -0.161423  0  4.011794  0  0  -0.163745  0  4.033947  0  0  -0.096049  -0.159209  0  3.996099  0
C  C85  1  0.09077439  0.37587080  0.92991659  1  0  -0.141165  0  3.759498  0  0  -0.161413  0  4.011849  0  0  -0.163734  0  4.034002  0  0  -0.096058  -0.159199  0  3.996154  0
C  C86  1  0.95972448  0.69767723  0.01786848  1  0  -0.105907  0  3.811551  0  0  -0.12305  0  4.075244  0  0  -0.127422  0  4.099923  0  0  -0.11028  -0.120404  0  4.058522  0
C  C87  1  0.04027653  0.30232337  0.98213088  1  0  -0.105901  0  3.81164  0  0  -0.123044  0  4.075333  0  0  -0.127413  0  4.100011  0  0  -0.11027  -0.120396  0  4.05861  0
C  C88  1  0.88760006  0.78368771  0.97943757  1  0  -0.062179  0  3.772594  0  0  -0.082052  0  4.031907  0  0  -0.083593  0  4.054733  0  0  -0.098443  -0.080823  0  4.016521  0
C  C89  1  0.11240191  0.21631290  0.02056201  1  0  -0.062162  0  3.77273  0  0  -0.082038  0  4.032034  0  0  -0.083579  0  4.054854  0  0  -0.098388  -0.08081  0  4.016649  0
C  C90  1  0.76201656  0.79742550  0.99035060  1  0  -0.159562  0  3.757467  0  0  -0.173994  0  4.004369  0  0  -0.178076  0  4.026277  0  0  -0.101561  -0.171327  0  3.98962  0
C  C91  1  0.23798568  0.20257704  0.00964979  1  0  -0.159572  0  3.757466  0  0  -0.174003  0  4.004364  0  0  -0.178062  0  4.026289  0  0  -0.101572  -0.171332  0  3.989615  0
C  C92  1  0.49655299  0.59568389  0.17235849  1  0  0.064991  0  3.760787  0  0  0.0793  0  3.994791  0  0  0.084078  0  4.012914  0  0  0.022187  0.076084  0  3.982307  0
C  C93  1  0.50344802  0.40431671  0.82764087  1  0  0.064995  0  3.76089  0  0  0.079311  0  3.994898  0  0  0.084089  0  4.013021  0  0  0.022238  0.076095  0  3.982413  0
N  N94  1  0.30855718  0.54015257  0.27992828  1  0  -0.36824  0  3.346922  0  0  -0.278745  0  3.63003  0  0  -0.300614  0  3.644625  0  0  -0.339718  -0.263897  0  3.619726  0
N  N95  1  0.69144496  0.45984224  0.72006907  1  0  -0.368439  0  3.346834  0  0  -0.278958  0  3.629951  0  0  -0.300825  0  3.644542  0  0  -0.3398  -0.264109  0  3.619648  0
N  N96  1  0.71170609  0.58065578  0.13468843  1  0  -0.414229  0  2.939662  0  0  -0.392468  0  3.211044  0  0  -0.404616  0  3.22546  0  0  -0.333597  -0.384  0  3.200822  0
N  N97  1  0.28829327  0.41934676  0.86531130  1  0  -0.414164  0  2.939743  0  0  -0.3924  0  3.211151  0  0  -0.40455  0  3.225569  0  0  -0.333575  -0.383937  0  3.200932  0
N  N98  1  0.59472859  0.71545446  0.07060270  1  0  -0.394983  0  3.358739  0  0  -0.335072  0  3.587876  0  0  -0.354098  0  3.602148  0  0  -0.379812  -0.322354  0  3.578043  0
N  N99  1  0.40527076  0.28454809  0.92939790  1  0  -0.395015  0  3.358536  0  0  -0.335107  0  3.58771  0  0  -0.354133  0  3.601978  0  0  -0.379799  -0.322397  0  3.577909  0
O  O100  1  0.21820863  0.39332579  0.45207474  1  0  -0.632285  0  2.04667  0  0  -0.551997  0  2.310402  0  0  -0.581938  0  2.294886  0  0  -0.305855  -0.531181  0  2.32051  0
O  O101  1  0.78178962  0.60667580  0.54792610  1  0  -0.632313  0  2.046645  0  0  -0.552021  0  2.310406  0  0  -0.581962  0  2.29489  0  0  -0.305868  -0.531203  0  2.320511  0
O  O102  1  0.03752372  0.26953966  0.30420889  1  0  -0.666652  0  2.092117  0  0  -0.597673  0  2.382309  0  0  -0.626035  0  2.361799  0  0  -0.316776  -0.577497  0  2.395675  0
O  O103  1  0.96247772  0.73045708  0.69578906  1  0  -0.666645  0  2.092199  0  0  -0.597642  0  2.382395  0  0  -0.626005  0  2.361883  0  0  -0.316727  -0.577471  0  2.39576  0
O  O104  1  0.96672064  0.40167507  0.57436060  1  0  -0.681385  0  2.080165  0  0  -0.59055  0  2.332537  0  0  -0.620554  0  2.31571  0  0  -0.324024  -0.569382  0  2.343301  0
O  O105  1  0.03327913  0.59832366  0.42564204  1  0  -0.681399  0  2.080156  0  0  -0.590552  0  2.332515  0  0  -0.620555  0  2.315686  0  0  -0.324026  -0.569386  0  2.34328  0
O  O106  1  0.86496982  0.24985473  0.60516895  1  0  -0.5872  0  1.967096  0  0  -0.538092  0  2.198489  0  0  -0.562559  0  2.192031  0  0  -0.296388  -0.520967  0  2.202013  0
O  O107  1  0.13502822  0.75013811  0.39482500  1  0  -0.58718  0  1.967034  0  0  -0.538074  0  2.198423  0  0  -0.56254  0  2.19196  0  0  -0.296393  -0.520948  0  2.201945  0
O  O108  1  0.18194668  0.86385454  0.95265162  1  0  -0.645692  0  2.01179  0  0  -0.570001  0  2.273612  0  0  -0.600073  0  2.258711  0  0  -0.318091  -0.54886  0  2.283154  0
O  O109  1  0.81805308  0.13615087  0.04734761  1  0  -0.645784  0  2.01188  0  0  -0.570053  0  2.273676  0  0  -0.600129  0  2.258783  0  0  -0.318115  -0.548913  0  2.283219  0
O  O110  1  0.38107638  0.80454869  0.96158730  1  0  -0.611692  0  1.958474  0  0  -0.564593  0  2.185206  0  0  -0.588356  0  2.176465  0  0  -0.310958  -0.54802  0  2.19068  0
O  O111  1  0.61892079  0.19545192  0.03841205  1  0  -0.611753  0  1.958144  0  0  -0.564678  0  2.184916  0  0  -0.588441  0  2.176176  0  0  -0.311058  -0.548111  0  2.190412  0
O  O112  1  0.72970135  0.17027105  0.29650252  1  0  -0.654916  0  2.097734  0  0  -0.582017  0  2.372684  0  0  -0.610028  0  2.354436  0  0  -0.310122  -0.562489  0  2.384568  0
O  O113  1  0.27029527  0.82973239  0.70349352  1  0  -0.654894  0  2.097816  0  0  -0.582008  0  2.372718  0  0  -0.610017  0  2.354471  0  0  -0.310113  -0.562487  0  2.384614  0
O  O114  1  0.65662553  0.34720324  0.42661886  1  0  -0.660967  0  2.081094  0  0  -0.586254  0  2.347932  0  0  -0.614251  0  2.332308  0  0  -0.319465  -0.566633  0  2.358087  0
O  O115  1  0.34337094  0.65279933  0.57338281  1  0  -0.660926  0  2.081256  0  0  -0.586241  0  2.348091  0  0  -0.614224  0  2.332444  0  0  -0.319454  -0.566622  0  2.358248  0
O  O116  1  0.17619770  0.56685873  0.69822800  1  0  -0.840022  0  1.983581  0  0  -0.779041  0  2.234033  0  0  -0.800782  0  2.194049  0  0  -0.571762  -0.763329  0  2.260967  0
O  O117  1  0.82380343  0.43314288  0.30177435  1  0  -0.840017  0  1.983599  0  0  -0.77902  0  2.233987  0  0  -0.800758  0  2.194005  0  0  -0.571762  -0.763338  0  2.260993  0
