# generated using pymatgen
data_Mn3H28(C7O4)4
_symmetry_space_group_name_H-M   'P 1'
_cell_length_a   9.46120166
_cell_length_b   9.84167012
_cell_length_c   10.45560696
_cell_angle_alpha   102.16678319
_cell_angle_beta   109.17877182
_cell_angle_gamma   106.52736632
_symmetry_Int_Tables_number   1
_chemical_formula_structural   Mn3H28(C7O4)4
_chemical_formula_sum   'Mn3 H28 C28 O16'
_cell_volume   830.29642017
_cell_formula_units_Z   1
loop_
 _symmetry_equiv_pos_site_id
 _symmetry_equiv_pos_as_xyz
  1  'x, y, z'
loop_
 _atom_site_type_symbol
 _atom_site_label
 _atom_site_symmetry_multiplicity
 _atom_site_fract_x
 _atom_site_fract_y
 _atom_site_fract_z
 _atom_site_occupancy
 _atom_site_pbe_cm5_charge
 _atom_site_pbe_ddec_charge
 _atom_site_pbe_ddec_spin_density
 _atom_site_pbe_ddec_sum_bond_order
 _atom_site_pbe_magmom
Mn  Mn0  1  0.00010252  0.00115895  0.00121947  1  0.61583  1.089767  4.630231  2.302072  4.458
Mn  Mn1  1  0.91802745  0.11440643  0.30070320  1  0.602763  0.985215  -4.669431  2.262891  -4.474
Mn  Mn2  1  0.08132022  0.88451428  0.69843734  1  0.601965  0.986223  4.681046  2.255312  4.485
H  H3  1  0.42866545  0.95222869  0.23934003  1  0.109991  0.114519  3.5e-05  1.001437  0.0
H  H4  1  0.57099275  0.04807082  0.76089673  1  0.110136  0.114311  -0.000271  1.001304  0.0
H  H5  1  0.33083319  0.08543083  0.61080402  1  0.106337  0.105121  0.00072  1.052383  0.0
H  H6  1  0.66848971  0.91435782  0.38932162  1  0.106727  0.105479  -0.000673  1.05126  0.0
H  H7  1  0.84313635  0.22571697  0.88623055  1  0.10568  0.101782  -0.00023  1.048872  0.0
H  H8  1  0.15924102  0.77639925  0.11637776  1  0.105759  0.102662  -0.000136  1.049291  0.0
H  H9  1  0.15681698  0.60878854  0.26724163  1  0.10571  0.10975  -6.6e-05  0.999705  0.0
H  H10  1  0.84581288  0.39335974  0.73548284  1  0.105701  0.110213  0.00013  0.998102  0.0
H  H11  1  0.69573425  0.55332474  0.88814917  1  0.10233  0.107674  -0.000114  1.030783  0.0
H  H12  1  0.30399847  0.44607040  0.10991764  1  0.10221  0.107782  -7e-05  1.030911  0.0
H  H13  1  0.51195732  0.70588653  0.19120025  1  0.101865  0.101333  0.00015  1.036069  0.0
H  H14  1  0.48793297  0.29346886  0.80703450  1  0.101777  0.101316  -8.6e-05  1.037535  0.0
H  H15  1  0.09807504  0.34653390  0.73085459  1  0.092629  0.089904  -0.001326  1.035102  -0.001
H  H16  1  0.90036351  0.65148642  0.26843886  1  0.092781  0.089962  0.001336  1.034213  0.001
H  H17  1  0.09639317  0.41403676  0.58448472  1  0.103908  0.111723  2.5e-05  0.993235  0.0
H  H18  1  0.90208462  0.58497495  0.41532835  1  0.103745  0.111263  3e-05  0.991903  0.0
H  H19  1  0.20492826  0.29544404  0.62735791  1  0.09434  0.090339  -0.000232  1.016063  0.0
H  H20  1  0.79362641  0.70343643  0.37166358  1  0.094893  0.090475  0.000267  1.015599  0.0
H  H21  1  0.49788649  0.21677717  0.17078945  1  0.100098  0.104027  -0.001005  1.005436  -0.001
H  H22  1  0.50118315  0.78157812  0.82806643  1  0.099803  0.103982  0.000652  1.004998  0.001
H  H23  1  0.60109658  0.15867353  0.06717510  1  0.108908  0.117596  -0.000121  0.976578  0.0
H  H24  1  0.39822760  0.84071440  0.93151430  1  0.108796  0.11749  -5.5e-05  0.976691  0.0
H  H25  1  0.67814012  0.35083881  0.17785587  1  0.092955  0.089083  -0.000145  1.016796  0.0
H  H26  1  0.32048977  0.64833119  0.82112112  1  0.093069  0.088822  0.000201  1.017815  0.0
H  H27  1  0.72330633  0.24933102  0.37451394  1  0.339702  0.367399  -0.001215  0.869733  -0.001
H  H28  1  0.27486458  0.74822462  0.62401596  1  0.339388  0.365968  0.001264  0.871609  0.002
H  H29  1  0.93416933  0.10817432  0.56481089  1  0.304077  0.346677  -0.001559  0.980165  -0.002
H  H30  1  0.06434320  0.89052840  0.43404559  1  0.30417  0.34611  0.00167  0.98086  0.002
C  C31  1  0.21581343  0.03833299  0.32247339  1  0.22782  0.588459  0.001745  4.159539  0.002
C  C32  1  0.78407043  0.96239889  0.67807635  1  0.229325  0.593372  0.017805  4.156994  0.016
C  C33  1  0.36331026  0.02029781  0.41458887  1  -0.018358  -0.043617  0.003816  3.982266  0.003
C  C34  1  0.63627161  0.97994494  0.58567285  1  -0.019114  -0.045786  0.001628  3.981643  0.001
C  C35  1  0.45982328  0.97236510  0.35346951  1  -0.082659  -0.094175  -0.000579  3.975887  -0.001
C  C36  1  0.53971741  0.02779869  0.64673910  1  -0.08243  -0.092576  0.002806  3.97445  0.002
C  C37  1  0.40474504  0.04813597  0.56201059  1  -0.086317  -0.103859  0.000335  3.982532  0.0
C  C38  1  0.59468033  0.95182970  0.43816026  1  -0.087129  -0.104464  0.003619  3.983257  0.003
C  C39  1  0.99518182  0.30750629  0.17292744  1  0.216503  0.574474  0.004339  4.15745  0.006
C  C40  1  0.00711342  0.69482701  0.82995339  1  0.21672  0.574534  0.025188  4.158177  0.02
C  C41  1  0.99939135  0.40747699  0.08486336  1  -0.009841  -0.029487  0.005305  3.974902  0.004
C  C42  1  0.00310500  0.59465294  0.91787015  1  -0.009796  -0.028325  -0.001471  3.973985  -0.002
C  C43  1  0.91181052  0.34643475  0.93512245  1  -0.077221  -0.081545  -0.000925  3.952355  -0.001
C  C44  1  0.09071610  0.65566250  0.06758698  1  -0.078693  -0.085186  0.003498  3.956089  0.003
C  C45  1  0.08882834  0.56291538  0.15085433  1  -0.080482  -0.097157  0.000258  3.973774  0.0
C  C46  1  0.91379270  0.43920838  0.85188206  1  -0.08105  -0.099774  0.00457  3.97175  0.004
C  C47  1  0.74321144  0.80021314  0.09399506  1  0.226013  0.586668  -0.002091  4.184688  -0.001
C  C48  1  0.25681134  0.19913776  0.90479641  1  0.225671  0.586199  0.019308  4.184361  0.018
C  C49  1  0.61730483  0.64507623  0.04488160  1  -0.014899  -0.042359  0.002928  3.984887  0.002
C  C50  1  0.38258235  0.35433710  0.95336645  1  -0.014213  -0.041607  0.001055  3.98331  0.001
C  C51  1  0.60931296  0.52861811  0.93586440  1  -0.084705  -0.096413  -0.001265  3.974425  -0.001
C  C52  1  0.39048462  0.47082270  0.06225794  1  -0.08444  -0.097522  0.002612  3.975204  0.002
C  C53  1  0.50649950  0.61496324  0.10743825  1  -0.084723  -0.100055  -0.000529  3.980663  -0.001
C  C54  1  0.49330538  0.38443716  0.89071928  1  -0.084074  -0.100326  0.002932  3.979727  0.002
C  C55  1  0.09700308  0.31897630  0.62312305  1  -0.148358  -0.126157  -0.003999  3.898245  -0.003
C  C56  1  0.90151756  0.67971402  0.37616714  1  -0.148544  -0.12585  0.004165  3.895412  0.003
C  C57  1  0.61697191  0.23380863  0.16883293  1  -0.142568  -0.120976  -0.003542  3.891668  -0.003
C  C58  1  0.38216264  0.76518249  0.82997364  1  -0.142783  -0.121669  0.003752  3.892843  0.003
O  O59  1  0.10587210  0.03364049  0.37147435  1  -0.307855  -0.577919  -0.039003  2.359301  -0.019
O  O60  1  0.89318231  0.96565751  0.62830756  1  -0.308172  -0.580074  0.046851  2.356069  0.028
O  O61  1  0.20500432  0.05527629  0.20378981  1  -0.289191  -0.546034  0.031284  2.307711  0.016
O  O62  1  0.79555762  0.94721446  0.79746880  1  -0.289749  -0.548026  0.039857  2.305845  0.024
O  O63  1  0.92103256  0.16243685  0.10596419  1  -0.313409  -0.600808  -0.006822  2.387094  -0.012
O  O64  1  0.08104878  0.83967299  0.89659728  1  -0.312403  -0.600579  0.075046  2.382627  0.043
O  O65  1  0.05410183  0.35940408  0.30855933  1  -0.305108  -0.5451  -0.017029  2.12813  -0.007
O  O66  1  0.94780821  0.64258816  0.69413630  1  -0.306656  -0.546891  0.043395  2.128151  0.035
O  O67  1  0.84089793  0.82273382  0.03441470  1  -0.298473  -0.562848  0.032407  2.339815  0.016
O  O68  1  0.15973250  0.17697649  0.96495127  1  -0.298918  -0.563292  0.046751  2.337928  0.03
O  O69  1  0.74299176  0.89989930  0.19488283  1  -0.316006  -0.561749  -0.044456  2.33811  -0.025
O  O70  1  0.25676187  0.09927416  0.80388819  1  -0.316593  -0.561946  0.052831  2.336152  0.035
O  O71  1  0.71412563  0.19399073  0.28140950  1  -0.388367  -0.442445  -0.033929  2.481565  -0.022
O  O72  1  0.28553523  0.80514051  0.71717916  1  -0.387559  -0.440117  0.034124  2.482203  0.022
O  O73  1  0.95073391  0.19196329  0.52373121  1  -0.399683  -0.460843  -0.03946  2.465453  -0.023
O  O74  1  0.04784629  0.80679407  0.47518043  1  -0.399555  -0.46012  0.039865  2.464253  0.023
