# generated using pymatgen
data_HgH18C18S2(IN)2
_symmetry_space_group_name_H-M   'P 1'
_cell_length_a   15.51215532
_cell_length_b   16.53501449
_cell_length_c   16.53506353
_cell_angle_alpha   68.64748301
_cell_angle_beta   72.11724413
_cell_angle_gamma   72.11668677
_symmetry_Int_Tables_number   1
_chemical_formula_structural   HgH18C18S2(IN)2
_chemical_formula_sum   'Hg6 H108 C108 S12 I12 N12'
_cell_volume   3666.81832065
_cell_formula_units_Z   6
loop_
 _symmetry_equiv_pos_site_id
 _symmetry_equiv_pos_as_xyz
  1  'x, y, z'
loop_
 _atom_site_type_symbol
 _atom_site_label
 _atom_site_symmetry_multiplicity
 _atom_site_fract_x
 _atom_site_fract_y
 _atom_site_fract_z
 _atom_site_occupancy
 _atom_site_pbe_bader_charge
 _atom_site_pbe_bader_spin_density
 _atom_site_pbe_cm5_charge
 _atom_site_pbe_ddec_charge
 _atom_site_pbe_ddec_spin_density
 _atom_site_pbe_ddec_sum_bond_order
 _atom_site_pbe_magmom
Hg  Hg0  1  0.75000009  0.55701613  0.44298254  1  0.517753  0  0.390629  0.341701  0  2.811659  0
Hg  Hg1  1  0.24999936  0.44298213  0.55701743  1  0.517762  0  0.390651  0.341696  0  2.811574  0
Hg  Hg2  1  0.46474634  0.94927789  0.73400209  1  0.528506  0  0.398355  0.369707  0  2.727221  0
Hg  Hg3  1  0.03525527  0.26599669  0.05071930  1  0.528502  0  0.398332  0.369668  0  2.727356  0
Hg  Hg4  1  0.53525805  0.05072241  0.26599567  1  0.52858  0  0.398337  0.369668  0  2.727429  0
Hg  Hg5  1  0.96474324  0.73400556  0.94927949  1  0.528507  0  0.398372  0.369718  0  2.727293  0
H  H6  1  0.58805485  0.52692347  0.91470617  1  0.090309  0  0.102629  0.116599  0  1.014476  0
H  H7  1  0.91194432  0.08529550  0.47307729  1  0.090344  0  0.102629  0.116613  0  1.01444  0
H  H8  1  0.41194280  0.47307678  0.08529603  1  0.090144  0  0.102577  0.116544  0  1.014482  0
H  H9  1  0.08805510  0.91470276  0.52692027  1  0.090388  0  0.102597  0.116543  0  1.014362  0
H  H10  1  0.57642703  0.41501755  0.95112011  1  0.053791  0  0.09821  0.108312  0  1.021302  0
H  H11  1  0.92357338  0.04888104  0.58498240  1  0.053799  0  0.098196  0.108281  0  1.021349  0
H  H12  1  0.42357335  0.58498271  0.04888369  1  0.05377  0  0.098182  0.108298  0  1.021232  0
H  H13  1  0.07642959  0.95111925  0.41501094  1  0.053666  0  0.098178  0.10827  0  1.021346  0
H  H14  1  0.88578442  0.48591946  0.58367722  1  0.096447  0  0.095388  0.07189  0  1.046583  0
H  H15  1  0.61421271  0.41632791  0.51406989  1  0.09624  0  0.095378  0.071899  0  1.046703  0
H  H16  1  0.11421073  0.51407410  0.41632695  1  0.096246  0  0.095388  0.071907  0  1.046696  0
H  H17  1  0.38579007  0.58366770  0.48592884  1  0.096182  0  0.09539  0.071858  0  1.046672  0
H  H18  1  0.34412424  0.21518265  0.45294602  1  0.074741  0  0.101691  0.12032  0  1.00026  0
H  H19  1  0.15587498  0.54705276  0.78482097  1  0.074761  0  0.101681  0.120333  0  1.000295  0
H  H20  1  0.65587678  0.78482029  0.54704935  1  0.074755  0  0.101693  0.120317  0  1.000336  0
H  H21  1  0.84412043  0.45294814  0.21517682  1  0.074863  0  0.101718  0.120364  0  1.000337  0
H  H22  1  0.64473545  0.13725381  0.41018840  1  0.10417  0  0.100698  0.111827  0  1.034873  0
H  H23  1  0.85526148  0.58981481  0.86274494  1  0.104594  0  0.100696  0.1118  0  1.034773  0
H  H24  1  0.35526551  0.86274380  0.58981196  1  0.104244  0  0.100675  0.111793  0  1.034943  0
H  H25  1  0.14473459  0.41019209  0.13725469  1  0.104687  0  0.100684  0.1118  0  1.034876  0
H  H26  1  0.33808422  0.09138060  0.59579572  1  0.093349  0  0.09678  0.069407  0  1.037873  0
H  H27  1  0.16191814  0.40420181  0.90861589  1  0.093348  0  0.096773  0.069376  0  1.037896  0
H  H28  1  0.66191359  0.90862165  0.40420146  1  0.093398  0  0.096785  0.069401  0  1.037882  0
H  H29  1  0.83807950  0.59580111  0.09137989  1  0.093248  0  0.096751  0.069355  0  1.037867  0
H  H30  1  0.88485392  0.43453204  0.74531413  1  0.11735  0  0.093621  0.119992  0  1.028446  0
H  H31  1  0.61514088  0.25468697  0.56546591  1  0.117267  0  0.093622  0.119962  0  1.028476  0
H  H32  1  0.11514133  0.56546953  0.25468346  1  0.117333  0  0.093566  0.1199  0  1.028481  0
H  H33  1  0.38486210  0.74531065  0.43453203  1  0.117179  0  0.093592  0.119942  0  1.028514  0
H  H34  1  0.58330074  0.49701106  0.79623926  1  0.072182  0  0.10224  0.113143  0  1.040116  0
H  H35  1  0.91669292  0.20376155  0.50299212  1  0.072227  0  0.102261  0.113174  0  1.040157  0
H  H36  1  0.41669332  0.50298716  0.20376414  1  0.072277  0  0.102235  0.113168  0  1.040113  0
H  H37  1  0.08331208  0.79623608  0.49700521  1  0.072396  0  0.102271  0.113154  0  1.040055  0
H  H38  1  0.62455538  0.01800556  0.55428085  1  0.101787  0  0.099923  0.064641  0  1.040559  0
H  H39  1  0.87544625  0.44572426  0.98198944  1  0.101772  0  0.099959  0.064695  0  1.040643  0
H  H40  1  0.37544346  0.98199002  0.44572935  1  0.101789  0  0.09994  0.064682  0  1.040611  0
H  H41  1  0.12455063  0.55427931  0.01801298  1  0.101866  0  0.099932  0.064675  0  1.040746  0
H  H42  1  0.67007094  0.88051872  0.19693847  1  0.085392  0  0.09934  0.070258  0  1.032069  0
H  H43  1  0.82993227  0.80305947  0.11948277  1  0.085555  0  0.099336  0.070235  0  1.032093  0
H  H44  1  0.32993448  0.11948558  0.80305328  1  0.08536  0  0.099351  0.070239  0  1.032071  0
H  H45  1  0.17006895  0.19694547  0.88051120  1  0.085301  0  0.099354  0.070248  0  1.032062  0
H  H46  1  0.59828623  0.54606330  0.63301960  1  0.107375  0  0.098849  0.069317  0  1.052264  0
H  H47  1  0.90171368  0.36698054  0.45393772  1  0.107253  0  0.098782  0.069214  0  1.052229  0
H  H48  1  0.40171327  0.45392896  0.36698134  1  0.107477  0  0.098787  0.069202  0  1.052276  0
H  H49  1  0.09829081  0.63301910  0.54605601  1  0.107332  0  0.098807  0.069236  0  1.052266  0
H  H50  1  0.36755907  0.81692854  0.23811954  1  0.103233  0  0.106772  0.121291  0  0.986661  0
H  H51  1  0.13244236  0.76187955  0.18307201  1  0.10316  0  0.106759  0.121273  0  0.986754  0
H  H52  1  0.63243983  0.18307505  0.76188167  1  0.103272  0  0.106751  0.12125  0  0.986787  0
H  H53  1  0.86755681  0.23812271  0.81692597  1  0.103154  0  0.10679  0.121307  0  0.986696  0
H  H54  1  0.66337908  0.64961732  0.11028496  1  0.09297  0  0.089061  0.101449  0  1.05082  0
H  H55  1  0.83662047  0.88971381  0.35038460  1  0.092996  0  0.08906  0.101463  0  1.050816  0
H  H56  1  0.33662224  0.35038162  0.88971480  1  0.093004  0  0.089025  0.101385  0  1.050838  0
H  H57  1  0.16337801  0.11028577  0.64961638  1  0.092981  0  0.089019  0.1014  0  1.050891  0
H  H58  1  0.65251720  0.58933635  0.22552528  1  0.065221  0  0.097146  0.113977  0  1.006126  0
H  H59  1  0.84747549  0.77447376  0.41066747  1  0.065149  0  0.097148  0.114054  0  1.005982  0
H  H60  1  0.34748315  0.41066392  0.77447550  1  0.065288  0  0.09714  0.113956  0  1.006093  0
H  H61  1  0.15252114  0.22552514  0.58933733  1  0.065216  0  0.097105  0.113893  0  1.006099  0
H  H62  1  0.58142297  0.38891483  0.36210789  1  0.044798  0  0.080122  0.115239  0  1.062505  0
H  H63  1  0.91858133  0.63788532  0.61108771  1  0.044683  0  0.080073  0.115186  0  1.062443  0
H  H64  1  0.41858470  0.61108614  0.63789348  1  0.044815  0  0.080091  0.115167  0  1.062493  0
H  H65  1  0.08142048  0.36211162  0.38891385  1  0.044749  0  0.080093  0.115202  0  1.062441  0
H  H66  1  0.57032246  0.50475440  0.32639007  1  0.0576  0  0.076761  0.11133  0  1.06739  0
H  H67  1  0.92967816  0.67360758  0.49524711  1  0.057619  0  0.076773  0.111355  0  1.067351  0
H  H68  1  0.42968525  0.49524058  0.67361167  1  0.05746  0  0.076742  0.1113  0  1.067423  0
H  H69  1  0.07032218  0.32639269  0.50475246  1  0.057596  0  0.076768  0.111358  0  1.067415  0
H  H70  1  0.68201586  0.43371749  0.32128752  1  0.033275  0  0.087255  0.131309  0  0.997987  0
H  H71  1  0.81798656  0.67871239  0.56628600  1  0.033296  0  0.087278  0.131391  0  0.997994  0
H  H72  1  0.31799293  0.56628149  0.67871182  1  0.033067  0  0.087265  0.131332  0  0.997885  0
H  H73  1  0.18201290  0.32128587  0.43371518  1  0.033329  0  0.087266  0.13135  0  0.997981  0
H  H74  1  0.62396516  0.67131010  0.00491856  1  0.054488  0  0.080851  0.127533  0  1.053936  0
H  H75  1  0.87603069  0.99508339  0.32868922  1  0.054716  0  0.080892  0.127593  0  1.053883  0
H  H76  1  0.37603437  0.32868816  0.99508864  1  0.054701  0  0.080844  0.127563  0  1.054016  0
H  H77  1  0.12396617  0.00491152  0.67131334  1  0.054666  0  0.080836  0.127562  0  1.05402  0
H  H78  1  0.55866704  0.63789530  0.95782376  1  0.042577  0  0.090686  0.134185  0  1.015763  0
H  H79  1  0.94132961  0.04217435  0.36210714  1  0.042676  0  0.090658  0.134127  0  1.015767  0
H  H80  1  0.44133038  0.36210028  0.04218202  1  0.042482  0  0.090625  0.134133  0  1.015849  0
H  H81  1  0.05866982  0.95782124  0.63789683  1  0.042533  0  0.090638  0.134112  0  1.015899  0
H  H82  1  0.68091672  0.60720750  0.93081155  1  0.040031  0  0.084824  0.124983  0  1.018597  0
H  H83  1  0.81908001  0.06918907  0.39279361  1  0.040045  0  0.0848  0.124968  0  1.018619  0
H  H84  1  0.31908364  0.39279276  0.06919044  1  0.040011  0  0.084805  0.124962  0  1.018622  0
H  H85  1  0.18091641  0.93081051  0.60720617  1  0.040099  0  0.084808  0.124962  0  1.018643  0
H  H86  1  0.61173453  0.29866227  0.02915593  1  0.033354  0  0.086507  0.12717  0  1.024695  0
H  H87  1  0.88826600  0.97084909  0.70133237  1  0.03318  0  0.086487  0.127127  0  1.024681  0
H  H88  1  0.38826060  0.70133729  0.97084968  1  0.033249  0  0.086483  0.127133  0  1.02465  0
H  H89  1  0.11173405  0.02915517  0.29866462  1  0.033266  0  0.086483  0.127126  0  1.024702  0
H  H90  1  0.55766077  0.25803640  0.14272863  1  0.06453  0  0.078458  0.114896  0  1.054737  0
H  H91  1  0.94234055  0.85727404  0.74196386  1  0.063984  0  0.078462  0.114904  0  1.054738  0
H  H92  1  0.44233396  0.74196782  0.85727721  1  0.063972  0  0.078477  0.114937  0  1.054728  0
H  H93  1  0.05766057  0.14272557  0.25803149  1  0.064216  0  0.078431  0.114861  0  1.054768  0
H  H94  1  0.67991926  0.23810852  0.10864323  1  0.077343  0  0.076964  0.128209  0  1.047391  0
H  H95  1  0.82007963  0.89135857  0.76188255  1  0.077339  0  0.076942  0.128157  0  1.047454  0
H  H96  1  0.32007487  0.76189237  0.89136098  1  0.077379  0  0.076942  0.128153  0  1.047398  0
H  H97  1  0.17992141  0.10864437  0.23811402  1  0.077298  0  0.076933  0.128148  0  1.047434  0
H  H98  1  0.38331171  0.95452490  0.25628013  1  0.112523  0  0.096387  0.061926  0  1.058875  0
H  H99  1  0.11669153  0.74372190  0.04547158  1  0.112492  0  0.096386  0.061916  0  1.058765  0
H  H100  1  0.61668969  0.04547671  0.74372046  1  0.112556  0  0.096393  0.061943  0  1.058812  0
H  H101  1  0.88330903  0.25628304  0.95452441  1  0.112503  0  0.09637  0.061889  0  1.05878  0
H  H102  1  0.66895089  0.74026689  0.17495896  1  0.107798  0  0.097733  0.108695  0  1.041125  0
H  H103  1  0.83105284  0.82504005  0.25973256  1  0.108048  0  0.097726  0.10869  0  1.041112  0
H  H104  1  0.33104608  0.25973603  0.82503822  1  0.108029  0  0.097706  0.10867  0  1.041129  0
H  H105  1  0.16894797  0.17496089  0.74026240  1  0.107992  0  0.097705  0.108623  0  1.041124  0
H  H106  1  0.65032237  0.27844203  0.32443196  1  0.068245  0  0.100253  0.121727  0  0.987804  0
H  H107  1  0.84967987  0.67556815  0.72155970  1  0.06834  0  0.100245  0.121677  0  0.987856  0
H  H108  1  0.34968083  0.72155759  0.67556761  1  0.068273  0  0.100231  0.121665  0  0.987848  0
H  H109  1  0.15031945  0.32443078  0.27844248  1  0.06832  0  0.100256  0.121726  0  0.987866  0
H  H110  1  0.65105423  0.22419313  0.24872444  1  0.102468  0  0.085064  0.108153  0  1.046934  0
H  H111  1  0.84894464  0.75127649  0.77580741  1  0.120501  0  0.08506  0.10816  0  1.04697  0
H  H112  1  0.34895045  0.77580316  0.75127650  1  0.120327  0  0.085062  0.108182  0  1.04696  0
H  H113  1  0.15105351  0.24872443  0.22419198  1  0.120521  0  0.085083  0.108186  0  1.046925  0
C  C114  1  0.49544191  0.18861596  0.41980431  1  -0.169872  0  0.000284  0.088075  0  4.069486  0
C  C115  1  0.00455743  0.58019578  0.81138904  1  -0.170011  0  0.000245  0.087948  0  4.069657  0
C  C116  1  0.50456092  0.81139099  0.58019269  1  -0.1701  0  0.000287  0.088038  0  4.069519  0
C  C117  1  0.99544342  0.41980516  0.18860953  1  -0.170291  0  0.000283  0.088055  0  4.069589  0
C  C118  1  0.61627526  0.36879619  0.20008923  1  -0.019257  0  -0.027362  -0.000967  0  3.933044  0
C  C119  1  0.88372650  0.79991143  0.63120480  1  -0.019504  0  -0.027346  -0.00086  0  3.933017  0
C  C120  1  0.38373560  0.63120280  0.79991313  1  -0.01927  0  -0.027351  -0.000934  0  3.933098  0
C  C121  1  0.11627316  0.20008883  0.36879437  1  -0.019412  0  -0.027317  -0.000771  0  3.93296  0
C  C122  1  0.61508712  0.37205919  0.11392031  1  0.011241  0  -0.013745  0.079413  0  3.938564  0
C  C123  1  0.88491651  0.88607938  0.62793748  1  0.011082  0  -0.013798  0.07928  0  3.938918  0
C  C124  1  0.38491372  0.62793908  0.88608287  1  0.011022  0  -0.013794  0.079322  0  3.938852  0
C  C125  1  0.11508376  0.11391822  0.37206188  1  0.010958  0  -0.013827  0.07923  0  3.938792  0
C  C126  1  0.61602717  0.45892536  0.95251197  1  -0.110593  0  -0.145406  -0.217392  0  3.926876  0
C  C127  1  0.88397406  0.04748924  0.54107480  1  -0.110586  0  -0.145361  -0.217296  0  3.926675  0
C  C128  1  0.38396764  0.54107553  0.04749325  1  -0.110436  0  -0.145279  -0.217282  0  3.926797  0
C  C129  1  0.11602675  0.95251170  0.45892076  1  -0.110524  0  -0.145287  -0.217227  0  3.926763  0
C  C130  1  0.61873334  0.53061613  0.06156907  1  -0.012508  0  -0.012815  0.073751  0  3.940718  0
C  C131  1  0.88126219  0.93843134  0.46938544  1  -0.012324  0  -0.012772  0.073786  0  3.940604  0
C  C132  1  0.38126745  0.46937947  0.93843449  1  -0.012436  0  -0.012761  0.073775  0  3.940725  0
C  C133  1  0.11873326  0.06156956  0.53061535  1  -0.012443  0  -0.01275  0.073767  0  3.940599  0
C  C134  1  0.82033021  0.48684785  0.63344527  1  0.431326  0  0.034196  0.096762  0  3.965208  0
C  C135  1  0.67966757  0.36655935  0.51314797  1  0.431464  0  0.034236  0.096742  0  3.965431  0
C  C136  1  0.17966782  0.51314506  0.36655889  1  0.431442  0  0.034204  0.096663  0  3.965381  0
C  C137  1  0.32033405  0.63343826  0.48684978  1  0.431737  0  0.034276  0.096878  0  3.965378  0
C  C138  1  0.61572517  0.44574230  0.21825342  1  -0.035131  0  -0.012608  0.078287  0  3.931443  0
C  C139  1  0.88427429  0.78174270  0.55426143  1  -0.034949  0  -0.012659  0.078268  0  3.931326  0
C  C140  1  0.38427635  0.55425597  0.78174896  1  -0.034906  0  -0.012618  0.078255  0  3.931266  0
C  C141  1  0.11572399  0.21825488  0.44574155  1  -0.035035  0  -0.012643  0.078179  0  3.931494  0
C  C142  1  0.61950573  0.52600046  0.14809842  1  -0.005384  0  -0.026624  -0.008179  0  3.933142  0
C  C143  1  0.88049245  0.85190097  0.47399996  1  -0.005401  0  -0.026609  -0.008214  0  3.933103  0
C  C144  1  0.38049712  0.47399782  0.85190234  1  -0.005423  0  -0.026602  -0.00813  0  3.933142  0
C  C145  1  0.11950751  0.14809796  0.52599900  1  -0.005388  0  -0.026624  -0.008207  0  3.933294  0
C  C146  1  0.40809975  0.17349106  0.47322816  1  0.041028  0  -0.096795  -0.183453  0  3.983199  0
C  C147  1  0.09190114  0.52677419  0.82651086  1  0.041139  0  -0.096798  -0.183477  0  3.983326  0
C  C148  1  0.59190253  0.82651255  0.52677203  1  0.041235  0  -0.096798  -0.183435  0  3.983402  0
C  C149  1  0.90809533  0.47322805  0.17348854  1  0.04103  0  -0.096802  -0.183495  0  3.983356  0
C  C150  1  0.61529118  0.45341806  0.04557287  1  -0.061266  0  -0.028246  -0.016343  0  3.95108  0
C  C151  1  0.88470742  0.95442510  0.54658401  1  -0.061404  0  -0.028264  -0.016355  0  3.951146  0
C  C152  1  0.38470892  0.54657754  0.95442969  1  -0.061203  0  -0.028362  -0.016421  0  3.951156  0
C  C153  1  0.11529049  0.04557115  0.45341837  1  -0.06117  0  -0.028289  -0.016344  0  3.951257  0
C  C154  1  0.57506558  0.13105974  0.44901011  1  -0.063542  0  -0.100304  -0.195585  0  3.978631  0
C  C155  1  0.92493216  0.55099055  0.86894266  1  -0.063853  0  -0.10026  -0.195375  0  3.978649  0
C  C156  1  0.42493295  0.86894251  0.55099049  1  -0.063257  0  -0.100276  -0.195497  0  3.978895  0
C  C157  1  0.07506334  0.44901301  0.13105775  1  -0.063304  0  -0.100239  -0.195412  0  3.978815  0
C  C158  1  0.40440395  0.10482790  0.55223331  1  0.450377  0  0.031674  0.091812  0  3.979681  0
C  C159  1  0.09559757  0.44776607  0.89516974  1  0.450194  0  0.031701  0.091866  0  3.97946  0
C  C160  1  0.59559554  0.89517303  0.44776567  1  0.449959  0  0.031646  0.091814  0  3.979551  0
C  C161  1  0.90440018  0.55223351  0.10482722  1  0.44989  0  0.031702  0.091847  0  3.97947  0
C  C162  1  0.81953313  0.45825499  0.72341291  1  0.004823  0  -0.098755  -0.18431  0  3.955265  0
C  C163  1  0.68046165  0.27659008  0.54174427  1  0.004811  0  -0.098757  -0.184298  0  3.955368  0
C  C164  1  0.18046135  0.54173857  0.27659207  1  0.004429  0  -0.098765  -0.184267  0  3.955232  0
C  C165  1  0.31954387  0.72340823  0.45825206  1  0.004784  0  -0.098811  -0.184385  0  3.955253  0
C  C166  1  0.65219288  0.49311585  0.75262779  1  0.031809  0  -0.097796  -0.18902  0  3.96945  0
C  C167  1  0.84780601  0.24737296  0.50688517  1  0.031752  0  -0.097781  -0.188951  0  3.969572  0
C  C168  1  0.34780549  0.50687841  0.24737397  1  0.032033  0  -0.097814  -0.189047  0  3.969567  0
C  C169  1  0.15220031  0.75262468  0.49310875  1  0.031233  0  -0.097776  -0.188838  0  3.969547  0
C  C170  1  0.56414084  0.06376693  0.52946373  1  0.501686  0  0.036115  0.095569  0  3.981863  0
C  C171  1  0.93585812  0.47053470  0.93623077  1  0.501531  0  0.036031  0.095375  0  3.982183  0
C  C172  1  0.43585492  0.93623264  0.47053746  1  0.501403  0  0.036167  0.095599  0  3.981788  0
C  C173  1  0.06414024  0.52946822  0.06376903  1  0.500677  0  0.036  0.095337  0  3.982451  0
C  C174  1  0.60454359  0.86334613  0.20519294  1  0.501393  0  0.038468  0.098562  0  3.973515  0
C  C175  1  0.89545863  0.79480664  0.13665281  1  0.501542  0  0.038452  0.098548  0  3.973719  0
C  C176  1  0.39545757  0.13665615  0.79480082  1  0.501643  0  0.038538  0.098626  0  3.973783  0
C  C177  1  0.10454307  0.20519630  0.86334236  1  0.501571  0  0.038475  0.098611  0  3.973511  0
C  C178  1  0.66002496  0.52042387  0.66109533  1  0.473063  0  0.036158  0.090911  0  3.984743  0
C  C179  1  0.83997138  0.33890255  0.47958226  1  0.47257  0  0.036147  0.090854  0  3.984627  0
C  C180  1  0.33997130  0.47957637  0.33890365  1  0.472389  0  0.036135  0.09085  0  3.984795  0
C  C181  1  0.16003209  0.66109574  0.52041287  1  0.472363  0  0.036076  0.090726  0  3.984685  0
C  C182  1  0.43636004  0.82820708  0.22778965  1  -0.017105  0  -0.094532  -0.182945  0  3.962113  0
C  C183  1  0.06364336  0.77220792  0.17179405  1  -0.017494  0  -0.094549  -0.182928  0  3.962171  0
C  C184  1  0.56364140  0.17179719  0.77220994  1  -0.017693  0  -0.094604  -0.183006  0  3.962172  0
C  C185  1  0.93635815  0.22779302  0.82820371  1  -0.017651  0  -0.094578  -0.182949  0  3.96228  0
C  C186  1  0.51737733  0.76598140  0.20434957  1  -0.173439  0  0.00367  0.098397  0  4.04824  0
C  C187  1  0.98262666  0.79565178  0.23401882  1  -0.172887  0  0.003608  0.098179  0  4.048289  0
C  C188  1  0.48262027  0.23402484  0.79565166  1  -0.172954  0  0.003618  0.09829  0  4.048334  0
C  C189  1  0.01737318  0.20435048  0.76597836  1  -0.172682  0  0.003591  0.098162  0  4.048463  0
C  C190  1  0.62282806  0.60715867  0.16742304  1  -0.139197  0  -0.146724  -0.212428  0  3.916832  0
C  C191  1  0.87716935  0.83257616  0.39284315  1  -0.139137  0  -0.14671  -0.212543  0  3.916765  0
C  C192  1  0.37717382  0.39284094  0.83257934  1  -0.139245  0  -0.146655  -0.212317  0  3.916772  0
C  C193  1  0.12282756  0.16742142  0.60715843  1  -0.139209  0  -0.146605  -0.212255  0  3.916767  0
C  C194  1  0.61212709  0.44298733  0.31132530  1  -0.073841  0  -0.250547  -0.416718  0  3.97298  0
C  C195  1  0.88787229  0.68867121  0.55701543  1  -0.073929  0  -0.250483  -0.416693  0  3.972909  0
C  C196  1  0.38788187  0.55701099  0.68867605  1  -0.073522  0  -0.250503  -0.416655  0  3.972894  0
C  C197  1  0.11212652  0.31132704  0.44298776  1  -0.073897  0  -0.250501  -0.416682  0  3.972937  0
C  C198  1  0.73366532  0.46176265  0.78542459  1  -0.213433  0  0.003516  0.089958  0  4.053599  0
C  C199  1  0.76632817  0.21457785  0.53823892  1  -0.213133  0  0.003511  0.089903  0  4.053715  0
C  C200  1  0.26632800  0.53823290  0.21457879  1  -0.213146  0  0.003579  0.089999  0  4.053705  0
C  C201  1  0.23367487  0.78542243  0.46175984  1  -0.212773  0  0.003518  0.089793  0  4.053739  0
C  C202  1  0.62074183  0.61583863  0.98583738  1  -0.077786  0  -0.249128  -0.420264  0  3.975279  0
C  C203  1  0.87925263  0.01416402  0.38416131  1  -0.07818  0  -0.249153  -0.42028  0  3.975211  0
C  C204  1  0.37925692  0.38415696  0.01416619  1  -0.077982  0  -0.249094  -0.420249  0  3.975468  0
C  C205  1  0.12074365  0.98583354  0.61584469  1  -0.078027  0  -0.249127  -0.420237  0  3.975362  0
C  C206  1  0.61566309  0.28826340  0.09724965  1  -0.109299  0  -0.252837  -0.419479  0  3.968214  0
C  C207  1  0.88434008  0.90275293  0.71173321  1  -0.108569  0  -0.252807  -0.419373  0  3.968085  0
C  C208  1  0.38433672  0.71173352  0.90275433  1  -0.10867  0  -0.252769  -0.419386  0  3.96807  0
C  C209  1  0.11565993  0.09724867  0.28826537  1  -0.10885  0  -0.25273  -0.419283  0  3.968102  0
C  C210  1  0.44465546  0.90477569  0.23828994  1  0.440669  0  0.034644  0.090721  0  3.982527  0
C  C211  1  0.05534524  0.76171149  0.09522424  1  0.440674  0  0.034659  0.090744  0  3.982316  0
C  C212  1  0.55534545  0.09522791  0.76170885  1  0.439664  0  0.034661  0.090742  0  3.982406  0
C  C213  1  0.94465479  0.23829278  0.90477094  1  0.440174  0  0.034683  0.090795  0  3.982442  0
C  C214  1  0.60337947  0.78487407  0.19315056  1  -0.0013  0  -0.100338  -0.187144  0  3.986699  0
C  C215  1  0.89662137  0.80684559  0.21512528  1  -0.001831  0  -0.100259  -0.187004  0  3.986573  0
C  C216  1  0.39661973  0.21513086  0.80684523  1  -0.001806  0  -0.100297  -0.187076  0  3.986669  0
C  C217  1  0.10337662  0.19315866  0.78486990  1  -0.001822  0  -0.100275  -0.18702  0  3.986676  0
C  C218  1  0.61637453  0.28187917  0.27371084  1  -0.144888  0  -0.150201  -0.21371  0  3.895233  0
C  C219  1  0.88362694  0.72629134  0.71812595  1  -0.162715  0  -0.150209  -0.213739  0  3.895302  0
C  C220  1  0.38362990  0.71812112  0.72629054  1  -0.16266  0  -0.150192  -0.213683  0  3.895339  0
C  C221  1  0.11637396  0.27370959  0.28187685  1  -0.162743  0  -0.150249  -0.213816  0  3.895328  0
S  S222  1  0.73697047  0.42722999  0.89740108  1  0.106892  0  0.043191  0.043865  0  2.730257  0
S  S223  1  0.76302767  0.10260002  0.57276851  1  0.106898  0  0.043162  0.043852  0  2.730149  0
S  S224  1  0.26302866  0.57276693  0.10260310  1  0.10698  0  0.043172  0.043879  0  2.730499  0
S  S225  1  0.23697370  0.89740159  0.42722967  1  0.106841  0  0.043161  0.043883  0  2.73021  0
S  S226  1  0.49474046  0.27818426  0.32364060  1  0.120221  0  0.031171  0.031951  0  2.815808  0
S  S227  1  0.00526290  0.67636254  0.72181844  1  0.120326  0  0.031214  0.032002  0  2.815762  0
S  S228  1  0.50526509  0.72181404  0.67635875  1  0.119986  0  0.031164  0.03191  0  2.815686  0
S  S229  1  0.99473796  0.32363840  0.27818134  1  0.120335  0  0.031168  0.031924  0  2.815679  0
S  S230  1  0.50388086  0.67077089  0.19165090  1  0.089806  0  0.018239  0.017401  0  2.671601  0
S  S231  1  0.99611729  0.80834589  0.32923207  1  0.089843  0  0.018267  0.017526  0  2.671722  0
S  S232  1  0.49612003  0.32923004  0.80835129  1  0.089714  0  0.018307  0.017498  0  2.671632  0
S  S233  1  0.00388219  0.19165504  0.67076570  1  0.089624  0  0.018263  0.017511  0  2.671667  0
I  I234  1  0.27883061  0.96069931  0.77929929  1  -0.345656  0  -0.169476  -0.304186  0  1.432959  0
I  I235  1  0.22116880  0.22069893  0.03930335  1  -0.345675  0  -0.169498  -0.304216  0  1.432959  0
I  I236  1  0.72116701  0.03930094  0.22070049  1  -0.345643  0  -0.169472  -0.304184  0  1.433089  0
I  I237  1  0.77883021  0.77930132  0.96069904  1  -0.345687  0  -0.169496  -0.304204  0  1.432982  0
I  I238  1  0.92714977  0.56611291  0.36354332  1  -0.334095  0  -0.168683  -0.303309  0  1.551117  0
I  I239  1  0.57285250  0.63645570  0.43388403  1  -0.334047  0  -0.16868  -0.303278  0  1.551124  0
I  I240  1  0.07285171  0.43388536  0.63645664  1  -0.33407  0  -0.16868  -0.303284  0  1.551128  0
I  I241  1  0.42715107  0.36354525  0.56611494  1  -0.334109  0  -0.16869  -0.303313  0  1.551072  0
I  I242  1  0.63582467  0.84726387  0.74531046  1  -0.334468  0  -0.191439  -0.314312  0  1.462987  0
I  I243  1  0.86418238  0.25468314  0.15273159  1  -0.334553  0  -0.191437  -0.314272  0  1.462985  0
I  I244  1  0.36418555  0.15273779  0.25469050  1  -0.334513  0  -0.191431  -0.314263  0  1.46298  0
I  I245  1  0.13581897  0.74531579  0.84726998  1  -0.334533  0  -0.191452  -0.314301  0  1.462937  0
N  N246  1  0.74197781  0.51833076  0.60234375  1  -1.2004  0  -0.326866  -0.208441  0  3.510965  0
N  N247  1  0.75801727  0.39765899  0.48166984  1  -1.199943  0  -0.326849  -0.208299  0  3.510854  0
N  N248  1  0.25801897  0.48166748  0.39766004  1  -1.200047  0  -0.326735  -0.208138  0  3.510749  0
N  N249  1  0.24198707  0.60234131  0.51832370  1  -1.19988  0  -0.326807  -0.208239  0  3.511093  0
N  N250  1  0.48084660  0.05073862  0.58071578  1  -1.224031  0  -0.324029  -0.20865  0  3.499455  0
N  N251  1  0.01915255  0.41928027  0.94925796  1  -1.223919  0  -0.32401  -0.208582  0  3.499292  0
N  N252  1  0.51915017  0.94926229  0.41928220  1  -1.223617  0  -0.324057  -0.20869  0  3.499041  0
N  N253  1  0.98084573  0.58071999  0.05073921  1  -1.223087  0  -0.323988  -0.208526  0  3.499416  0
N  N254  1  0.52727803  0.92246024  0.22727985  1  -1.222645  0  -0.323924  -0.206964  0  3.500859  0
N  N255  1  0.97272132  0.77272424  0.07753800  1  -1.222521  0  -0.32393  -0.206943  0  3.500865  0
N  N256  1  0.47271967  0.07754535  0.77271615  1  -1.221306  0  -0.323948  -0.206955  0  3.501042  0
N  N257  1  0.02727758  0.22728202  0.92245800  1  -1.22171  0  -0.323922  -0.206982  0  3.50078  0
