# generated using pymatgen
data_Rb2H6C12N18O
_symmetry_space_group_name_H-M   'P 1'
_cell_length_a   4.96866577
_cell_length_b   10.38147755
_cell_length_c   21.07471866
_cell_angle_alpha   82.88267246
_cell_angle_beta   83.22384392
_cell_angle_gamma   76.11684219
_symmetry_Int_Tables_number   1
_chemical_formula_structural   Rb2H6C12N18O
_chemical_formula_sum   'Rb4 H12 C24 N36 O2'
_cell_volume   1042.78479777
_cell_formula_units_Z   2
loop_
 _symmetry_equiv_pos_site_id
 _symmetry_equiv_pos_as_xyz
  1  'x, y, z'
loop_
 _atom_site_type_symbol
 _atom_site_label
 _atom_site_symmetry_multiplicity
 _atom_site_fract_x
 _atom_site_fract_y
 _atom_site_fract_z
 _atom_site_occupancy
 _atom_site_hle17_bader_spin_density
 _atom_site_hle17_ddec_charge
 _atom_site_hle17_ddec_spin_density
 _atom_site_hle17_ddec_sum_bond_order
 _atom_site_hle17_magmom
 _atom_site_hse06_10hf_bader_spin_density
 _atom_site_hse06_10hf_ddec_charge
 _atom_site_hse06_10hf_ddec_spin_density
 _atom_site_hse06_10hf_ddec_sum_bond_order
 _atom_site_hse06_10hf_magmom
 _atom_site_hse06_bader_spin_density
 _atom_site_hse06_ddec_charge
 _atom_site_hse06_ddec_spin_density
 _atom_site_hse06_ddec_sum_bond_order
 _atom_site_hse06_magmom
 _atom_site_pbe_bader_spin_density
 _atom_site_pbe_cm5_charge
 _atom_site_pbe_ddec_charge
 _atom_site_pbe_ddec_spin_density
 _atom_site_pbe_ddec_sum_bond_order
 _atom_site_pbe_magmom
Rb  Rb0  1  0.06557189  0.46803893  0.71380940  1  0  0.924723  0  0.47634  0  0  0.867857  0  0.687606  0  0  0.880187  0  0.667897  0  0  0.812818  0.858861  0  0.701476  0
Rb  Rb1  1  0.24693025  0.03231014  0.78608477  1  0  0.924781  0  0.476992  0  0  0.867834  0  0.688621  0  0  0.880174  0  0.668921  0  0  0.81357  0.858907  0  0.702469  0
Rb  Rb2  1  0.93444335  0.53196030  0.28618977  1  0  0.924736  0  0.476323  0  0  0.867883  0  0.687576  0  0  0.880212  0  0.667871  0  0  0.812811  0.858891  0  0.701446  0
Rb  Rb3  1  0.75306874  0.96768809  0.21391492  1  0  0.924785  0  0.476988  0  0  0.867837  0  0.688623  0  0  0.880177  0  0.668924  0  0  0.81358  0.858907  0  0.702471  0
H  H4  1  0.12868300  0.35232384  0.43837425  1  0  0.34853  0  0.903834  0  0  0.321081  0  0.97752  0  0  0.332081  0  0.967255  0  0  0.315012  0.313393  0  0.984769  0
H  H5  1  0.91972335  0.14747979  0.06161173  1  0  0.345517  0  0.90554  0  0  0.318242  0  0.978876  0  0  0.329102  0  0.968854  0  0  0.31384  0.310525  0  0.986223  0
H  H6  1  0.87130669  0.64767640  0.56162558  1  0  0.348521  0  0.903816  0  0  0.321063  0  0.977528  0  0  0.332063  0  0.967264  0  0  0.315009  0.313377  0  0.984778  0
H  H7  1  0.08028298  0.85251644  0.93838581  1  0  0.345541  0  0.905554  0  0  0.318309  0  0.978861  0  0  0.329169  0  0.968839  0  0  0.31388  0.310588  0  0.986212  0
H  H8  1  0.82895537  0.10094347  0.51280484  1  0  0.316936  0  0.924158  0  0  0.283551  0  1.005706  0  0  0.29425  0  0.997334  0  0  0.308236  0.276094  0  1.011561  0
H  H9  1  0.44228324  0.39901458  0.98710181  1  0  0.316752  0  0.924489  0  0  0.283973  0  1.005006  0  0  0.294556  0  0.996824  0  0  0.308428  0.276648  0  1.010572  0
H  H10  1  0.17103536  0.89905977  0.48719638  1  0  0.316918  0  0.924227  0  0  0.283546  0  1.005749  0  0  0.294261  0  0.997348  0  0  0.308226  0.27609  0  1.011604  0
H  H11  1  0.55771928  0.60098864  0.01289782  1  0  0.316774  0  0.924424  0  0  0.283994  0  1.004965  0  0  0.29458  0  0.996776  0  0  0.308447  0.276657  0  1.010554  0
H  H12  1  0.66332868  0.23485396  0.71433361  1  0  0.407084  0  0.902748  0  0  0.380015  0  0.961634  0  0  0.389727  0  0.947403  0  0  0.288444  0.3732  0  0.971608  0
H  H13  1  0.61240292  0.26513850  0.78562660  1  0  0.40785  0  0.90156  0  0  0.380306  0  0.961088  0  0  0.390043  0  0.946818  0  0  0.288472  0.373483  0  0.971056  0
H  H14  1  0.33667032  0.76514429  0.28566804  1  0  0.407098  0  0.902741  0  0  0.380036  0  0.961613  0  0  0.389747  0  0.947384  0  0  0.288449  0.373223  0  0.971584  0
H  H15  1  0.38759512  0.73486174  0.21437495  1  0  0.407871  0  0.901536  0  0  0.380334  0  0.961053  0  0  0.39007  0  0.946785  0  0  0.288488  0.37351  0  0.971022  0
C  C16  1  0.47778933  0.23792443  0.48335104  1  0  0.665135  0  3.80461  0  0  0.594906  0  4.101013  0  0  0.627143  0  4.102965  0  0  0.386676  0.573734  0  4.098607  0
C  C17  1  0.19922761  0.26180548  0.01659491  1  0  0.666066  0  3.805031  0  0  0.597713  0  4.098174  0  0  0.629932  0  4.100117  0  0  0.388499  0.575953  0  4.096504  0
C  C18  1  0.52219795  0.76207880  0.51664960  1  0  0.665196  0  3.804463  0  0  0.594947  0  4.100865  0  0  0.627183  0  4.102821  0  0  0.386749  0.573778  0  4.09846  0
C  C19  1  0.80077784  0.73819674  0.98340240  1  0  0.666119  0  3.804931  0  0  0.597668  0  4.098243  0  0  0.629877  0  4.100206  0  0  0.388512  0.575913  0  4.096566  0
C  C20  1  0.32582452  0.18896629  0.38710826  1  0  0.64677  0  3.808191  0  0  0.595656  0  4.097321  0  0  0.627234  0  4.09858  0  0  0.369699  0.574566  0  4.095722  0
C  C21  1  0.90225142  0.31066728  0.11290513  1  0  0.646657  0  3.809999  0  0  0.59476  0  4.099815  0  0  0.626329  0  4.101117  0  0  0.3696  0.573628  0  4.098272  0
C  C22  1  0.67417156  0.81103394  0.61289128  1  0  0.646652  0  3.808355  0  0  0.595606  0  4.097392  0  0  0.627186  0  4.098659  0  0  0.369707  0.574518  0  4.095792  0
C  C23  1  0.09775300  0.68933195  0.88709469  1  0  0.646636  0  3.81003  0  0  0.594782  0  4.099843  0  0  0.626354  0  4.101139  0  0  0.369632  0.573645  0  4.098306  0
C  C24  1  0.71342881  0.04948480  0.42743008  1  0  0.641724  0  3.845794  0  0  0.580556  0  4.14608  0  0  0.611901  0  4.148917  0  0  0.361735  0.559853  0  4.143247  0
C  C25  1  0.19050636  0.45009539  0.07258208  1  0  0.644636  0  3.840473  0  0  0.582561  0  4.14202  0  0  0.613833  0  4.14483  0  0  0.361817  0.561506  0  4.139685  0
C  C26  1  0.28656680  0.95051644  0.57257136  1  0  0.641823  0  3.845746  0  0  0.580645  0  4.146027  0  0  0.611988  0  4.148868  0  0  0.361741  0.559939  0  4.143199  0
C  C27  1  0.80949853  0.54990284  0.92741584  1  0  0.644593  0  3.840435  0  0  0.582495  0  4.14203  0  0  0.613769  0  4.144838  0  0  0.361784  0.561439  0  4.139693  0
C  C28  1  0.29468546  0.41285971  0.54633448  1  0  0.515237  0  3.973272  0  0  0.482043  0  4.26053  0  0  0.506908  0  4.271567  0  0  0.305241  0.465369  0  4.252442  0
C  C29  1  0.25381554  0.08703568  0.95356237  1  0  0.515173  0  3.972404  0  0  0.482254  0  4.259365  0  0  0.507073  0  4.270365  0  0  0.305271  0.465396  0  4.251902  0
C  C30  1  0.70530280  0.58714351  0.45366520  1  0  0.515269  0  3.973132  0  0  0.482067  0  4.260379  0  0  0.506932  0  4.271414  0  0  0.305222  0.465393  0  4.252291  0
C  C31  1  0.74618550  0.91296754  0.04643673  1  0  0.515151  0  3.972477  0  0  0.482229  0  4.259433  0  0  0.507047  0  4.270434  0  0  0.305231  0.465371  0  4.25197  0
C  C32  1  0.15322705  0.16005910  0.29666853  1  0  0.5036  0  3.986183  0  0  0.473204  0  4.279183  0  0  0.496434  0  4.291997  0  0  0.28611  0.457324  0  4.270459  0
C  C33  1  0.61039231  0.33946254  0.20337927  1  0  0.503482  0  3.98531  0  0  0.472989  0  4.278367  0  0  0.496221  0  4.291192  0  0  0.286143  0.457189  0  4.26958  0
C  C34  1  0.84677046  0.83993913  0.70333063  1  0  0.503733  0  3.98624  0  0  0.473331  0  4.279228  0  0  0.496562  0  4.292053  0  0  0.286223  0.457451  0  4.270503  0
C  C35  1  0.38961840  0.66053071  0.79662144  1  0  0.503404  0  3.985501  0  0  0.472908  0  4.278576  0  0  0.49614  0  4.291408  0  0  0.286081  0.457109  0  4.269783  0
C  C36  1  0.97175377  0.86304266  0.38298925  1  0  0.525486  0  3.941198  0  0  0.480341  0  4.23906  0  0  0.504502  0  4.250084  0  0  0.303776  0.463929  0  4.231333  0
C  C37  1  0.21800787  0.63632359  0.11711298  1  0  0.525494  0  3.939683  0  0  0.480252  0  4.237752  0  0  0.504352  0  4.248697  0  0  0.303784  0.463882  0  4.229969  0
C  C38  1  0.02825420  0.13696256  0.61701195  1  0  0.525489  0  3.941414  0  0  0.480351  0  4.239277  0  0  0.504511  0  4.250299  0  0  0.303781  0.463939  0  4.231547  0
C  C39  1  0.78199655  0.36367564  0.88288685  1  0  0.525441  0  3.939809  0  0  0.480193  0  4.237884  0  0  0.504295  0  4.248829  0  0  0.303729  0.463821  0  4.230096  0
N  N40  1  0.29697049  0.26811943  0.43718482  1  0  -0.511127  0  3.229816  0  0  -0.441063  0  3.464089  0  0  -0.465781  0  3.465577  0  0  -0.3572  -0.424423  0  3.462643  0
N  N41  1  0.00257016  0.23164071  0.06277315  1  0  -0.507801  0  3.231469  0  0  -0.437293  0  3.463593  0  0  -0.461949  0  3.465292  0  0  -0.356146  -0.420748  0  3.462556  0
N  N42  1  0.70302070  0.73188280  0.56281450  1  0  -0.510925  0  3.229674  0  0  -0.440915  0  3.463991  0  0  -0.465632  0  3.465476  0  0  -0.357201  -0.424283  0  3.462559  0
N  N43  1  0.99743476  0.76835951  0.93722567  1  0  -0.507735  0  3.231462  0  0  -0.437337  0  3.463753  0  0  -0.461992  0  3.465456  0  0  -0.356167  -0.420779  0  3.462705  0
N  N44  1  0.53632322  0.08033853  0.38218617  1  0  -0.591712  0  2.962885  0  0  -0.555119  0  3.241112  0  0  -0.579513  0  3.246514  0  0  -0.338042  -0.538616  0  3.236783  0
N  N45  1  0.99920481  0.41921474  0.11786836  1  0  -0.593734  0  2.963222  0  0  -0.556782  0  3.24219  0  0  -0.581113  0  3.247481  0  0  -0.338484  -0.540468  0  3.238075  0
N  N46  1  0.46367434  0.91966171  0.61781390  1  0  -0.591724  0  2.962922  0  0  -0.555163  0  3.241147  0  0  -0.57956  0  3.246545  0  0  -0.338066  -0.538659  0  3.236817  0
N  N47  1  0.00079814  0.58078450  0.88213093  1  0  -0.593767  0  2.963377  0  0  -0.556795  0  3.242339  0  0  -0.581127  0  3.247628  0  0  -0.338506  -0.540479  0  3.238224  0
N  N48  1  0.68606669  0.12631348  0.47761273  1  0  -0.500099  0  3.27975  0  0  -0.434887  0  3.534057  0  0  -0.4599  0  3.537597  0  0  -0.366453  -0.418533  0  3.53177  0
N  N49  1  0.29005984  0.37337124  0.02233757  1  0  -0.502173  0  3.277868  0  0  -0.437898  0  3.531956  0  0  -0.462805  0  3.535474  0  0  -0.368064  -0.421068  0  3.529573  0
N  N50  1  0.31392158  0.87368976  0.52238891  1  0  -0.500201  0  3.279832  0  0  -0.434945  0  3.534064  0  0  -0.459969  0  3.537589  0  0  -0.366452  -0.418584  0  3.531768  0
N  N51  1  0.70994557  0.62662899  0.97766079  1  0  -0.502144  0  3.27781  0  0  -0.437829  0  3.531937  0  0  -0.462737  0  3.535467  0  0  -0.368025  -0.420997  0  3.529565  0
N  N52  1  0.47161404  0.30375699  0.53297726  1  0  -0.495958  0  3.15032  0  0  -0.448501  0  3.418537  0  0  -0.473086  0  3.423843  0  0  -0.311004  -0.43184  0  3.413791  0
N  N53  1  0.30848282  0.19599072  0.96694585  1  0  -0.495574  0  3.152056  0  0  -0.449067  0  3.419406  0  0  -0.473667  0  3.42475  0  0  -0.310907  -0.4322  0  3.415255  0
N  N54  1  0.52837129  0.69624724  0.46702279  1  0  -0.496074  0  3.150245  0  0  -0.44859  0  3.418446  0  0  -0.473173  0  3.423747  0  0  -0.311045  -0.431933  0  3.413705  0
N  N55  1  0.69152218  0.80401349  0.03305284  1  0  -0.495655  0  3.151916  0  0  -0.449075  0  3.419285  0  0  -0.473668  0  3.424633  0  0  -0.310919  -0.43221  0  3.415135  0
N  N56  1  0.13174228  0.22781067  0.34622707  1  0  -0.538031  0  3.104702  0  0  -0.500372  0  3.38377  0  0  -0.52445  0  3.388402  0  0  -0.361374  -0.483749  0  3.379885  0
N  N57  1  0.70623995  0.27177241  0.15378981  1  0  -0.536595  0  3.104119  0  0  -0.498429  0  3.382855  0  0  -0.522667  0  3.387893  0  0  -0.361041  -0.481874  0  3.378933  0
N  N58  1  0.86826061  0.77218557  0.65377183  1  0  -0.538071  0  3.10468  0  0  -0.500429  0  3.383759  0  0  -0.524493  0  3.388353  0  0  -0.361412  -0.483804  0  3.379872  0
N  N59  1  0.29376683  0.72822085  0.84621078  1  0  -0.536609  0  3.104242  0  0  -0.498437  0  3.382964  0  0  -0.522676  0  3.388003  0  0  -0.361084  -0.481885  0  3.379046  0
N  N60  1  0.92717205  0.94208603  0.42890052  1  0  -0.540329  0  3.134234  0  0  -0.481394  0  3.399348  0  0  -0.506386  0  3.403373  0  0  -0.326035  -0.464319  0  3.395793  0
N  N61  1  0.29822697  0.55744954  0.07112468  1  0  -0.541756  0  3.133092  0  0  -0.482808  0  3.398665  0  0  -0.507558  0  3.402488  0  0  -0.326227  -0.46558  0  3.395514  0
N  N62  1  0.07282996  0.05791620  0.57110010  1  0  -0.540383  0  3.134161  0  0  -0.481473  0  3.399319  0  0  -0.506457  0  3.403346  0  0  -0.326046  -0.464399  0  3.395767  0
N  N63  1  0.70176906  0.44254771  0.92887643  1  0  -0.541743  0  3.133031  0  0  -0.482774  0  3.398596  0  0  -0.507529  0  3.402429  0  0  -0.326218  -0.465553  0  3.395438  0
N  N64  1  0.15217591  0.51149113  0.56503374  1  0  -0.602841  0  2.689236  0  0  -0.575098  0  2.932209  0  0  -0.593723  0  2.939221  0  0  -0.406619  -0.562861  0  2.92747  0
N  N65  1  0.22853070  0.98849985  0.93485044  1  0  -0.602906  0  2.687533  0  0  -0.575605  0  2.93036  0  0  -0.594158  0  2.937351  0  0  -0.407316  -0.56317  0  2.925933  0
N  N66  1  0.84780940  0.48851209  0.43496487  1  0  -0.602825  0  2.689108  0  0  -0.57511  0  2.93211  0  0  -0.593733  0  2.939119  0  0  -0.406596  -0.562871  0  2.927371  0
N  N67  1  0.77146100  0.01150338  0.06514984  1  0  -0.602877  0  2.687633  0  0  -0.575568  0  2.930463  0  0  -0.594122  0  2.937457  0  0  -0.407281  -0.56313  0  2.926031  0
N  N68  1  0.15497523  0.10726974  0.25014226  1  0  -0.641454  0  2.625547  0  0  -0.613354  0  2.870529  0  0  -0.630871  0  2.878538  0  0  -0.507177  -0.601395  0  2.865248  0
N  N69  1  0.51283030  0.39223485  0.24992588  1  0  -0.641721  0  2.624096  0  0  -0.613526  0  2.868939  0  0  -0.631086  0  2.876974  0  0  -0.506715  -0.601661  0  2.863619  0
N  N70  1  0.84502766  0.89272650  0.74985664  1  0  -0.64156  0  2.625677  0  0  -0.613461  0  2.870666  0  0  -0.630981  0  2.878678  0  0  -0.507251  -0.601502  0  2.865389  0
N  N71  1  0.48718328  0.60775343  0.75007656  1  0  -0.6416  0  2.624194  0  0  -0.613394  0  2.869032  0  0  -0.630956  0  2.877074  0  0  -0.50661  -0.601527  0  2.863708  0
N  N72  1  0.03044091  0.78480113  0.34475486  1  0  -0.619279  0  2.658265  0  0  -0.578894  0  2.898832  0  0  -0.597224  0  2.904945  0  0  -0.401343  -0.566374  0  2.894777  0
N  N73  1  0.16054040  0.71451711  0.15537101  1  0  -0.619007  0  2.656842  0  0  -0.578376  0  2.897341  0  0  -0.596666  0  2.903487  0  0  -0.400737  -0.56568  0  2.893013  0
N  N74  1  0.96956694  0.21519712  0.65524608  1  0  -0.619269  0  2.658504  0  0  -0.57888  0  2.899064  0  0  -0.597209  0  2.905177  0  0  -0.401357  -0.56636  0  2.895007  0
N  N75  1  0.83946847  0.28548313  0.84462989  1  0  -0.618972  0  2.65692  0  0  -0.578336  0  2.897416  0  0  -0.596625  0  2.90356  0  0  -0.400707  -0.565642  0  2.893085  0
O  O76  1  0.51448745  0.24984955  0.74999640  1  0  -0.90956  0  1.790747  0  0  -0.861642  0  1.947612  0  0  -0.879406  0  1.919067  0  0  -0.7263  -0.848895  0  1.967317  0
O  O77  1  0.48551155  0.75014870  0.25000525  1  0  -0.909594  0  1.790723  0  0  -0.861697  0  1.947603  0  0  -0.879459  0  1.919062  0  0  -0.726326  -0.848949  0  1.967308  0
