# generated using pymatgen
data_Zr3H2C48(O2F3)8
_symmetry_space_group_name_H-M   'P 1'
_cell_length_a   21.74829682
_cell_length_b   21.74846407
_cell_length_c   21.74828270
_cell_angle_alpha   119.99989868
_cell_angle_beta   89.99933667
_cell_angle_gamma   119.99973095
_symmetry_Int_Tables_number   1
_chemical_formula_structural   Zr3H2C48(O2F3)8
_chemical_formula_sum   'Zr6 H4 C96 O32 F48'
_cell_volume   7273.92401538
_cell_formula_units_Z   2
loop_
 _symmetry_equiv_pos_site_id
 _symmetry_equiv_pos_as_xyz
  1  'x, y, z'
loop_
 _atom_site_type_symbol
 _atom_site_label
 _atom_site_symmetry_multiplicity
 _atom_site_fract_x
 _atom_site_fract_y
 _atom_site_fract_z
 _atom_site_occupancy
 _atom_site_pbe_bader_charge
 _atom_site_pbe_bader_spin_density
 _atom_site_pbe_cm5_charge
 _atom_site_pbe_ddec_charge
 _atom_site_pbe_ddec_spin_density
 _atom_site_pbe_ddec_sum_bond_order
 _atom_site_pbe_magmom
Zr  Zr0  1  0.08134552  0.16273838  0.08135895  1  2.638799  0  1.633752  2.383014  0  2.73987  0
Zr  Zr1  1  0.91855244  0.83713374  0.91853180  1  2.639032  0  1.633858  2.383087  0  2.73929  0
Zr  Zr2  1  0.91854329  0.99992415  0.08134415  1  2.631068  0  1.634159  2.382946  0  2.739337  0
Zr  Zr3  1  0.08136394  0.99996075  0.91856454  1  2.630502  0  1.634099  2.382853  0  2.739821  0
Zr  Zr4  1  0.08133713  0.99992375  0.08134955  1  2.626721  0  1.63417  2.383273  0  2.739203  0
Zr  Zr5  1  0.91855208  0.99993356  0.91855217  1  2.627693  0  1.634117  2.382876  0  2.739558  0
H  H6  1  0.06395911  0.12798760  0.19205318  1  0.665594  0  0.330626  0.420599  0  0.858957  0
H  H7  1  0.06400012  0.87188867  0.93592049  1  0.591516  0  0.330869  0.42099  0  0.858982  0
H  H8  1  0.80784780  0.87186549  0.93590837  1  0.586154  0  0.330875  0.420984  0  0.859194  0
H  H9  1  0.06399876  0.12802190  0.93593242  1  0.625309  0  0.330872  0.420888  0  0.858638  0
C  C10  1  0.20817249  0.20632097  0.20455452  1  1.619661  0  0.235821  0.668259  0  4.105769  0
C  C11  1  0.99811537  0.79349470  0.00175049  1  1.602323  0  0.236064  0.668779  0  4.104963  0
C  C12  1  0.79532968  0.79350846  0.79170949  1  1.595508  0  0.236104  0.669289  0  4.105217  0
C  C13  1  0.99810198  0.20632757  0.00173786  1  1.604714  0  0.235924  0.668695  0  4.105042  0
C  C14  1  0.99811469  0.20634892  0.20456086  1  1.603549  0  0.235777  0.668724  0  4.10551  0
C  C15  1  0.20822272  0.20638560  0.00181698  1  1.615312  0  0.235996  0.66894  0  4.104776  0
C  C16  1  0.99815684  0.79355101  0.79170855  1  1.615741  0  0.235839  0.669007  0  4.105622  0
C  C17  1  0.79537339  0.79351192  0.00178326  1  1.6027  0  0.235801  0.668303  0  4.105918  0
C  C18  1  0.99810909  0.99628163  0.20455389  1  1.612182  0  0.235688  0.668632  0  4.105205  0
C  C19  1  0.79535895  0.00360037  0.00177939  1  1.612309  0  0.235953  0.668854  0  4.106258  0
C  C20  1  0.99815089  0.99631659  0.79171947  1  1.613204  0  0.235862  0.668669  0  4.10559  0
C  C21  1  0.20821934  0.00362738  0.00179674  1  1.612228  0  0.235919  0.668618  0  4.105783  0
C  C22  1  0.27640061  0.27526458  0.27421747  1  0.102066  0  -0.025685  -0.225478  0  3.949292  0
C  C23  1  0.31010120  0.36476843  0.30899089  1  0.606259  0  0.102618  0.174365  0  4.075333  0
C  C24  1  0.37352372  0.42857427  0.37350456  1  0.516863  0  0.098649  0.131828  0  4.064749  0
C  C25  1  0.40719174  0.40730366  0.40753142  1  0.144059  0  -0.007177  -0.034476  0  4.177485  0
C  C26  1  0.37354294  0.31833597  0.37346085  1  0.637732  0  0.098482  0.1322  0  4.064562  0
C  C27  1  0.31011158  0.25421608  0.30895996  1  0.532891  0  0.102131  0.173178  0  4.076508  0
C  C28  1  0.47148161  0.47186998  0.47239925  1  -0.295765  0  -0.022352  -0.039258  0  4.088828  0
C  C29  1  0.52746144  0.52785878  0.52840710  1  0.033672  0  -0.022418  -0.038976  0  4.088908  0
C  C30  1  0.59231486  0.59246137  0.59271058  1  0.169793  0  -0.006884  -0.034167  0  4.1782  0
C  C31  1  0.62633982  0.68142349  0.62636366  1  0.629473  0  0.098129  0.131272  0  4.064707  0
C  C32  1  0.69085963  0.74555108  0.68978316  1  0.547262  0  0.102878  0.174504  0  4.075207  0
C  C33  1  0.72563895  0.72454201  0.72350647  1  0.12524  0  -0.025731  -0.22565  0  3.949349  0
C  C34  1  0.69088662  0.63504702  0.68982356  1  0.606092  0  0.102573  0.174015  0  4.076249  0
C  C35  1  0.62636798  0.57122934  0.62640522  1  0.514997  0  0.098352  0.131643  0  4.065742  0
C  C36  1  0.99881838  0.27526477  0.00100927  1  0.06563  0  -0.025584  -0.225366  0  3.949482  0
C  C37  1  0.05461010  0.36477134  0.05574579  1  0.573573  0  0.102483  0.174295  0  4.075622  0
C  C38  1  0.05498610  0.42858501  0.05506099  1  0.57016  0  0.098289  0.131398  0  4.065992  0
C  C39  1  0.00005225  0.40731226  0.99975957  1  0.097839  0  -0.007229  -0.034677  0  4.17872  0
C  C40  1  0.94475102  0.31834500  0.94484817  1  0.64669  0  0.09869  0.132154  0  4.064907  0
C  C41  1  0.94406591  0.25421867  0.94521926  1  0.606269  0  0.102455  0.173508  0  4.076393  0
C  C42  1  0.00030379  0.47186715  0.99946251  1  0.001581  0  -0.022302  -0.039116  0  4.088145  0
C  C43  1  0.00028372  0.52785923  0.99947592  1  -0.254843  0  -0.022495  -0.039097  0  4.087552  0
C  C44  1  0.00003297  0.59246477  0.99978379  1  0.101132  0  -0.007001  -0.034075  0  4.177563  0
C  C45  1  0.05495166  0.68142782  0.05511124  1  0.646758  0  0.098529  0.131507  0  4.065905  0
C  C46  1  0.05457968  0.74555288  0.05579403  1  0.619517  0  0.102381  0.173879  0  4.0763  0
C  C47  1  0.99881240  0.72454126  0.00104031  1  0.063787  0  -0.025534  -0.224984  0  3.949626  0
C  C48  1  0.94406731  0.63504986  0.94524047  1  0.568935  0  0.10227  0.173439  0  4.07658  0
C  C49  1  0.94474443  0.57123286  0.94486556  1  0.56768  0  0.098274  0.131464  0  4.065107  0
C  C50  1  0.27647138  0.00223987  0.00110558  1  0.09309  0  -0.025647  -0.225819  0  3.950281  0
C  C51  1  0.31018412  0.00119683  0.05585558  1  0.563211  0  0.102432  0.173973  0  4.076417  0
C  C52  1  0.37363433  0.00015997  0.05518505  1  0.58262  0  0.098618  0.131501  0  4.064819  0
C  C53  1  0.40729833  0.99979093  0.99988486  1  0.165749  0  -0.007328  -0.033429  0  4.176069  0
C  C54  1  0.37365159  0.00019032  0.94496874  1  0.574834  0  0.098705  0.131618  0  4.064248  0
C  C55  1  0.31020156  0.00122671  0.94532909  1  0.554033  0  0.102382  0.173817  0  4.076679  0
C  C56  1  0.47162651  0.99928878  0.99963384  1  -0.042271  0  -0.022378  -0.039546  0  4.087202  0
C  C57  1  0.52762300  0.99929934  0.99965873  1  -0.200299  0  -0.02233  -0.039334  0  4.086694  0
C  C58  1  0.59245232  0.99979679  0.99990421  1  0.171528  0  -0.007361  -0.033438  0  4.176567  0
C  C59  1  0.62650917  0.00018629  0.05520781  1  0.565681  0  0.098608  0.131336  0  4.064785  0
C  C60  1  0.69099561  0.00122037  0.05587045  1  0.563341  0  0.102818  0.174287  0  4.075945  0
C  C61  1  0.72572909  0.00222588  0.00110068  1  0.095783  0  -0.025567  -0.225225  0  3.949733  0
C  C62  1  0.69097742  0.00120472  0.94532626  1  0.558571  0  0.102504  0.17373  0  4.076298  0
C  C63  1  0.62649019  0.00016974  0.94497367  1  0.588778  0  0.09863  0.131542  0  4.065036  0
C  C64  1  0.99886843  0.99773861  0.72348396  1  0.088349  0  -0.025597  -0.225352  0  3.949726  0
C  C65  1  0.94412935  0.99879308  0.68977370  1  0.565702  0  0.10285  0.174368  0  4.075992  0
C  C66  1  0.94481941  0.99985209  0.62633322  1  0.58322  0  0.098509  0.13147  0  4.06496  0
C  C67  1  0.00011827  0.00022052  0.59266273  1  0.162046  0  -0.00742  -0.033707  0  4.176829  0
C  C68  1  0.05502842  0.99981795  0.62632005  1  0.577617  0  0.098727  0.131712  0  4.064909  0
C  C69  1  0.05465181  0.99876351  0.68976315  1  0.555737  0  0.102801  0.174035  0  4.076251  0
C  C70  1  0.00037000  0.00071948  0.52833517  1  -0.212093  0  -0.022405  -0.039286  0  4.086527  0
C  C71  1  0.00036080  0.00073424  0.47234697  1  -0.030892  0  -0.022366  -0.039511  0  4.0872  0
C  C72  1  0.00010372  0.00022808  0.40751985  1  0.168095  0  -0.007112  -0.033463  0  4.176593  0
C  C73  1  0.94478318  0.99982509  0.37347557  1  0.569123  0  0.098634  0.131706  0  4.064522  0
C  C74  1  0.94409104  0.99876538  0.30897669  1  0.561626  0  0.102331  0.173693  0  4.07682  0
C  C75  1  0.99883534  0.99772276  0.27421787  1  0.098116  0  -0.025388  -0.225416  0  3.950282  0
C  C76  1  0.05463569  0.99877766  0.30897407  1  0.560556  0  0.102282  0.173769  0  4.077039  0
C  C77  1  0.05502456  0.99984521  0.37347453  1  0.588489  0  0.098536  0.131481  0  4.065251  0
C  C78  1  0.99884093  0.27531299  0.27421727  1  0.000117  0  -0.025446  -0.225231  0  3.949735  0
C  C79  1  0.94410952  0.25430638  0.30899562  1  0.598923  0  0.102473  0.173895  0  4.076262  0
C  C80  1  0.94480834  0.31844598  0.37348694  1  0.607713  0  0.098372  0.131362  0  4.064779  0
C  C81  1  0.00012054  0.40739981  0.40750318  1  0.173924  0  -0.007298  -0.033527  0  4.176392  0
C  C82  1  0.05502393  0.42864186  0.37343660  1  0.553958  0  0.098924  0.132087  0  4.063922  0
C  C83  1  0.05463355  0.36481031  0.30894747  1  0.607662  0  0.101905  0.172971  0  4.077238  0
C  C84  1  0.00038668  0.47198408  0.47233473  1  0.00386  0  -0.022201  -0.039405  0  4.087788  0
C  C85  1  0.00035116  0.52795451  0.52831768  1  -0.248944  0  -0.022517  -0.039267  0  4.087167  0
C  C86  1  0.00010148  0.59253234  0.59264813  1  0.178668  0  -0.007299  -0.033677  0  4.177487  0
C  C87  1  0.94479398  0.57128681  0.62631570  1  0.548019  0  0.09867  0.131514  0  4.065082  0
C  C88  1  0.94411393  0.63510688  0.68975692  1  0.555789  0  0.102836  0.174257  0  4.076018  0
C  C89  1  0.99886935  0.72460854  0.72347664  1  0.112572  0  -0.025714  -0.225472  0  3.949636  0
C  C90  1  0.05465661  0.74563426  0.68975455  1  0.560626  0  0.102754  0.17424  0  4.075979  0
C  C91  1  0.05502779  0.68150292  0.62631484  1  0.603698  0  0.098596  0.131456  0  4.065175  0
C  C92  1  0.27648684  0.27534097  0.00114170  1  0.109762  0  -0.025596  -0.225458  0  3.94998  0
C  C93  1  0.31021301  0.36484303  0.05590928  1  0.554745  0  0.102202  0.173594  0  4.076811  0
C  C94  1  0.37367491  0.42866088  0.05525635  1  0.54889  0  0.098609  0.131583  0  4.064712  0
C  C95  1  0.40733930  0.40740554  0.99995583  1  0.180642  0  -0.007114  -0.033186  0  4.176728  0
C  C96  1  0.37367361  0.31844557  0.94501374  1  0.602629  0  0.098499  0.131212  0  4.065483  0
C  C97  1  0.31021742  0.25431781  0.94536340  1  0.561617  0  0.102466  0.17404  0  4.07676  0
C  C98  1  0.47165655  0.47198157  0.99970254  1  -0.012589  0  -0.022526  -0.039597  0  4.087897  0
C  C99  1  0.52765909  0.52796719  0.99970030  1  -0.238828  0  -0.022329  -0.039552  0  4.086734  0
C  C100  1  0.59249034  0.59253632  0.99994767  1  0.177599  0  -0.007079  -0.032939  0  4.176404  0
C  C101  1  0.62652574  0.68150793  0.05522208  1  0.610255  0  0.098633  0.131162  0  4.065428  0
C  C102  1  0.69100763  0.74562419  0.05587834  1  0.600268  0  0.102721  0.174079  0  4.076301  0
C  C103  1  0.72574928  0.72458002  0.00111740  1  -0.001393  0  -0.025582  -0.225068  0  3.949947  0
C  C104  1  0.69100834  0.63507966  0.94535911  1  0.607315  0  0.102401  0.173676  0  4.07639  0
C  C105  1  0.62653323  0.57127469  0.94501907  1  0.554703  0  0.098766  0.131664  0  4.065017  0
O  O106  1  0.18139933  0.23164375  0.17780626  1  -1.163244  0  -0.351025  -0.606329  0  2.301875  0
O  O107  1  0.94606463  0.76818030  0.94964045  1  -1.165001  0  -0.35077  -0.606214  0  2.301339  0
O  O108  1  0.82209434  0.76819810  0.81848648  1  -1.163079  0  -0.351081  -0.606682  0  2.301579  0
O  O109  1  0.05019187  0.23164760  0.05381634  1  -1.160261  0  -0.351207  -0.606741  0  2.301623  0
O  O110  1  0.94605264  0.12751204  0.17782216  1  -1.157587  0  -0.350499  -0.606264  0  2.301392  0
O  O111  1  0.18143777  0.12754541  0.94970895  1  -1.165436  0  -0.350706  -0.606316  0  2.301246  0
O  O112  1  0.05025716  0.87239736  0.81850020  1  -1.165381  0  -0.35074  -0.606547  0  2.301817  0
O  O113  1  0.82210889  0.87235794  0.05382774  1  -1.154429  0  -0.350975  -0.606445  0  2.301853  0
O  O114  1  0.05019078  0.99628725  0.17778705  1  -1.161095  0  -0.350763  -0.606561  0  2.301425  0
O  O115  1  0.82208881  0.00353315  0.94966457  1  -1.159605  0  -0.350946  -0.606674  0  2.301815  0
O  O116  1  0.94607881  0.99633009  0.81849174  1  -1.160776  0  -0.350596  -0.606204  0  2.301623  0
O  O117  1  0.18141890  0.00356110  0.05384297  1  -1.159746  0  -0.350709  -0.606418  0  2.301924  0
O  O118  1  0.82210084  0.00354250  0.05382827  1  -1.15858  0  -0.35069  -0.606513  0  2.302152  0
O  O119  1  0.05026402  0.99637906  0.81851596  1  -1.159522  0  -0.350842  -0.606541  0  2.301851  0
O  O120  1  0.18142875  0.00357060  0.94968598  1  -1.15862  0  -0.350727  -0.606248  0  2.301175  0
O  O121  1  0.94605546  0.99633529  0.17781777  1  -1.160777  0  -0.350484  -0.606109  0  2.301225  0
O  O122  1  0.05021354  0.23165546  0.17780530  1  -1.154778  0  -0.351055  -0.606504  0  2.301671  0
O  O123  1  0.82209577  0.76818884  0.94966133  1  -1.153746  0  -0.350775  -0.606139  0  2.30148  0
O  O124  1  0.94608827  0.76823416  0.81848837  1  -1.165307  0  -0.350989  -0.606502  0  2.301859  0
O  O125  1  0.18141127  0.23169106  0.05385643  1  -1.166628  0  -0.350965  -0.606479  0  2.301405  0
O  O126  1  0.94604729  0.12748378  0.94963531  1  -1.164955  0  -0.350662  -0.606217  0  2.301505  0
O  O127  1  0.18138337  0.12747894  0.17781857  1  -1.166791  0  -0.350643  -0.60618  0  2.301995  0
O  O128  1  0.05021270  0.87233952  0.05381209  1  -1.158939  0  -0.351028  -0.606736  0  2.301375  0
O  O129  1  0.82208484  0.87235233  0.81848320  1  -1.160003  0  -0.350819  -0.606652  0  2.301676  0
O  O130  1  0.04579528  0.09162197  0.95412604  1  -1.256261  0  -0.694158  -1.072058  0  2.36694  0
O  O131  1  0.86244186  0.90825727  0.95410490  1  -1.217805  0  -0.69415  -1.072176  0  2.367641  0
O  O132  1  0.04579032  0.90827362  0.95411284  1  -1.221841  0  -0.694147  -1.072234  0  2.367283  0
O  O133  1  0.04577519  0.09160068  0.13746111  1  -1.296516  0  -0.6939  -1.071595  0  2.367228  0
O  O134  1  0.96625628  0.93255248  0.03362675  1  -1.195629  0  -0.789831  -1.154233  0  2.129266  0
O  O135  1  0.10100155  0.06731366  0.03364951  1  -1.193065  0  -0.789874  -1.154024  0  2.128965  0
O  O136  1  0.96627341  0.93257244  0.89889054  1  -1.191025  0  -0.789762  -1.154138  0  2.129638  0
O  O137  1  0.96626210  0.06731244  0.03364098  1  -1.194875  0  -0.789771  -1.15399  0  2.129209  0
F  F138  1  0.28282935  0.39293829  0.28175576  1  -0.605435  0  -0.074782  -0.083113  0  1.402456  0
F  F139  1  0.28286318  0.17153979  0.28169458  1  -0.602287  0  -0.074293  -0.082461  0  1.402943  0
F  F140  1  0.40350105  0.29459306  0.40400184  1  -0.60924  0  -0.082242  -0.096205  0  1.360078  0
F  F141  1  0.40345184  0.51281986  0.40407999  1  -0.609691  0  -0.082355  -0.096263  0  1.35983  0
F  F142  1  0.59576790  0.70516463  0.59643471  1  -0.609103  0  -0.082381  -0.096319  0  1.360261  0
F  F143  1  0.59580204  0.48699209  0.59648312  1  -0.607962  0  -0.082369  -0.096282  0  1.360428  0
F  F144  1  0.71812867  0.60688819  0.71710798  1  -0.604871  0  -0.074518  -0.082676  0  1.402305  0
F  F145  1  0.71807885  0.82822232  0.71704925  1  -0.60078  0  -0.074663  -0.082976  0  1.402279  0
F  F146  1  0.11006409  0.39294090  0.11113861  1  -0.602807  0  -0.074676  -0.082983  0  1.402458  0
F  F147  1  0.88866593  0.17154447  0.88978849  1  -0.600607  0  -0.074421  -0.082539  0  1.402808  0
F  F148  1  0.89106672  0.29460096  0.89055119  1  -0.607243  0  -0.08242  -0.096207  0  1.360426  0
F  F149  1  0.10929781  0.51282940  0.10873624  1  -0.611248  0  -0.082109  -0.096063  0  1.3602  0
F  F150  1  0.10924348  0.70516720  0.10880644  1  -0.606975  0  -0.082277  -0.096183  0  1.360225  0
F  F151  1  0.89106702  0.48699714  0.89055233  1  -0.612015  0  -0.082389  -0.096176  0  1.360494  0
F  F152  1  0.88867915  0.60689409  0.88979300  1  -0.603514  0  -0.074383  -0.082484  0  1.402859  0
F  F153  1  0.11001878  0.82822891  0.11120507  1  -0.604373  0  -0.074523  -0.082854  0  1.402621  0
F  F154  1  0.28290081  0.00114546  0.11125099  1  -0.599956  0  -0.074516  -0.082766  0  1.402895  0
F  F155  1  0.28293818  0.00120674  0.88989641  1  -0.601314  0  -0.07432  -0.082601  0  1.403018  0
F  F156  1  0.40362763  0.99962766  0.89069627  1  -0.606348  0  -0.082484  -0.096393  0  1.359635  0
F  F157  1  0.40358599  0.99956531  0.10888401  1  -0.608062  0  -0.082273  -0.096173  0  1.359823  0
F  F158  1  0.59597802  0.99961214  0.10891962  1  -0.60687  0  -0.082471  -0.096352  0  1.35978  0
F  F159  1  0.59594182  0.99957380  0.89068301  1  -0.607884  0  -0.082481  -0.0964  0  1.359966  0
F  F160  1  0.71820323  0.00114666  0.88987243  1  -0.601186  0  -0.074376  -0.082617  0  1.402966  0
F  F161  1  0.71823760  0.00117734  0.11126933  1  -0.601653  0  -0.074612  -0.082918  0  1.402765  0
F  F162  1  0.88873781  0.99885921  0.71706407  1  -0.599513  0  -0.07463  -0.082971  0  1.402831  0
F  F163  1  0.11008528  0.99878647  0.71703519  1  -0.601395  0  -0.074661  -0.08289  0  1.402816  0
F  F164  1  0.10931009  0.00038958  0.59635739  1  -0.606195  0  -0.082575  -0.096507  0  1.359958  0
F  F165  1  0.89113328  0.00046398  0.59638793  1  -0.60755  0  -0.082393  -0.096409  0  1.36001  0
F  F166  1  0.89108873  0.00041188  0.40402871  1  -0.606935  0  -0.082499  -0.096443  0  1.359922  0
F  F167  1  0.10932594  0.00045104  0.40401947  1  -0.609107  0  -0.082195  -0.096084  0  1.35994  0
F  F168  1  0.11007926  0.99883015  0.28173665  1  -0.601996  0  -0.07455  -0.082842  0  1.403141  0
F  F169  1  0.88867867  0.99878611  0.28173633  1  -0.601381  0  -0.074317  -0.082638  0  1.40305  0
F  F170  1  0.88871123  0.17163815  0.28178134  1  -0.599245  0  -0.074496  -0.082783  0  1.402719  0
F  F171  1  0.11005970  0.39295286  0.28168844  1  -0.602086  0  -0.074395  -0.08249  0  1.403387  0
F  F172  1  0.10931327  0.51287960  0.40396660  1  -0.609157  0  -0.082444  -0.096355  0  1.359536  0
F  F173  1  0.89112845  0.29473595  0.40406363  1  -0.612543  0  -0.082293  -0.096279  0  1.3597  0
F  F174  1  0.89108730  0.48704860  0.59636330  1  -0.609707  0  -0.082527  -0.096409  0  1.360049  0
F  F175  1  0.10932186  0.70524146  0.59636520  1  -0.61299  0  -0.082438  -0.096356  0  1.360081  0
F  F176  1  0.11010695  0.82831168  0.71703652  1  -0.602721  0  -0.074593  -0.082927  0  1.402925  0
F  F177  1  0.88871072  0.60694731  0.71703843  1  -0.603455  0  -0.074788  -0.082948  0  1.40277  0
F  F178  1  0.28292746  0.39299852  0.11130470  1  -0.603399  0  -0.074493  -0.082711  0  1.402982  0
F  F179  1  0.28293497  0.17164658  0.88990801  1  -0.603557  0  -0.074561  -0.082908  0  1.402999  0
F  F180  1  0.40362823  0.29471831  0.89071875  1  -0.61208  0  -0.082322  -0.096148  0  1.360252  0
F  F181  1  0.40362821  0.51290345  0.10895547  1  -0.609041  0  -0.082401  -0.096361  0  1.359979  0
F  F182  1  0.59598228  0.70526968  0.10891856  1  -0.612454  0  -0.082551  -0.096323  0  1.359891  0
F  F183  1  0.59598834  0.48703350  0.89072881  1  -0.610371  0  -0.082618  -0.096515  0  1.360174  0
F  F184  1  0.71823409  0.60690578  0.88990757  1  -0.601491  0  -0.074513  -0.0827  0  1.402937  0
F  F185  1  0.71823150  0.82830415  0.11125538  1  -0.598598  0  -0.074654  -0.082866  0  1.402854  0
