# generated using pymatgen
data_NiH32C20(N3O4)2
_symmetry_space_group_name_H-M   'P 1'
_cell_length_a   7.97736958
_cell_length_b   8.15619703
_cell_length_c   10.48958209
_cell_angle_alpha   73.24721109
_cell_angle_beta   64.34390933
_cell_angle_gamma   77.19717697
_symmetry_Int_Tables_number   1
_chemical_formula_structural   NiH32C20(N3O4)2
_chemical_formula_sum   'Ni1 H32 C20 N6 O8'
_cell_volume   585.38844940
_cell_formula_units_Z   1
loop_
 _symmetry_equiv_pos_site_id
 _symmetry_equiv_pos_as_xyz
  1  'x, y, z'
loop_
 _atom_site_type_symbol
 _atom_site_label
 _atom_site_symmetry_multiplicity
 _atom_site_fract_x
 _atom_site_fract_y
 _atom_site_fract_z
 _atom_site_occupancy
 _atom_site_hle17_ddec_charge
 _atom_site_hle17_ddec_spin_density
 _atom_site_hle17_ddec_sum_bond_order
 _atom_site_hle17_magmom
 _atom_site_hse06_10hf_ddec_charge
 _atom_site_hse06_10hf_ddec_spin_density
 _atom_site_hse06_10hf_ddec_sum_bond_order
 _atom_site_hse06_10hf_magmom
 _atom_site_hse06_ddec_charge
 _atom_site_hse06_ddec_spin_density
 _atom_site_hse06_ddec_sum_bond_order
 _atom_site_hse06_magmom
 _atom_site_pbe_cm5_charge
 _atom_site_pbe_ddec_charge
 _atom_site_pbe_ddec_spin_density
 _atom_site_pbe_ddec_sum_bond_order
 _atom_site_pbe_magmom
Ni  Ni0  1  0.01023210  0.49939218  0.52332588  1  0.543057  -0.020427  2.737277  -0.014  0.60918  -0.038671  3.162806  -0.022  0.606731  -0.027807  3.12475  -0.018  0.842252  0.622716  -0.03173  3.176617  -0.018
H  H1  1  0.82229667  0.62377961  0.06916313  1  0.107018  3.4e-05  0.993783  0.0  0.111155  7.6e-05  1.064437  0.0  0.115577  5.8e-05  1.061398  0.0  0.102079  0.108234  -0.000118  1.06663  0.0
H  H2  1  0.16181173  0.38238783  0.90971606  1  0.120163  5.9e-05  0.98471  0.0  0.12393  3e-05  1.054039  0.0  0.128296  -4e-06  1.050741  0.0  0.104285  0.120766  9.3e-05  1.056274  0.0
H  H3  1  0.61584578  0.86669431  0.51769059  1  0.064413  0.014825  0.928525  0.014  0.080555  0.014577  0.991724  0.013  0.079574  0.015959  0.993353  0.015  0.120571  0.080162  0.013478  0.991345  0.012
H  H4  1  0.40045155  0.12690794  0.49422848  1  0.062541  -0.006748  0.927296  -0.008  0.077159  -0.006305  0.992523  -0.007  0.07594  -0.00946  0.994381  -0.01  0.119851  0.078237  -0.004174  0.99139  -0.005
H  H5  1  0.67988686  0.71233780  0.40871125  1  0.099052  0.036112  0.917726  0.034  0.112241  0.036774  0.982699  0.032  0.11456  0.036418  0.981753  0.033  0.131583  0.108499  0.035773  0.985288  0.031
H  H6  1  0.33491363  0.28013118  0.60358788  1  0.094409  -0.032252  0.910412  -0.031  0.101195  -0.028938  0.980752  -0.026  0.108515  -0.032551  0.975777  -0.03  0.126443  0.097723  -0.026392  0.982972  -0.023
H  H7  1  0.60664574  0.41907881  0.52420315  1  0.081158  -0.037055  0.953154  -0.037  0.090472  -0.037543  1.028492  -0.036  0.091535  -0.0367  1.027988  -0.036  0.127116  0.088127  -0.037265  1.029783  -0.036
H  H8  1  0.41012285  0.57352014  0.48869389  1  0.077052  0.033126  0.957074  0.034  0.079586  0.030612  1.037184  0.03  0.08509  0.032862  1.033215  0.032  0.121018  0.075854  0.027876  1.040266  0.027
H  H9  1  0.51825588  0.35633227  0.71739469  1  0.102938  -0.01975  0.9336  -0.02  0.116188  -0.019263  0.994954  -0.019  0.117563  -0.021136  0.994193  -0.021  0.130418  0.11415  -0.017485  0.996101  -0.017
H  H10  1  0.50072603  0.63691340  0.29577277  1  0.102409  0.01011  0.928993  0.011  0.114128  0.009962  0.990586  0.01  0.114486  0.013192  0.991251  0.014  0.130083  0.113769  0.007488  0.990553  0.008
H  H11  1  0.62877182  0.62554463  0.80374014  1  0.061324  -0.000174  0.943  0.0  0.07437  -0.000319  1.009828  0.0  0.075666  -0.000196  1.009042  0.0  0.093547  0.073672  -0.000455  1.010298  -0.001
H  H12  1  0.36082742  0.37165888  0.22103697  1  0.065646  -0.000529  0.928205  0.0  0.077737  -0.000853  0.997055  0.0  0.078274  -0.000667  0.996082  0.0  0.096761  0.077215  -0.001142  0.997935  -0.001
H  H13  1  0.40968203  0.55287010  0.85379013  1  0.066582  -0.000265  0.930981  0.0  0.085105  -0.000396  0.990928  0.0  0.085102  -0.000377  0.991978  0.0  0.104425  0.084731  -0.000384  0.990531  0.0
H  H14  1  0.58294212  0.44695859  0.15531132  1  0.065804  0.000182  0.934923  0.0  0.083931  0.000218  0.994281  0.0  0.084763  0.000252  0.994791  0.0  0.103509  0.083605  0.000112  0.993783  0.0
H  H15  1  0.51062693  0.92460514  0.72779303  1  0.061384  0.00018  0.950535  0.0  0.07828  0.000252  1.014961  0.0  0.078991  0.000267  1.015032  0.0  0.088192  0.077943  0.000266  1.014775  0.0
H  H16  1  0.49169894  0.07250058  0.28243264  1  0.05959  -0.000205  0.949766  0.0  0.077796  -0.000256  1.012125  0.0  0.077881  -0.000338  1.01311  0.0  0.088461  0.077702  -0.000191  1.011577  0.0
H  H17  1  0.30207929  0.86093231  0.74379873  1  0.062865  -7.8e-05  0.934674  0.0  0.081556  -0.00021  0.996708  0.0  0.081864  -0.000181  0.99758  0.0  0.087925  0.081099  -0.000248  0.996374  0.0
H  H18  1  0.70672406  0.13861641  0.25132471  1  0.0712  0.000177  0.930702  0.0  0.087827  0.000362  0.994213  0.0  0.089076  0.000345  0.994244  0.0  0.090443  0.087191  0.000374  0.994005  0.0
H  H19  1  0.19285913  0.77967455  0.00844178  1  0.106725  0.000192  0.933908  0.0  0.119981  0.000359  0.993233  0.0  0.122053  0.000337  0.993386  0.0  0.097924  0.118292  0.000347  0.993433  0.0
H  H20  1  0.78816631  0.22547863  0.99109048  1  0.109618  -0.000239  0.932284  0.0  0.12106  -0.000462  0.99346  0.0  0.123759  -0.000427  0.993074  0.0  0.099057  0.119289  -0.000508  0.993664  0.0
H  H21  1  0.41820175  0.78461209  0.00013441  1  0.112938  6.1e-05  0.923917  0.0  0.12954  0.000113  0.979924  0.0  0.131402  0.000102  0.979816  0.0  0.104603  0.128136  0.000105  0.980131  0.0
H  H22  1  0.55498075  0.22369560  0.01363442  1  0.118312  -4.8e-05  0.915759  0.0  0.134416  -0.000113  0.971564  0.0  0.136456  -8.5e-05  0.971274  0.0  0.107938  0.133095  -0.000115  0.97165  0.0
H  H23  1  0.90863442  0.97365776  0.41812283  1  0.081793  0.018527  0.931004  0.019  0.098776  0.017875  0.991283  0.018  0.100737  0.019189  0.99036  0.019  0.112191  0.096478  0.016759  0.992879  0.016
H  H24  1  0.11217406  0.02279910  0.56576970  1  0.07761  -0.013512  0.940443  -0.015  0.09313  -0.012134  1.001876  -0.013  0.095679  -0.015688  1.000375  -0.017  0.109663  0.091724  -0.009763  1.002963  -0.011
H  H25  1  0.97275949  0.85756175  0.28248255  1  0.1147  0.037682  0.91125  0.037  0.131323  0.039728  0.967447  0.036  0.13356  0.038221  0.966815  0.036  0.124966  0.127612  0.039421  0.969729  0.036
H  H26  1  0.03738791  0.12099179  0.71414240  1  0.108835  -0.034146  0.917014  -0.034  0.121657  -0.032829  0.975662  -0.031  0.128267  -0.034648  0.971598  -0.033  0.119983  0.118056  -0.031435  0.977964  -0.029
H  H27  1  0.85100130  0.18090058  0.50090229  1  0.09173  -0.036821  0.916191  -0.034  0.107948  -0.037693  0.978949  -0.033  0.110116  -0.036938  0.977748  -0.033  0.117173  0.104439  -0.036768  0.98163  -0.032
H  H28  1  0.18698553  0.84502873  0.46672081  1  0.076253  0.035005  0.923469  0.033  0.092209  0.034294  0.983879  0.03  0.096154  0.035266  0.981476  0.032  0.109204  0.088987  0.032345  0.986151  0.028
H  H29  1  0.74451494  0.11718540  0.69490205  1  0.101786  -0.015303  0.916809  -0.016  0.115591  -0.014708  0.976501  -0.014  0.118351  -0.015926  0.975589  -0.016  0.117884  0.113012  -0.01346  0.977468  -0.013
H  H30  1  0.27510422  0.86857633  0.27620595  1  0.109473  0.014401  0.919541  0.015  0.123326  0.014022  0.977428  0.014  0.125589  0.01674  0.977232  0.017  0.121328  0.121292  0.011784  0.977955  0.012
H  H31  1  0.10128207  0.17167045  0.11766283  1  0.397543  -3e-05  0.911769  0.0  0.36294  -1.4e-05  0.99361  0.0  0.377096  5e-06  0.974348  0.0  0.286375  0.353241  -8.5e-05  1.004651  0.0
H  H32  1  0.86167412  0.84673297  0.88068485  1  0.400317  5e-05  0.892869  0.0  0.368627  5.2e-05  0.972389  0.0  0.381693  -0.0  0.958124  0.0  0.299688  0.359431  0.000113  0.981624  0.0
C  C33  1  0.93941426  0.52175808  0.05534614  1  -0.179741  -0.000152  3.685605  0.0  -0.18998  5.6e-05  3.927446  0.0  -0.199427  0.000454  3.946899  0.0  -0.087426  -0.185067  -0.000591  3.915058  0.0
C  C34  1  0.04565147  0.48541046  0.92481160  1  -0.19861  -0.000924  3.690128  -0.001  -0.212135  -2e-05  3.933856  0.0  -0.219075  -1.1e-05  3.952238  0.0  -0.094915  -0.206215  0.000888  3.920962  0.001
C  C35  1  0.97330470  0.43775570  0.19072045  1  0.679487  0.000126  3.929849  0.0  0.639078  -0.000202  4.220055  0.0  0.673846  -3.7e-05  4.214727  0.0  0.199142  0.614704  -0.00034  4.222436  0.0
C  C36  1  0.00165754  0.57067623  0.79473857  1  0.677931  -0.000223  3.889384  0.0  0.637342  -0.000308  4.175674  0.0  0.674201  -0.000961  4.174261  -0.001  0.213118  0.612453  0.000138  4.176394  0.0
C  C37  1  0.67479135  0.73239402  0.51049204  1  0.066514  -0.016744  3.706489  -0.032  0.009051  0.010497  3.976156  -0.01  0.009749  0.004665  3.983334  -0.016  0.034461  0.010067  0.013768  3.972704  -0.007
C  C38  1  0.34091832  0.26129060  0.50110459  1  0.06964  0.017001  3.712747  0.029  0.015485  -0.005412  3.9871  0.01  0.013538  -0.001036  3.989914  0.016  0.031391  0.014644  -0.007485  3.982926  0.007
C  C39  1  0.61438073  0.43900573  0.62207906  1  0.045761  0.016984  3.707398  0.032  -0.007263  -0.013404  3.974514  0.007  -0.007249  -0.006999  3.980518  0.013  0.032993  -0.005496  -0.017008  3.971346  0.003
C  C40  1  0.40279864  0.55531127  0.39036158  1  0.04924  -0.017828  3.698975  -0.03  5.3e-05  0.007169  3.968811  -0.009  -0.001793  0.002643  3.972358  -0.014  0.02949  9.5e-05  0.009122  3.966082  -0.005
C  C41  1  0.50569512  0.64778462  0.77575771  1  -0.002626  -0.000368  3.649618  0.0  -0.058376  -0.001155  3.918917  -0.001  -0.055494  -0.000789  3.931238  -0.001  -0.070473  -0.060062  -0.001537  3.909957  -0.001
C  C42  1  0.49290967  0.34970296  0.23740198  1  -0.005403  -3.9e-05  3.637189  0.0  -0.057998  -3e-05  3.902061  0.001  -0.05555  -0.000238  3.914776  0.0  -0.07012  -0.059947  -1.4e-05  3.892876  0.001
C  C43  1  0.27492889  0.03008997  0.96614475  1  0.712777  -0.000172  3.778144  0.0  0.668189  -0.000201  4.079381  0.0  0.701203  -0.000218  4.070793  0.0  0.227507  0.645507  -0.00024  4.084624  0.0
C  C44  1  0.70037719  0.97833436  0.03415180  1  0.722495  0.000128  3.743842  0.0  0.675659  0.000219  4.047103  0.0  0.708798  0.000175  4.037887  0.0  0.237872  0.653096  0.000193  4.052526  0.0
C  C45  1  0.40943573  0.82934265  0.78940073  1  -0.096903  0.000569  3.70676  0.0  -0.142474  0.000751  3.97142  0.001  -0.142536  0.000712  3.985461  0.0  -0.167395  -0.142338  0.000809  3.961649  0.001
C  C46  1  0.58951677  0.16990804  0.21625379  1  -0.093753  -0.000209  3.687982  0.0  -0.138761  -0.000279  3.950061  0.0  -0.138968  -0.00037  3.964031  0.0  -0.164208  -0.138577  -0.000224  3.940317  0.0
C  C47  1  0.31953692  0.84578922  0.94716739  1  -0.268502  0.000188  3.670789  0.0  -0.304004  0.000361  3.917286  0.0  -0.310608  0.000364  3.926819  0.0  -0.163937  -0.29937  0.000296  3.910853  0.0
C  C48  1  0.66207412  0.15952471  0.05771865  1  -0.268893  -0.000202  3.661809  0.0  -0.304842  -0.000413  3.911381  0.0  -0.31159  -0.000398  3.920026  0.0  -0.161676  -0.300092  -0.000417  3.904952  0.0
C  C49  1  0.97396600  0.84802042  0.38951216  1  -0.046174  -0.024192  3.681118  -0.037  -0.093209  0.008109  3.957828  -0.012  -0.097385  0.001002  3.963251  -0.018  -0.059469  -0.089033  0.012158  3.955909  -0.008
C  C50  1  0.04460949  0.14373795  0.60277134  1  -0.041344  0.018079  3.699071  0.029  -0.086324  -0.008728  3.980512  0.008  -0.092892  -0.002653  3.981172  0.015  -0.06245  -0.083064  -0.012341  3.977546  0.003
C  C51  1  0.85054700  0.19394707  0.60343025  1  -0.041862  0.025433  3.660963  0.038  -0.090046  -0.005716  3.939983  0.013  -0.094165  0.000877  3.944904  0.02  -0.060124  -0.085973  -0.00952  3.938334  0.01
C  C52  1  0.17255726  0.80458949  0.37989265  1  -0.032417  -0.023491  3.66385  -0.033  -0.076304  0.004354  3.942274  -0.011  -0.081587  -0.001616  3.944581  -0.018  -0.058432  -0.072483  0.007497  3.939583  -0.007
N  N53  1  0.86801182  0.71113525  0.49355670  1  -0.093385  0.835949  2.819569  0.669  -0.106712  0.688439  3.166138  0.525  -0.087835  0.755124  3.141423  0.582  -0.321853  -0.128658  0.630707  3.186833  0.478
N  N54  1  0.15171879  0.28427136  0.51007444  1  -0.123285  -0.664428  2.848443  -0.534  -0.148898  -0.502855  3.201404  -0.387  -0.114991  -0.62149  3.16615  -0.485  -0.346198  -0.166443  -0.430786  3.216887  -0.327
N  N55  1  0.80387412  0.37428010  0.60745159  1  -0.085767  -0.829124  2.801088  -0.662  -0.100126  -0.673808  3.144581  -0.514  -0.081207  -0.747502  3.120351  -0.575  -0.322957  -0.12244  -0.609745  3.16528  -0.461
N  N56  1  0.21441382  0.61988810  0.40001612  1  -0.109235  0.700829  2.831321  0.56  -0.136241  0.540806  3.185337  0.411  -0.108293  0.648821  3.154419  0.502  -0.341601  -0.155761  0.456867  3.202405  0.344
N  N57  1  0.55666417  0.61637243  0.63148026  1  -0.24028  0.005303  3.316881  0.004  -0.175919  0.006896  3.586882  0.006  -0.1916  0.006209  3.607177  0.005  -0.338403  -0.163972  0.007813  3.571224  0.006
N  N58  1  0.46019851  0.37747675  0.37965121  1  -0.243319  -0.008463  3.274829  -0.007  -0.181257  -0.013105  3.544732  -0.01  -0.196816  -0.008993  3.564863  -0.007  -0.337017  -0.16745  -0.018936  3.528248  -0.015
O  O59  1  0.90977298  0.52684736  0.28501733  1  -0.623454  -0.003818  1.917783  -0.004  -0.587465  -0.001232  2.163984  -0.002  -0.621207  0.00072  2.158633  -0.001  -0.313449  -0.559598  0.004035  2.164263  0.003
O  O60  1  0.06407068  0.47292200  0.70264028  1  -0.58091  -0.019552  2.053607  -0.017  -0.524073  -0.019017  2.307268  -0.016  -0.578199  -0.011436  2.314527  -0.009  -0.28314  -0.491642  -0.019463  2.302371  -0.016
O  O61  1  0.12004530  0.05427431  0.07980778  1  -0.589694  0.003184  2.096339  0.002  -0.531657  0.005174  2.319208  0.004  -0.557631  0.004275  2.302934  0.003  -0.331287  -0.512972  0.006024  2.328489  0.005
O  O62  1  0.84743136  0.95961106  0.91203704  1  -0.571401  -0.002919  2.113044  -0.002  -0.514692  -0.004132  2.332829  -0.003  -0.539297  -0.003921  2.317466  -0.003  -0.331897  -0.497007  -0.004495  2.34196  -0.003
O  O63  1  0.37920331  0.14319978  0.88496733  1  -0.61105  -0.001448  1.917547  -0.001  -0.568325  -0.002031  2.139635  -0.001  -0.590397  -0.002463  2.130429  -0.001  -0.314944  -0.552388  -0.001605  2.14525  -0.001
O  O64  1  0.60201404  0.86223432  0.11583692  1  -0.592524  0.000932  1.936291  0.0  -0.547728  0.001528  2.155256  0.001  -0.570244  0.001986  2.14708  0.001  -0.298536  -0.531715  0.000985  2.160336  0.0
O  O65  1  0.06315473  0.28590024  0.20402537  1  -0.644154  -0.001071  1.968999  0.0  -0.585549  -0.002654  2.186773  -0.001  -0.615635  -0.002128  2.176244  -0.001  -0.335946  -0.562982  -0.006036  2.192538  -0.004
O  O66  1  0.91009003  0.71748107  0.78157464  1  -0.615398  0.007521  1.967497  0.006  -0.557413  0.011745  2.183204  0.009  -0.590059  0.009151  2.177099  0.007  -0.305063  -0.5343  0.014868  2.186432  0.012
