# generated using pymatgen
data_ZnH10C14N4O3
_symmetry_space_group_name_H-M   'P 1'
_cell_length_a   5.46841186
_cell_length_b   7.96202903
_cell_length_c   28.51816066
_cell_angle_alpha   90.00039626
_cell_angle_beta   90.00014900
_cell_angle_gamma   92.71101698
_symmetry_Int_Tables_number   1
_chemical_formula_structural   ZnH10C14N4O3
_chemical_formula_sum   'Zn4 H40 C56 N16 O12'
_cell_volume   1240.28116772
_cell_formula_units_Z   4
loop_
 _symmetry_equiv_pos_site_id
 _symmetry_equiv_pos_as_xyz
  1  'x, y, z'
loop_
 _atom_site_type_symbol
 _atom_site_label
 _atom_site_symmetry_multiplicity
 _atom_site_fract_x
 _atom_site_fract_y
 _atom_site_fract_z
 _atom_site_occupancy
 _atom_site_hle17_bader_spin_density
 _atom_site_hle17_ddec_charge
 _atom_site_hle17_ddec_spin_density
 _atom_site_hle17_ddec_sum_bond_order
 _atom_site_hle17_magmom
 _atom_site_hse06_10hf_bader_spin_density
 _atom_site_hse06_10hf_ddec_charge
 _atom_site_hse06_10hf_ddec_spin_density
 _atom_site_hse06_10hf_ddec_sum_bond_order
 _atom_site_hse06_10hf_magmom
 _atom_site_hse06_bader_spin_density
 _atom_site_hse06_ddec_charge
 _atom_site_hse06_ddec_spin_density
 _atom_site_hse06_ddec_sum_bond_order
 _atom_site_hse06_magmom
 _atom_site_pbe_bader_spin_density
 _atom_site_pbe_cm5_charge
 _atom_site_pbe_ddec_charge
 _atom_site_pbe_ddec_spin_density
 _atom_site_pbe_ddec_sum_bond_order
 _atom_site_pbe_magmom
Zn  Zn0  1  0.96984630  0.70456603  0.69228049  1  0  1.026526  0  1.806669  0  0  0.837695  0  2.273146  0  0  0.884401  0  2.21828  0  0  0.717025  0.805027  0  2.310973  0
Zn  Zn1  1  0.53015730  0.79543414  0.19228188  1  0  1.026515  0  1.806693  0  0  0.837685  0  2.273164  0  0  0.884391  0  2.218296  0  0  0.716999  0.805014  0  2.31098  0
Zn  Zn2  1  0.03015230  0.29543818  0.30771964  1  0  1.026498  0  1.806687  0  0  0.837664  0  2.273162  0  0  0.884373  0  2.218297  0  0  0.717007  0.804994  0  2.310976  0
Zn  Zn3  1  0.46984483  0.20456875  0.80771685  1  0  1.026456  0  1.806732  0  0  0.837623  0  2.273231  0  0  0.884333  0  2.218362  0  0  0.716959  0.804949  0  2.311042  0
H  H4  1  0.71531048  0.98019893  0.70259938  1  0  0.404398  0  0.907716  0  0  0.359803  0  0.993793  0  0  0.371271  0  0.977544  0  0  0.288096  0.351739  0  1.005201  0
H  H5  1  0.78469182  0.51980530  0.20260037  1  0  0.40443  0  0.907696  0  0  0.359821  0  0.993787  0  0  0.371288  0  0.977538  0  0  0.288123  0.351754  0  1.005197  0
H  H6  1  0.28468410  0.01980155  0.29739936  1  0  0.404362  0  0.907787  0  0  0.359748  0  0.99388  0  0  0.371216  0  0.97763  0  0  0.288083  0.351684  0  1.005286  0
H  H7  1  0.21531301  0.48020637  0.79739871  1  0  0.404419  0  0.907743  0  0  0.359792  0  0.993829  0  0  0.37126  0  0.977579  0  0  0.288102  0.351726  0  1.005241  0
H  H8  1  0.54321453  0.83753317  0.67419905  1  0  0.447158  0  0.844159  0  0  0.414798  0  0.908215  0  0  0.426451  0  0.891321  0  0  0.298139  0.406532  0  0.920182  0
H  H9  1  0.95678540  0.66246911  0.17420075  1  0  0.447162  0  0.844171  0  0  0.414854  0  0.908146  0  0  0.426508  0  0.89125  0  0  0.298205  0.406584  0  0.92012  0
H  H10  1  0.45678005  0.16246732  0.32580074  1  0  0.447204  0  0.844111  0  0  0.41483  0  0.908192  0  0  0.426484  0  0.891296  0  0  0.298148  0.406561  0  0.920166  0
H  H11  1  0.04321906  0.33753879  0.82579833  1  0  0.447194  0  0.844136  0  0  0.414912  0  0.908081  0  0  0.426566  0  0.891185  0  0  0.298193  0.406642  0  0.920054  0
H  H12  1  0.60764447  0.87759288  0.59030765  1  0  0.093923  0  0.961178  0  0  0.10377  0  1.025123  0  0  0.106733  0  1.022907  0  0  0.102262  0.101646  0  1.026691  0
H  H13  1  0.89236016  0.62239331  0.09030609  1  0  0.093948  0  0.961135  0  0  0.103758  0  1.025137  0  0  0.106717  0  1.022929  0  0  0.102266  0.101629  0  1.026714  0
H  H14  1  0.39235326  0.12240253  0.40969284  1  0  0.093891  0  0.961153  0  0  0.103713  0  1.025145  0  0  0.106675  0  1.022929  0  0  0.102233  0.101569  0  1.026737  0
H  H15  1  0.10764306  0.37760201  0.90969475  1  0  0.093879  0  0.961209  0  0  0.103688  0  1.025222  0  0  0.10665  0  1.023004  0  0  0.102272  0.101573  0  1.026785  0
H  H16  1  0.99289774  0.60484869  0.52920747  1  0  0.095134  0  0.986252  0  0  0.103849  0  1.052781  0  0  0.10666  0  1.051257  0  0  0.10227  0.101826  0  1.053887  0
H  H17  1  0.50710333  0.89514605  0.02920974  1  0  0.09507  0  0.986137  0  0  0.103794  0  1.052661  0  0  0.106606  0  1.051136  0  0  0.102258  0.101763  0  1.053802  0
H  H18  1  0.00710447  0.39513658  0.47079336  1  0  0.095136  0  0.98629  0  0  0.103876  0  1.052798  0  0  0.106692  0  1.051272  0  0  0.102274  0.101842  0  1.053923  0
H  H19  1  0.49288847  0.10486329  0.97079040  1  0  0.095097  0  0.986216  0  0  0.103871  0  1.052681  0  0  0.106687  0  1.051158  0  0  0.10229  0.101842  0  1.053798  0
H  H20  1  0.81048880  0.89195753  0.51357450  1  0  0.080835  0  0.98387  0  0  0.092977  0  1.046841  0  0  0.095494  0  1.045883  0  0  0.096859  0.091156  0  1.047654  0
H  H21  1  0.68951739  0.60803547  0.01357386  1  0  0.080822  0  0.98383  0  0  0.092963  0  1.046789  0  0  0.09548  0  1.045828  0  0  0.096874  0.091143  0  1.04761  0
H  H22  1  0.18951561  0.10803149  0.48642633  1  0  0.0808  0  0.983876  0  0  0.092956  0  1.046824  0  0  0.095477  0  1.045856  0  0  0.096848  0.091134  0  1.047648  0
H  H23  1  0.31047972  0.39195364  0.98642733  1  0  0.080806  0  0.983899  0  0  0.092929  0  1.046889  0  0  0.095442  0  1.045939  0  0  0.096883  0.091109  0  1.047699  0
H  H24  1  0.19591213  0.61411021  0.45189444  1  0  0.095261  0  0.97941  0  0  0.105125  0  1.042326  0  0  0.108307  0  1.040693  0  0  0.101449  0.102855  0  1.043593  0
H  H25  1  0.30408258  0.88589078  0.95189787  1  0  0.095252  0  0.979546  0  0  0.105158  0  1.042404  0  0  0.108342  0  1.040768  0  0  0.101469  0.102889  0  1.04367  0
H  H26  1  0.80409702  0.38587119  0.54810570  1  0  0.095205  0  0.979444  0  0  0.105087  0  1.042352  0  0  0.108272  0  1.040716  0  0  0.101459  0.102816  0  1.043622  0
H  H27  1  0.69590519  0.11411484  0.04810227  1  0  0.095273  0  0.979552  0  0  0.10516  0  1.042423  0  0  0.108346  0  1.040785  0  0  0.101493  0.102889  0  1.043695  0
H  H28  1  0.92389018  0.94571296  0.44916019  1  0  0.082705  0  0.982617  0  0  0.094077  0  1.045922  0  0  0.096393  0  1.045401  0  0  0.098306  0.092428  0  1.046384  0
H  H29  1  0.57609812  0.55430413  0.94916077  1  0  0.082741  0  0.982562  0  0  0.094067  0  1.045917  0  0  0.096389  0  1.045385  0  0  0.098278  0.092415  0  1.046379  0
H  H30  1  0.07612557  0.05427967  0.55084310  1  0  0.08273  0  0.982764  0  0  0.093994  0  1.04614  0  0  0.096307  0  1.045626  0  0  0.098307  0.092346  0  1.046601  0
H  H31  1  0.42388588  0.44570028  0.05084042  1  0  0.082785  0  0.982581  0  0  0.094074  0  1.045968  0  0  0.096395  0  1.045437  0  0  0.09828  0.092425  0  1.046429  0
H  H32  1  0.40569404  0.56143019  0.39835663  1  0  0.108418  0  0.959899  0  0  0.118543  0  1.02157  0  0  0.121705  0  1.02009  0  0  0.104575  0.11627  0  1.022703  0
H  H33  1  0.09431304  0.93857301  0.89835689  1  0  0.108395  0  0.95988  0  0  0.118548  0  1.021518  0  0  0.121708  0  1.020042  0  0  0.104566  0.116278  0  1.022646  0
H  H34  1  0.59432051  0.43856875  0.60164176  1  0  0.108379  0  0.959866  0  0  0.118532  0  1.021504  0  0  0.121689  0  1.020022  0  0  0.104574  0.116263  0  1.022636  0
H  H35  1  0.90568967  0.06141729  0.10164184  1  0  0.108345  0  0.959903  0  0  0.118477  0  1.021586  0  0  0.121635  0  1.02011  0  0  0.104574  0.11621  0  1.022714  0
H  H36  1  0.16908445  0.91669362  0.37786400  1  0  0.092252  0  0.961255  0  0  0.10445  0  1.022251  0  0  0.107243  0  1.020904  0  0  0.102878  0.102421  0  1.023332  0
H  H37  1  0.33090871  0.58331932  0.87786406  1  0  0.09232  0  0.961232  0  0  0.104525  0  1.022204  0  0  0.107316  0  1.020859  0  0  0.102925  0.102496  0  1.023284  0
H  H38  1  0.83093570  0.08330650  0.62213930  1  0  0.092258  0  0.961281  0  0  0.104428  0  1.022304  0  0  0.107217  0  1.020959  0  0  0.102946  0.102402  0  1.02338  0
H  H39  1  0.66907673  0.41668129  0.12213678  1  0  0.092281  0  0.961287  0  0  0.104481  0  1.022273  0  0  0.107269  0  1.020929  0  0  0.10289  0.102453  0  1.023354  0
H  H40  1  0.64357710  0.54120255  0.32632678  1  0  0.094435  0  0.953295  0  0  0.103521  0  1.017761  0  0  0.106146  0  1.01686  0  0  0.10178  0.101607  0  1.018553  0
H  H41  1  0.85642445  0.95879733  0.82632757  1  0  0.09444  0  0.95334  0  0  0.103519  0  1.01781  0  0  0.10615  0  1.016898  0  0  0.10177  0.10161  0  1.018591  0
H  H42  1  0.35644329  0.45880008  0.67367231  1  0  0.09448  0  0.953313  0  0  0.103589  0  1.017745  0  0  0.106212  0  1.016858  0  0  0.101792  0.101676  0  1.01854  0
H  H43  1  0.14357121  0.04119559  0.17367222  1  0  0.094471  0  0.953358  0  0  0.103563  0  1.017803  0  0  0.106186  0  1.016916  0  0  0.101787  0.101653  0  1.018593  0
C  C44  1  0.15957809  0.72562792  0.61083746  1  0  0.632307  0  3.903219  0  0  0.583641  0  4.186879  0  0  0.617628  0  4.181711  0  0  0.200295  0.560623  0  4.189548  0
C  C45  1  0.34042267  0.77436543  0.11083897  1  0  0.632414  0  3.903041  0  0  0.58379  0  4.18665  0  0  0.617769  0  4.181496  0  0  0.200354  0.560766  0  4.189331  0
C  C46  1  0.84041429  0.27436882  0.38916092  1  0  0.632312  0  3.903203  0  0  0.583661  0  4.186852  0  0  0.617666  0  4.181654  0  0  0.20026  0.560646  0  4.18952  0
C  C47  1  0.65957448  0.22564257  0.88916082  1  0  0.632433  0  3.902988  0  0  0.583841  0  4.186581  0  0  0.617832  0  4.181414  0  0  0.200395  0.56082  0  4.189244  0
C  C48  1  0.28659197  0.73889619  0.56497235  1  0  -0.079965  0  3.780449  0  0  -0.054947  0  4.011878  0  0  -0.064536  0  4.035416  0  0  -0.021806  -0.048755  0  3.996011  0
C  C49  1  0.21341214  0.76109971  0.06497271  1  0  -0.079995  0  3.780449  0  0  -0.054994  0  4.011847  0  0  -0.064576  0  4.035387  0  0  -0.021771  -0.048793  0  3.995978  0
C  C50  1  0.71340526  0.26109418  0.43502639  1  0  -0.07997  0  3.780325  0  0  -0.054984  0  4.011803  0  0  -0.064575  0  4.035333  0  0  -0.021847  -0.04879  0  3.995931  0
C  C51  1  0.78658709  0.23891079  0.93502778  1  0  -0.080103  0  3.780389  0  0  -0.055115  0  4.011817  0  0  -0.064706  0  4.035356  0  0  -0.021871  -0.048913  0  3.995941  0
C  C52  1  0.51699690  0.82109277  0.55986486  1  0  -0.039318  0  3.718094  0  0  -0.066911  0  3.971791  0  0  -0.064577  0  3.990329  0  0  -0.078775  -0.068226  0  3.95918  0
C  C53  1  0.98300218  0.67889649  0.05986451  1  0  -0.039333  0  3.717934  0  0  -0.066897  0  3.971604  0  0  -0.064561  0  3.990135  0  0  -0.078767  -0.068212  0  3.959013  0
C  C54  1  0.48299719  0.17890268  0.44013527  1  0  -0.039215  0  3.717892  0  0  -0.066799  0  3.971588  0  0  -0.064462  0  3.990121  0  0  -0.078755  -0.068099  0  3.958994  0
C  C55  1  0.01699605  0.32110394  0.94013703  1  0  -0.039194  0  3.71799  0  0  -0.066766  0  3.971724  0  0  -0.064424  0  3.990253  0  0  -0.078784  -0.068092  0  3.959113  0
C  C56  1  0.17353033  0.66592158  0.52529718  1  0  -0.066258  0  3.743999  0  0  -0.091287  0  3.993499  0  0  -0.090092  0  4.013783  0  0  -0.084815  -0.09182  0  3.979675  0
C  C57  1  0.32646626  0.83407718  0.02529985  1  0  -0.066081  0  3.744083  0  0  -0.091105  0  3.993591  0  0  -0.089913  0  4.013878  0  0  -0.084818  -0.091651  0  3.979775  0
C  C58  1  0.82647446  0.33407121  0.47470190  1  0  -0.066282  0  3.743974  0  0  -0.091333  0  3.993472  0  0  -0.090144  0  4.013757  0  0  -0.084815  -0.091869  0  3.979649  0
C  C59  1  0.67352188  0.16593221  0.97470029  1  0  -0.066128  0  3.744041  0  0  -0.091171  0  3.993504  0  0  -0.089987  0  4.013798  0  0  -0.084842  -0.091704  0  3.979679  0
C  C60  1  0.63063465  0.82856248  0.51630283  1  0  -0.107521  0  3.726531  0  0  -0.125658  0  3.976554  0  0  -0.130139  0  3.998021  0  0  -0.086694  -0.122696  0  3.961998  0
C  C61  1  0.86936831  0.67143442  0.01630136  1  0  -0.107554  0  3.726594  0  0  -0.125669  0  3.976586  0  0  -0.130147  0  3.998054  0  0  -0.086786  -0.122715  0  3.96203  0
C  C62  1  0.36936466  0.17143039  0.48369765  1  0  -0.10757  0  3.726665  0  0  -0.125662  0  3.976645  0  0  -0.130139  0  3.998113  0  0  -0.086719  -0.12271  0  3.962093  0
C  C63  1  0.13063175  0.32856599  0.98369948  1  0  -0.107528  0  3.726562  0  0  -0.125648  0  3.976553  0  0  -0.13013  0  3.998018  0  0  -0.086744  -0.122687  0  3.961997  0
C  C64  1  0.28878815  0.67201988  0.48195291  1  0  -0.115076  0  3.727397  0  0  -0.132659  0  3.976033  0  0  -0.137455  0  3.997578  0  0  -0.089137  -0.129493  0  3.961439  0
C  C65  1  0.21121323  0.82798934  0.98195513  1  0  -0.115238  0  3.727604  0  0  -0.132868  0  3.976246  0  0  -0.137666  0  3.997791  0  0  -0.089246  -0.129702  0  3.961649  0
C  C66  1  0.71121652  0.32797165  0.51804618  1  0  -0.115032  0  3.72749  0  0  -0.132609  0  3.976124  0  0  -0.137404  0  3.997675  0  0  -0.089151  -0.129438  0  3.961523  0
C  C67  1  0.78877662  0.17201877  0.01804501  1  0  -0.115205  0  3.72776  0  0  -0.132835  0  3.976392  0  0  -0.137631  0  3.997937  0  0  -0.089205  -0.129672  0  3.961802  0
C  C68  1  0.52146780  0.75269596  0.47637660  1  0  0.062702  0  3.757978  0  0  0.075383  0  3.987663  0  0  0.077055  0  4.011358  0  0  -0.001412  0.074395  0  3.971492  0
C  C69  1  0.97852841  0.74730536  0.97637810  1  0  0.062723  0  3.758048  0  0  0.075429  0  3.987727  0  0  0.077101  0  4.011418  0  0  -0.001362  0.074454  0  3.97154  0
C  C70  1  0.47853699  0.24729683  0.52362249  1  0  0.062614  0  3.758057  0  0  0.0753  0  3.987845  0  0  0.07696  0  4.011562  0  0  -0.00143  0.074319  0  3.971665  0
C  C71  1  0.02146251  0.25269518  0.02362169  1  0  0.062707  0  3.758062  0  0  0.075455  0  3.987683  0  0  0.07713  0  4.01137  0  0  -0.001392  0.074469  0  3.971505  0
C  C72  1  0.64928129  0.75224867  0.43071800  1  0  0.052517  0  3.752188  0  0  0.068511  0  3.98121  0  0  0.068717  0  4.004617  0  0  -0.00308  0.068361  0  3.965274  0
C  C73  1  0.85071902  0.74776274  0.93071874  1  0  0.052528  0  3.75224  0  0  0.06846  0  3.981353  0  0  0.068669  0  4.004763  0  0  -0.003124  0.068307  0  3.965412  0
C  C74  1  0.35072167  0.24774414  0.56928283  1  0  0.052634  0  3.752029  0  0  0.068446  0  3.981329  0  0  0.068652  0  4.004742  0  0  -0.003095  0.068295  0  3.965389  0
C  C75  1  0.14927971  0.25224272  0.06928245  1  0  0.052519  0  3.75238  0  0  0.068442  0  3.981461  0  0  0.06865  0  4.004868  0  0  -0.003101  0.068301  0  3.965516  0
C  C76  1  0.86161173  0.85505576  0.42272571  1  0  -0.09864  0  3.739325  0  0  -0.11734  0  3.987316  0  0  -0.120261  0  4.009054  0  0  -0.085967  -0.11533  0  3.972562  0
C  C77  1  0.63838116  0.64495555  0.92272649  1  0  -0.098612  0  3.739216  0  0  -0.117239  0  3.987193  0  0  -0.120164  0  4.008932  0  0  -0.085848  -0.115218  0  3.972433  0
C  C78  1  0.13839854  0.14493695  0.57727689  1  0  -0.098734  0  3.73976  0  0  -0.117275  0  3.987796  0  0  -0.120198  0  4.009538  0  0  -0.085996  -0.115263  0  3.973041  0
C  C79  1  0.36161001  0.35504750  0.07727470  1  0  -0.098752  0  3.739504  0  0  -0.117358  0  3.987483  0  0  -0.120283  0  4.00922  0  0  -0.085923  -0.115339  0  3.97272  0
C  C80  1  0.57021865  0.64282718  0.39431266  1  0  -0.101181  0  3.700485  0  0  -0.120966  0  3.951257  0  0  -0.124016  0  3.972505  0  0  -0.085776  -0.118827  0  3.936826  0
C  C81  1  0.92978220  0.85717573  0.89431399  1  0  -0.101148  0  3.700442  0  0  -0.120943  0  3.951231  0  0  -0.123996  0  3.972482  0  0  -0.085787  -0.118803  0  3.936797  0
C  C82  1  0.42979224  0.35717182  0.60568678  1  0  -0.101107  0  3.70034  0  0  -0.120851  0  3.951189  0  0  -0.123893  0  3.972433  0  0  -0.085771  -0.118712  0  3.936755  0
C  C83  1  0.07021566  0.14282093  0.10568614  1  0  -0.101097  0  3.700523  0  0  -0.120891  0  3.951325  0  0  -0.123939  0  3.972573  0  0  -0.08581  -0.11876  0  3.936902  0
C  C84  1  0.99948162  0.84107542  0.38215439  1  0  -0.07731  0  3.727827  0  0  -0.101879  0  3.977341  0  0  -0.103232  0  3.997371  0  0  -0.083909  -0.100845  0  3.96371  0
C  C85  1  0.50050947  0.65894116  0.88215372  1  0  -0.077438  0  3.728086  0  0  -0.101985  0  3.977594  0  0  -0.103343  0  3.997638  0  0  -0.083991  -0.100956  0  3.963975  0
C  C86  1  0.00053110  0.15892355  0.61784645  1  0  -0.077168  0  3.728048  0  0  -0.10168  0  3.977561  0  0  -0.10302  0  3.997573  0  0  -0.083901  -0.100652  0  3.96393  0
C  C87  1  0.49947647  0.34106448  0.11784641  1  0  -0.077366  0  3.728082  0  0  -0.101911  0  3.977502  0  0  -0.103268  0  3.99755  0  0  -0.083938  -0.10088  0  3.963885  0
C  C88  1  0.70646956  0.62937981  0.35346713  1  0  -0.080569  0  3.732385  0  0  -0.106719  0  3.986378  0  0  -0.108243  0  4.007278  0  0  -0.089381  -0.105603  0  3.97216  0
C  C89  1  0.79352949  0.87062836  0.85346807  1  0  -0.080469  0  3.732187  0  0  -0.106586  0  3.986198  0  0  -0.108109  0  4.0071  0  0  -0.089258  -0.10547  0  3.97197  0
C  C90  1  0.29354208  0.37062673  0.64653231  1  0  -0.080624  0  3.732467  0  0  -0.106756  0  3.986504  0  0  -0.108289  0  4.007398  0  0  -0.089323  -0.105641  0  3.972284  0
C  C91  1  0.20646326  0.12937215  0.14653277  1  0  -0.080582  0  3.732243  0  0  -0.106734  0  3.986231  0  0  -0.108265  0  4.007125  0  0  -0.089301  -0.105619  0  3.97202  0
C  C92  1  0.92782377  0.72353664  0.34764221  1  0  0.000558  0  3.799928  0  0  0.019039  0  4.036372  0  0  0.016935  0  4.058417  0  0  -0.005414  0.020458  0  4.02136  0
C  C93  1  0.57216946  0.77646895  0.84764286  1  0  0.000446  0  3.799879  0  0  0.018854  0  4.036434  0  0  0.016746  0  4.058484  0  0  -0.005525  0.020278  0  4.021423  0
C  C94  1  0.07219128  0.27646733  0.65235722  1  0  0.000526  0  3.799947  0  0  0.018854  0  4.036514  0  0  0.016751  0  4.058559  0  0  -0.005509  0.020279  0  4.021498  0
C  C95  1  0.42781963  0.22353162  0.15235763  1  0  0.000668  0  3.799757  0  0  0.019115  0  4.03615  0  0  0.01701  0  4.058194  0  0  -0.00543  0.020538  0  4.021146  0
C  C96  1  0.08887834  0.69124475  0.30820464  1  0  0.303384  0  3.761188  0  0  0.273201  0  4.029851  0  0  0.285146  0  4.045739  0  0  0.233624  0.265188  0  4.019084  0
C  C97  1  0.41111670  0.80875882  0.80820517  1  0  0.303363  0  3.761227  0  0  0.27318  0  4.029895  0  0  0.285124  0  4.045784  0  0  0.23364  0.265167  0  4.019127  0
C  C98  1  0.91113292  0.30875802  0.69179480  1  0  0.30315  0  3.761262  0  0  0.273172  0  4.029746  0  0  0.285116  0  4.045629  0  0  0.233578  0.265163  0  4.018974  0
C  C99  1  0.58887240  0.19124174  0.19179531  1  0  0.303243  0  3.761248  0  0  0.273207  0  4.029707  0  0  0.285154  0  4.045588  0  0  0.233609  0.265194  0  4.018948  0
N  N100  1  0.34607123  0.71625482  0.25224565  1  0  -0.113313  0  3.246348  0  0  -0.058672  0  3.558176  0  0  -0.067548  0  3.569662  0  0  -0.107841  -0.052545  0  3.550345  0
N  N101  1  0.15392834  0.78374597  0.75224460  1  0  -0.113246  0  3.246298  0  0  -0.058624  0  3.558141  0  0  -0.067498  0  3.569627  0  0  -0.107797  -0.052497  0  3.55031  0
N  N102  1  0.65392895  0.28374684  0.74775238  1  0  -0.113362  0  3.246529  0  0  -0.058734  0  3.558399  0  0  -0.067612  0  3.569887  0  0  -0.107706  -0.0526  0  3.550555  0
N  N103  1  0.84606844  0.21625826  0.24775448  1  0  -0.113299  0  3.246285  0  0  -0.058677  0  3.558148  0  0  -0.067553  0  3.569635  0  0  -0.107856  -0.052552  0  3.550318  0
N  N104  1  0.28521199  0.55537644  0.25520605  1  0  -0.048926  0  2.934045  0  0  -0.053485  0  3.218673  0  0  -0.048991  0  3.230502  0  0  -0.090151  -0.056207  0  3.210598  0
N  N105  1  0.21479127  0.94462438  0.75520569  1  0  -0.048951  0  2.9341  0  0  -0.053532  0  3.218742  0  0  -0.04904  0  3.230573  0  0  -0.090199  -0.056252  0  3.210657  0
N  N106  1  0.71478649  0.44462651  0.74479268  1  0  -0.048882  0  2.934186  0  0  -0.053452  0  3.218865  0  0  -0.048955  0  3.230693  0  0  -0.090234  -0.056171  0  3.210785  0
N  N107  1  0.78521269  0.05537849  0.24479445  1  0  -0.048893  0  2.934009  0  0  -0.053459  0  3.218643  0  0  -0.048964  0  3.230471  0  0  -0.090133  -0.056171  0  3.210554  0
N  N108  1  0.12464852  0.53599093  0.29040952  1  0  -0.340476  0  3.213586  0  0  -0.270963  0  3.521251  0  0  -0.289676  0  3.530933  0  0  -0.230294  -0.25838  0  3.514612  0
N  N109  1  0.37535149  0.96400958  0.79040928  1  0  -0.340361  0  3.213658  0  0  -0.270773  0  3.521207  0  0  -0.289492  0  3.530911  0  0  -0.230195  -0.258187  0  3.514557  0
N  N110  1  0.87535362  0.46401196  0.70959061  1  0  -0.340523  0  3.213709  0  0  -0.271046  0  3.521318  0  0  -0.289763  0  3.531008  0  0  -0.230303  -0.258468  0  3.514685  0
N  N111  1  0.62464857  0.03599082  0.20959120  1  0  -0.340533  0  3.213686  0  0  -0.271034  0  3.52127  0  0  -0.289745  0  3.53095  0  0  -0.230286  -0.258449  0  3.514628  0
N  N112  1  0.22912950  0.80554794  0.28466189  1  0  -0.291577  0  2.99684  0  0  -0.256812  0  3.263065  0  0  -0.268668  0  3.276963  0  0  -0.194877  -0.248853  0  3.253761  0
N  N113  1  0.27086531  0.69445628  0.78466179  1  0  -0.291688  0  2.996915  0  0  -0.256916  0  3.263125  0  0  -0.268771  0  3.277021  0  0  -0.194946  -0.248959  0  3.253829  0
N  N114  1  0.77087836  0.19445739  0.71533614  1  0  -0.291362  0  2.996987  0  0  -0.25667  0  3.263196  0  0  -0.268525  0  3.277095  0  0  -0.194827  -0.248715  0  3.253889  0
N  N115  1  0.72912404  0.30554680  0.21533765  1  0  -0.291509  0  2.99685  0  0  -0.256809  0  3.263068  0  0  -0.268663  0  3.276966  0  0  -0.19486  -0.24885  0  3.253772  0
O  O116  1  0.94361519  0.66114099  0.61354360  1  0  -0.613029  0  1.955422  0  0  -0.551216  0  2.193851  0  0  -0.577725  0  2.186051  0  0  -0.310681  -0.532698  0  2.198536  0
O  O117  1  0.55639394  0.83885077  0.11354438  1  0  -0.613048  0  1.955305  0  0  -0.551273  0  2.193763  0  0  -0.577782  0  2.185971  0  0  -0.310676  -0.532745  0  2.198434  0
O  O118  1  0.05638230  0.33885190  0.38645513  1  0  -0.613023  0  1.955512  0  0  -0.55118  0  2.193911  0  0  -0.57771  0  2.186131  0  0  -0.310601  -0.532647  0  2.198559  0
O  O119  1  0.44360006  0.16116231  0.88645435  1  0  -0.612956  0  1.955231  0  0  -0.551247  0  2.193723  0  0  -0.577761  0  2.185926  0  0  -0.310675  -0.532732  0  2.198417  0
O  O120  1  0.69044360  0.85746494  0.69444410  1  0  -0.828298  0  1.958572  0  0  -0.755407  0  2.198441  0  0  -0.777507  0  2.158814  0  0  -0.575614  -0.739975  0  2.226051  0
O  O121  1  0.80956393  0.64253775  0.19444744  1  0  -0.828353  0  1.958563  0  0  -0.755484  0  2.19841  0  0  -0.777586  0  2.158777  0  0  -0.575696  -0.740042  0  2.226024  0
O  O122  1  0.30955098  0.14253554  0.30555534  1  0  -0.828331  0  1.958558  0  0  -0.755415  0  2.198483  0  0  -0.777517  0  2.158855  0  0  -0.575641  -0.739979  0  2.226092  0
O  O123  1  0.19044625  0.35747259  0.80555234  1  0  -0.828368  0  1.958519  0  0  -0.755483  0  2.198379  0  0  -0.777588  0  2.15875  0  0  -0.575674  -0.740047  0  2.225993  0
O  O124  1  0.26865799  0.77871880  0.64893362  1  0  -0.671047  0  2.034962  0  0  -0.593454  0  2.28133  0  0  -0.623605  0  2.269687  0  0  -0.321931  -0.57228  0  2.288552  0
O  O125  1  0.23134030  0.72128187  0.14893497  1  0  -0.67103  0  2.034986  0  0  -0.593477  0  2.281351  0  0  -0.623616  0  2.269698  0  0  -0.321922  -0.572306  0  2.288581  0
O  O126  1  0.73132197  0.22128190  0.35106512  1  0  -0.670997  0  2.034892  0  0  -0.59341  0  2.281256  0  0  -0.623568  0  2.269611  0  0  -0.321871  -0.572242  0  2.288478  0
O  O127  1  0.76866902  0.27871967  0.85106482  1  0  -0.671091  0  2.034931  0  0  -0.593531  0  2.281263  0  0  -0.62368  0  2.269611  0  0  -0.321933  -0.57236  0  2.288487  0
