# generated using pymatgen
data_ZnH12C18N2(O3F2)2
_symmetry_space_group_name_H-M   'P 1'
_cell_length_a   7.13882666
_cell_length_b   11.33042903
_cell_length_c   11.33042178
_cell_angle_alpha   89.89646227
_cell_angle_beta   100.05134036
_cell_angle_gamma   100.05110263
_symmetry_Int_Tables_number   1
_chemical_formula_structural   ZnH12C18N2(O3F2)2
_chemical_formula_sum   'Zn2 H24 C36 N4 O12 F8'
_cell_volume   888.16810012
_cell_formula_units_Z   2
loop_
 _symmetry_equiv_pos_site_id
 _symmetry_equiv_pos_as_xyz
  1  'x, y, z'
loop_
 _atom_site_type_symbol
 _atom_site_label
 _atom_site_symmetry_multiplicity
 _atom_site_fract_x
 _atom_site_fract_y
 _atom_site_fract_z
 _atom_site_occupancy
 _atom_site_hle17_bader_spin_density
 _atom_site_hle17_ddec_charge
 _atom_site_hle17_ddec_spin_density
 _atom_site_hle17_ddec_sum_bond_order
 _atom_site_hle17_magmom
 _atom_site_hse06_10hf_bader_spin_density
 _atom_site_hse06_10hf_ddec_charge
 _atom_site_hse06_10hf_ddec_spin_density
 _atom_site_hse06_10hf_ddec_sum_bond_order
 _atom_site_hse06_10hf_magmom
 _atom_site_hse06_bader_spin_density
 _atom_site_hse06_ddec_charge
 _atom_site_hse06_ddec_spin_density
 _atom_site_hse06_ddec_sum_bond_order
 _atom_site_hse06_magmom
 _atom_site_pbe_bader_spin_density
 _atom_site_pbe_cm5_charge
 _atom_site_pbe_ddec_charge
 _atom_site_pbe_ddec_spin_density
 _atom_site_pbe_ddec_sum_bond_order
 _atom_site_pbe_magmom
Zn  Zn0  1  0.00000226  0.50000172  0.00000114  1  0  1.057544  0  1.748946  0  0  0.880539  0  2.181938  0  0  0.927085  0  2.130993  0  0  0.679492  0.847982  0  2.216704  0
Zn  Zn1  1  0.49999981  0.99999944  0.50000027  1  0  1.057464  0  1.749094  0  0  0.880466  0  2.18211  0  0  0.927014  0  2.131166  0  0  0.679463  0.847913  0  2.216879  0
H  H2  1  0.96411835  0.69254085  0.81404172  1  0  0.087553  0  0.972611  0  0  0.091788  0  1.04151  0  0  0.094268  0  1.038985  0  0  0.112918  0.089923  0  1.043392  0
H  H3  1  0.53588327  0.18596176  0.30745891  1  0  0.087554  0  0.972583  0  0  0.091798  0  1.041479  0  0  0.094278  0  1.038956  0  0  0.112913  0.089932  0  1.043363  0
H  H4  1  0.03588274  0.30746092  0.18596156  1  0  0.087573  0  0.972502  0  0  0.091738  0  1.041471  0  0  0.094214  0  1.038953  0  0  0.11291  0.089876  0  1.043347  0
H  H5  1  0.46411804  0.81403555  0.69254173  1  0  0.087519  0  0.972556  0  0  0.091772  0  1.041449  0  0  0.094247  0  1.038932  0  0  0.1129  0.089905  0  1.043335  0
H  H6  1  0.96521684  0.90897501  0.80512237  1  0  0.114237  0  0.955951  0  0  0.123618  0  1.016085  0  0  0.126825  0  1.015125  0  0  0.109266  0.121289  0  1.016941  0
H  H7  1  0.53477739  0.19487723  0.09102459  1  0  0.114211  0  0.955986  0  0  0.123592  0  1.016132  0  0  0.126797  0  1.015174  0  0  0.109257  0.121262  0  1.016985  0
H  H8  1  0.03477701  0.09102667  0.19487667  1  0  0.114235  0  0.955946  0  0  0.12361  0  1.016098  0  0  0.126808  0  1.015153  0  0  0.109267  0.121284  0  1.01695  0
H  H9  1  0.46521968  0.80512002  0.90897740  1  0  0.114206  0  0.955953  0  0  0.123587  0  1.0161  0  0  0.126785  0  1.015155  0  0  0.109252  0.121253  0  1.016961  0
H  H10  1  0.03333653  0.91467406  0.19407494  1  0  0.115544  0  0.951022  0  0  0.125907  0  1.009788  0  0  0.129422  0  1.00804  0  0  0.11072  0.123268  0  1.011431  0
H  H11  1  0.46666837  0.80592462  0.08532846  1  0  0.115524  0  0.951032  0  0  0.125886  0  1.009807  0  0  0.129401  0  1.008059  0  0  0.110728  0.123246  0  1.011449  0
H  H12  1  0.96666066  0.08532945  0.80592531  1  0  0.11558  0  0.951063  0  0  0.125941  0  1.009824  0  0  0.129424  0  1.008121  0  0  0.110762  0.123293  0  1.011475  0
H  H13  1  0.53332843  0.19407174  0.91467173  1  0  0.115555  0  0.951002  0  0  0.125932  0  1.009745  0  0  0.129423  0  1.008031  0  0  0.110745  0.123279  0  1.011401  0
H  H14  1  0.03275797  0.69782953  0.18385270  1  0  0.093216  0  0.959683  0  0  0.096725  0  1.029483  0  0  0.099351  0  1.026794  0  0  0.116213  0.094504  0  1.032104  0
H  H15  1  0.46725357  0.81615257  0.30217689  1  0  0.093138  0  0.959782  0  0  0.096672  0  1.029548  0  0  0.0993  0  1.026856  0  0  0.116212  0.094453  0  1.032169  0
H  H16  1  0.96725282  0.30217683  0.81615155  1  0  0.093164  0  0.959795  0  0  0.096702  0  1.029558  0  0  0.099201  0  1.027069  0  0  0.116206  0.094482  0  1.032178  0
H  H17  1  0.53274488  0.18384470  0.69782346  1  0  0.093139  0  0.959776  0  0  0.096674  0  1.029543  0  0  0.099173  0  1.027053  0  0  0.116205  0.094453  0  1.032162  0
H  H18  1  0.64418273  0.43196389  0.00430591  1  0  0.403288  0  0.911248  0  0  0.370455  0  0.979155  0  0  0.382253  0  0.961921  0  0  0.280809  0.362135  0  0.991279  0
H  H19  1  0.85581775  0.99569255  0.56803883  1  0  0.40325  0  0.911298  0  0  0.370411  0  0.979212  0  0  0.38221  0  0.961978  0  0  0.280784  0.362091  0  0.991336  0
H  H20  1  0.35581818  0.56803789  0.99569117  1  0  0.403308  0  0.911229  0  0  0.370423  0  0.979225  0  0  0.382227  0  0.961981  0  0  0.280756  0.362102  0  0.99135  0
H  H21  1  0.14418141  0.00430741  0.43196249  1  0  0.403252  0  0.911299  0  0  0.370419  0  0.979203  0  0  0.382222  0  0.961962  0  0  0.280782  0.3621  0  0.991327  0
H  H22  1  0.61345328  0.49814368  0.88181132  1  0  0.429077  0  0.859383  0  0  0.397947  0  0.924622  0  0  0.408206  0  0.909621  0  0  0.290819  0.390635  0  0.93533  0
H  H23  1  0.88654705  0.11818712  0.50185569  1  0  0.429083  0  0.859367  0  0  0.39796  0  0.924601  0  0  0.408219  0  0.909599  0  0  0.290838  0.39065  0  0.935306  0
H  H24  1  0.38655000  0.50185635  0.11818511  1  0  0.429081  0  0.859309  0  0  0.397953  0  0.924591  0  0  0.40822  0  0.909572  0  0  0.290855  0.390641  0  0.935299  0
H  H25  1  0.11345349  0.88181286  0.49814400  1  0  0.429029  0  0.859361  0  0  0.397898  0  0.924671  0  0  0.408164  0  0.909654  0  0  0.290815  0.390587  0  0.935378  0
C  C26  1  0.97751417  0.74560374  0.89578403  1  0  0.132791  0  3.696526  0  0  0.100535  0  3.947206  0  0  0.107204  0  3.966049  0  0  0.045916  0.096217  0  3.934328  0
C  C27  1  0.52248809  0.10421788  0.25439764  1  0  0.13279  0  3.696476  0  0  0.100536  0  3.947175  0  0  0.107203  0  3.966022  0  0  0.04595  0.096219  0  3.934294  0
C  C28  1  0.02248557  0.25439892  0.10421382  1  0  0.132762  0  3.696592  0  0  0.100583  0  3.94728  0  0  0.107275  0  3.966075  0  0  0.045952  0.096264  0  3.934406  0
C  C29  1  0.47751252  0.89578210  0.74560471  1  0  0.132831  0  3.696593  0  0  0.10057  0  3.947292  0  0  0.107263  0  3.966088  0  0  0.045934  0.096252  0  3.934412  0
C  C30  1  0.97909653  0.86812145  0.89249893  1  0  -0.151869  0  3.698364  0  0  -0.170915  0  3.949134  0  0  -0.178663  0  3.971048  0  0  -0.080216  -0.165864  0  3.934288  0
C  C31  1  0.52090142  0.10750077  0.13187710  1  0  -0.151902  0  3.698462  0  0  -0.170945  0  3.949224  0  0  -0.178695  0  3.97114  0  0  -0.080255  -0.165894  0  3.934377  0
C  C32  1  0.02089969  0.13187847  0.10749945  1  0  -0.151963  0  3.698448  0  0  -0.17101  0  3.949183  0  0  -0.178746  0  3.971078  0  0  -0.080304  -0.16596  0  3.934342  0
C  C33  1  0.47909695  0.89249651  0.86812060  1  0  -0.151883  0  3.698436  0  0  -0.170937  0  3.949217  0  0  -0.178675  0  3.971114  0  0  -0.080224  -0.165885  0  3.934371  0
C  C34  1  0.99784640  0.93451857  0.99969775  1  0  0.088125  0  3.761045  0  0  0.098481  0  3.994456  0  0  0.102462  0  4.01587  0  0  0.010586  0.095958  0  3.979767  0
C  C35  1  0.50215460  0.00030153  0.06548327  1  0  0.088199  0  3.761178  0  0  0.098563  0  3.99458  0  0  0.102543  0  4.015994  0  0  0.010692  0.096041  0  3.979891  0
C  C36  1  0.00215339  0.06548408  0.00030188  1  0  0.088256  0  3.761232  0  0  0.098629  0  3.994605  0  0  0.102635  0  4.015957  0  0  0.010697  0.096107  0  3.979917  0
C  C37  1  0.49784671  0.99969578  0.93451737  1  0  0.088209  0  3.761032  0  0  0.098577  0  3.994435  0  0  0.102586  0  4.015785  0  0  0.010642  0.096055  0  3.979744  0
C  C38  1  0.01511532  0.87098291  0.10635826  1  0  -0.152028  0  3.692908  0  0  -0.171976  0  3.943658  0  0  -0.1795  0  3.964958  0  0  -0.08035  -0.167206  0  3.929792  0
C  C39  1  0.48488802  0.89364369  0.12901894  1  0  -0.152001  0  3.692881  0  0  -0.171968  0  3.943637  0  0  -0.179493  0  3.964939  0  0  -0.080387  -0.167197  0  3.92977  0
C  C40  1  0.98488401  0.12901795  0.89364131  1  0  -0.152044  0  3.692884  0  0  -0.171997  0  3.943641  0  0  -0.179577  0  3.965078  0  0  -0.080353  -0.167219  0  3.929776  0
C  C41  1  0.51511081  0.10635539  0.87097882  1  0  -0.152086  0  3.692902  0  0  -0.172053  0  3.943655  0  0  -0.179641  0  3.965093  0  0  -0.080425  -0.167271  0  3.92979  0
C  C42  1  0.01430222  0.74843634  0.10232889  1  0  0.139744  0  3.685381  0  0  0.106355  0  3.938234  0  0  0.113329  0  3.956503  0  0  0.049576  0.101557  0  3.926587  0
C  C43  1  0.48570153  0.89767430  0.25156720  1  0  0.139759  0  3.68516  0  0  0.106382  0  3.937988  0  0  0.113356  0  3.956257  0  0  0.049554  0.101584  0  3.926344  0
C  C44  1  0.98569993  0.25156992  0.89767186  1  0  0.139754  0  3.685229  0  0  0.106343  0  3.938108  0  0  0.113174  0  3.956648  0  0  0.049541  0.101547  0  3.926454  0
C  C45  1  0.51429620  0.10232565  0.74843398  1  0  0.139885  0  3.685114  0  0  0.106499  0  3.937954  0  0  0.113329  0  3.956498  0  0  0.049633  0.101704  0  3.926299  0
C  C46  1  0.76658750  0.47302313  0.21270066  1  0  0.70886  0  3.872775  0  0  0.651035  0  4.184991  0  0  0.686396  0  4.173715  0  0  0.221396  0.626884  0  4.192499  0
C  C47  1  0.73342013  0.78730140  0.52698395  1  0  0.70895  0  3.872373  0  0  0.651036  0  4.184728  0  0  0.686393  0  4.173455  0  0  0.221429  0.626889  0  4.192231  0
C  C48  1  0.23340655  0.52697945  0.78729752  1  0  0.708843  0  3.872767  0  0  0.650996  0  4.185011  0  0  0.686255  0  4.173944  0  0  0.221339  0.626844  0  4.192518  0
C  C49  1  0.26658459  0.21269773  0.47302056  1  0  0.708984  0  3.872559  0  0  0.651155  0  4.184814  0  0  0.686416  0  4.17375  0  0  0.221472  0.627006  0  4.192318  0
C  C50  1  0.76098977  0.50721059  0.34194934  1  0  -0.24221  0  3.764432  0  0  -0.258124  0  4.051859  0  0  -0.264343  0  4.064881  0  0  -0.037576  -0.254807  0  4.044858  0
C  C51  1  0.73901734  0.65805286  0.49279307  1  0  -0.242225  0  3.764401  0  0  -0.258078  0  4.051818  0  0  -0.264294  0  4.06484  0  0  -0.037556  -0.254766  0  4.044825  0
C  C52  1  0.23900956  0.49279027  0.65805024  1  0  -0.242323  0  3.764354  0  0  -0.258264  0  4.051868  0  0  -0.264601  0  4.065237  0  0  -0.037593  -0.254941  0  4.044857  0
C  C53  1  0.26098881  0.34194629  0.50721158  1  0  -0.242264  0  3.764324  0  0  -0.258215  0  4.051884  0  0  -0.264554  0  4.06525  0  0  -0.037588  -0.254896  0  4.044881  0
C  C54  1  0.75000117  0.62334695  0.37665601  1  0  0.311739  0  3.734306  0  0  0.272962  0  4.037954  0  0  0.287915  0  4.042374  0  0  0.0985  0.261428  0  4.036623  0
C  C55  1  0.25000057  0.37665216  0.62334379  1  0  0.311935  0  3.734035  0  0  0.273176  0  4.037723  0  0  0.287359  0  4.043231  0  0  0.098544  0.261644  0  4.036387  0
C  C56  1  0.76681103  0.42326037  0.43181834  1  0  0.217637  0  3.801091  0  0  0.180669  0  4.109656  0  0  0.191005  0  4.119382  0  0  0.09154  0.173336  0  4.103564  0
C  C57  1  0.73319039  0.56818182  0.57674145  1  0  0.217732  0  3.800948  0  0  0.180723  0  4.10953  0  0  0.191057  0  4.119254  0  0  0.09156  0.173391  0  4.10344  0
C  C58  1  0.23318211  0.57673863  0.56817973  1  0  0.217645  0  3.801045  0  0  0.180639  0  4.109654  0  0  0.191082  0  4.119258  0  0  0.091542  0.173304  0  4.103565  0
C  C59  1  0.26681230  0.43181552  0.42325756  1  0  0.217666  0  3.801048  0  0  0.180638  0  4.10974  0  0  0.191085  0  4.119345  0  0  0.091526  0.173304  0  4.103649  0
C  C60  1  0.75000364  0.45108270  0.54891806  1  0  0.095326  0  3.822493  0  0  0.053654  0  4.143761  0  0  0.058207  0  4.154025  0  0  0.076892  0.050104  0  4.137345  0
C  C61  1  0.24999924  0.54891553  0.45108009  1  0  0.095399  0  3.822415  0  0  0.053752  0  4.143697  0  0  0.058321  0  4.153938  0  0  0.076935  0.050201  0  4.137282  0
N  N62  1  0.99376767  0.68582238  0.99872197  1  0  -0.320374  0  3.273605  0  0  -0.235316  0  3.530806  0  0  -0.255038  0  3.548728  0  0  -0.321906  -0.222042  0  3.518494  0
N  N63  1  0.50623602  0.00128067  0.31417804  1  0  -0.320315  0  3.273429  0  0  -0.235298  0  3.530673  0  0  -0.25502  0  3.548601  0  0  -0.321915  -0.222025  0  3.518364  0
N  N64  1  0.00623480  0.31417941  0.00127968  1  0  -0.320341  0  3.273703  0  0  -0.235314  0  3.530921  0  0  -0.254972  0  3.548791  0  0  -0.321916  -0.22204  0  3.51861  0
N  N65  1  0.49376361  0.99871573  0.68582155  1  0  -0.320393  0  3.273405  0  0  -0.235383  0  3.53067  0  0  -0.255041  0  3.548539  0  0  -0.321936  -0.222109  0  3.518359  0
O  O66  1  0.93104569  0.49333951  0.18202302  1  0  -0.619807  0  2.037229  0  0  -0.563353  0  2.299441  0  0  -0.59018  0  2.287105  0  0  -0.302997  -0.544662  0  2.307528  0
O  O67  1  0.56895887  0.81797694  0.50666377  1  0  -0.619805  0  2.036895  0  0  -0.56334  0  2.29917  0  0  -0.590168  0  2.286841  0  0  -0.30303  -0.544647  0  2.307256  0
O  O68  1  0.06895449  0.50666494  0.81797489  1  0  -0.619741  0  2.037346  0  0  -0.563275  0  2.299551  0  0  -0.59006  0  2.287319  0  0  -0.302973  -0.544584  0  2.307636  0
O  O69  1  0.43104792  0.18201955  0.49333741  1  0  -0.619842  0  2.037119  0  0  -0.563382  0  2.299347  0  0  -0.590171  0  2.287113  0  0  -0.303008  -0.54469  0  2.307433  0
O  O70  1  0.60705327  0.42773226  0.14765922  1  0  -0.623673  0  1.946283  0  0  -0.568214  0  2.161522  0  0  -0.592698  0  2.149331  0  0  -0.310031  -0.551126  0  2.169599  0
O  O71  1  0.89294992  0.85234382  0.57227798  1  0  -0.62376  0  1.946295  0  0  -0.568254  0  2.161577  0  0  -0.592738  0  2.149384  0  0  -0.31004  -0.551163  0  2.169654  0
O  O72  1  0.39294691  0.57227219  0.85233869  1  0  -0.623739  0  1.946212  0  0  -0.568209  0  2.161431  0  0  -0.59265  0  2.149312  0  0  -0.30998  -0.551121  0  2.169508  0
O  O73  1  0.10705370  0.14765619  0.42772995  1  0  -0.623752  0  1.946223  0  0  -0.568277  0  2.161468  0  0  -0.592715  0  2.149346  0  0  -0.310083  -0.551188  0  2.169545  0
O  O74  1  0.69282646  0.44405846  0.92649588  1  0  -0.825696  0  1.884114  0  0  -0.772489  0  2.080051  0  0  -0.793093  0  2.045619  0  0  -0.584303  -0.757911  0  2.104058  0
O  O75  1  0.80717417  0.07350262  0.55594214  1  0  -0.825644  0  1.88414  0  0  -0.772433  0  2.080076  0  0  -0.793038  0  2.045643  0  0  -0.584284  -0.757857  0  2.104087  0
O  O76  1  0.30717563  0.55594245  0.07350043  1  0  -0.825711  0  1.884013  0  0  -0.772468  0  2.080013  0  0  -0.793079  0  2.045574  0  0  -0.584302  -0.757881  0  2.104003  0
O  O77  1  0.19282494  0.92649734  0.44405740  1  0  -0.825592  0  1.884117  0  0  -0.772381  0  2.080104  0  0  -0.79299  0  2.04567  0  0  -0.584264  -0.757807  0  2.104123  0
F  F78  1  0.74999807  0.70873239  0.29127518  1  0  -0.194114  0  1.214232  0  0  -0.137123  0  1.379837  0  0  -0.14699  0  1.370558  0  0  -0.084875  -0.124482  0  1.37935  0
F  F79  1  0.25000567  0.29126852  0.70872924  1  0  -0.194193  0  1.214114  0  0  -0.137182  0  1.37971  0  0  -0.146507  0  1.370503  0  0  -0.084909  -0.124556  0  1.379234  0
F  F80  1  0.79203474  0.31116754  0.40531726  1  0  -0.162707  0  1.270661  0  0  -0.099809  0  1.432157  0  0  -0.108367  0  1.423093  0  0  -0.071317  -0.093709  0  1.438428  0
F  F81  1  0.70796267  0.59467860  0.68883202  1  0  -0.162721  0  1.270565  0  0  -0.099809  0  1.432068  0  0  -0.108368  0  1.423004  0  0  -0.071313  -0.09371  0  1.438339  0
F  F82  1  0.20795282  0.68882693  0.59467407  1  0  -0.16275  0  1.27072  0  0  -0.099756  0  1.432159  0  0  -0.108312  0  1.423077  0  0  -0.071317  -0.093656  0  1.438432  0
F  F83  1  0.29203869  0.40531871  0.31117039  1  0  -0.162689  0  1.270702  0  0  -0.099738  0  1.432197  0  0  -0.108295  0  1.423113  0  0  -0.07127  -0.093641  0  1.438467  0
F  F84  1  0.74999331  0.36695209  0.63304933  1  0  -0.133993  0  1.280358  0  0  -0.076792  0  1.444443  0  0  -0.083617  0  1.43523  0  0  -0.072211  -0.071919  0  1.451007  0
F  F85  1  0.24999600  0.63304329  0.36694571  1  0  -0.133999  0  1.280308  0  0  -0.076824  0  1.444414  0  0  -0.083697  0  1.435201  0  0  -0.072229  -0.07195  0  1.450977  0
