# generated using pymatgen
data_Y2H21C27NO14
_symmetry_space_group_name_H-M   'P 1'
_cell_length_a   14.51046414
_cell_length_b   15.93603307
_cell_length_c   17.59378651
_cell_angle_alpha   93.00680539
_cell_angle_beta   90.00004885
_cell_angle_gamma   89.99991547
_symmetry_Int_Tables_number   1
_chemical_formula_structural   Y2H21C27NO14
_chemical_formula_sum   'Y8 H84 C108 N4 O56'
_cell_volume   4062.77287532
_cell_formula_units_Z   4
loop_
 _symmetry_equiv_pos_site_id
 _symmetry_equiv_pos_as_xyz
  1  'x, y, z'
loop_
 _atom_site_type_symbol
 _atom_site_label
 _atom_site_symmetry_multiplicity
 _atom_site_fract_x
 _atom_site_fract_y
 _atom_site_fract_z
 _atom_site_occupancy
 _atom_site_pbe_bader_charge
 _atom_site_pbe_bader_spin_density
 _atom_site_pbe_cm5_charge
 _atom_site_pbe_ddec_charge
 _atom_site_pbe_ddec_spin_density
 _atom_site_pbe_ddec_sum_bond_order
 _atom_site_pbe_magmom
Y  Y0  1  0.96865602  0.65188076  0.82068210  1  2.303547  0  1.331778  1.813601  0  2.491395  0
Y  Y1  1  0.46865525  0.84812061  0.67931835  1  2.303561  0  1.331762  1.813594  0  2.491396  0
Y  Y2  1  0.03134478  0.34812013  0.17931784  1  2.303561  0  1.33178  1.813578  0  2.491452  0
Y  Y3  1  0.53134556  0.15187964  0.32068099  1  2.303678  0  1.331765  1.813572  0  2.491402  0
Y  Y4  1  0.26619817  0.16944691  0.13953274  1  2.309045  0  1.298245  1.827611  0  2.402431  0
Y  Y5  1  0.76619939  0.33055318  0.36046740  1  2.308976  0  1.298237  1.827546  0  2.402509  0
Y  Y6  1  0.73380125  0.83055334  0.86046717  1  2.309042  0  1.298268  1.827567  0  2.402468  0
Y  Y7  1  0.23380141  0.66944644  0.63953305  1  2.309056  0  1.298278  1.827578  0  2.402418  0
H  H8  1  0.05973429  0.42085553  0.96801292  1  0.151794  0  0.12075  0.136011  0  0.999892  0
H  H9  1  0.55973696  0.07914601  0.53198585  1  0.15178  0  0.12072  0.135922  0  1.000019  0
H  H10  1  0.94026444  0.57914472  0.03198699  1  0.151813  0  0.120727  0.135934  0  0.999985  0
H  H11  1  0.44026522  0.92085612  0.46801244  1  0.151799  0  0.120747  0.135975  0  0.999948  0
H  H12  1  0.12990769  0.38688384  0.73036568  1  0.057189  0  0.10213  0.095284  0  1.030414  0
H  H13  1  0.62990848  0.11311635  0.76963251  1  0.057229  0  0.10212  0.095305  0  1.03041  0
H  H14  1  0.87009173  0.61311641  0.26963366  1  0.057191  0  0.102132  0.095298  0  1.030405  0
H  H15  1  0.37009232  0.88688327  0.23036567  1  0.057181  0  0.102104  0.095271  0  1.030436  0
H  H16  1  0.21435032  0.25526447  0.75650802  1  0.047443  0  0.101469  0.098664  0  0.99529  0
H  H17  1  0.71435156  0.24473499  0.74349247  1  0.047445  0  0.101486  0.098668  0  0.995265  0
H  H18  1  0.78564772  0.74473579  0.24349302  1  0.047402  0  0.101526  0.098747  0  0.995231  0
H  H19  1  0.28564855  0.75526400  0.25650682  1  0.047406  0  0.101521  0.09873  0  0.995244  0
H  H20  1  0.48243054  0.76777230  0.01800715  1  0.069148  0  0.101801  0.098636  0  1.014147  0
H  H21  1  0.98243136  0.73222911  0.48199290  1  0.069157  0  0.101818  0.098705  0  1.014147  0
H  H22  1  0.51756888  0.23222858  0.98199279  1  0.069214  0  0.101812  0.098695  0  1.014161  0
H  H23  1  0.01757013  0.26777113  0.51800587  1  0.069195  0  0.101813  0.098678  0  1.014136  0
H  H24  1  0.22523292  0.20987788  0.88997793  1  0.051403  0  0.09925  0.087662  0  1.050326  0
H  H25  1  0.72523601  0.29012345  0.61002265  1  0.051284  0  0.099216  0.087615  0  1.050364  0
H  H26  1  0.77476512  0.79012111  0.11002249  1  0.051333  0  0.099223  0.087619  0  1.050378  0
H  H27  1  0.27476685  0.70987932  0.38997737  1  0.051417  0  0.099242  0.087639  0  1.050372  0
H  H28  1  0.36019642  0.73870118  0.79614670  1  0.136507  0  0.114575  0.10091  0  1.081427  0
H  H29  1  0.86019759  0.76129969  0.70385365  1  0.136517  0  0.114567  0.100888  0  1.081418  0
H  H30  1  0.63980162  0.26129970  0.20385380  1  0.136509  0  0.114565  0.100884  0  1.081411  0
H  H31  1  0.13980390  0.23869993  0.29614509  1  0.136482  0  0.114605  0.100925  0  1.08136  0
H  H32  1  0.20016654  0.68235562  0.99216554  1  0.092064  0  0.114625  0.117299  0  0.98261  0
H  H33  1  0.70016742  0.81764547  0.50783358  1  0.092178  0  0.114623  0.117279  0  0.982616  0
H  H34  1  0.79983219  0.31764527  0.00783440  1  0.092193  0  0.114631  0.117312  0  0.982595  0
H  H35  1  0.29983476  0.18235478  0.49216519  1  0.092033  0  0.114624  0.117283  0  0.982668  0
H  H36  1  0.33398830  0.16870048  0.95991854  1  0.130895  0  0.129332  0.049441  0  1.026682  0
H  H37  1  0.83398298  0.33130008  0.54008152  1  0.130906  0  0.129306  0.049361  0  1.026686  0
H  H38  1  0.66601112  0.83130040  0.04008026  1  0.130786  0  0.129305  0.049383  0  1.026684  0
H  H39  1  0.16601713  0.66869830  0.45992058  1  0.130946  0  0.129314  0.049386  0  1.026733  0
H  H40  1  0.33552835  0.71925005  0.07581618  1  0.079703  0  0.101257  0.098062  0  0.998174  0
H  H41  1  0.83552834  0.78075093  0.42418431  1  0.079704  0  0.101245  0.098041  0  0.998132  0
H  H42  1  0.66447176  0.28075083  0.92418432  1  0.079709  0  0.101271  0.098076  0  0.998168  0
H  H43  1  0.16447384  0.21924932  0.57581503  1  0.079716  0  0.10126  0.098056  0  0.998194  0
H  H44  1  0.08136309  0.81099519  0.75406088  1  0.127743  0  0.11584  0.108804  0  1.050567  0
H  H45  1  0.58136373  0.68900480  0.74594095  1  0.127739  0  0.115844  0.108833  0  1.050516  0
H  H46  1  0.91863634  0.18900444  0.24593957  1  0.127755  0  0.115846  0.108845  0  1.050532  0
H  H47  1  0.41863432  0.31099420  0.25406118  1  0.127751  0  0.115841  0.108812  0  1.050582  0
H  H48  1  0.40618787  0.16120982  0.85309023  1  0.070351  0  0.112379  0.123258  0  0.988572  0
H  H49  1  0.90618334  0.33878939  0.64690981  1  0.070307  0  0.11239  0.123259  0  0.988637  0
H  H50  1  0.59381155  0.83879043  0.14690854  1  0.070363  0  0.112374  0.123251  0  0.988574  0
H  H51  1  0.09381401  0.66120899  0.35309342  1  0.070372  0  0.112392  0.123258  0  0.988617  0
H  H52  1  0.41268737  0.06150984  0.80068301  1  0.092891  0  0.113871  0.135353  0  0.998211  0
H  H53  1  0.91268411  0.43848936  0.69931704  1  0.092883  0  0.113863  0.135365  0  0.998196  0
H  H54  1  0.58731274  0.93849103  0.19931636  1  0.092895  0  0.113896  0.135377  0  0.998201  0
H  H55  1  0.08731393  0.56150965  0.30068509  1  0.092926  0  0.113881  0.135375  0  0.998193  0
H  H56  1  0.50539840  0.09552828  0.86019358  1  0.045241  0  0.102669  0.11318  0  0.999125  0
H  H57  1  0.00539473  0.40446957  0.63980727  1  0.045048  0  0.102689  0.113248  0  0.999139  0
H  H58  1  0.49460033  0.90447197  0.13980633  1  0.045217  0  0.10268  0.113211  0  0.999148  0
H  H59  1  0.99460262  0.59552818  0.36019651  1  0.045256  0  0.102685  0.113192  0  0.999147  0
H  H60  1  0.98625491  0.01955666  0.89826339  1  0.118397  0  0.11323  0.116581  0  0.986199  0
H  H61  1  0.48625659  0.48044433  0.60173679  1  0.118429  0  0.113246  0.116584  0  0.9862  0
H  H62  1  0.01374382  0.98044484  0.10173544  1  0.11854  0  0.113221  0.116597  0  0.986199  0
H  H63  1  0.51374490  0.51955467  0.39826363  1  0.118594  0  0.113226  0.116581  0  0.986193  0
H  H64  1  0.13669966  0.09249500  0.88147953  1  0.046787  0  0.100271  0.099197  0  1.019761  0
H  H65  1  0.63670120  0.40750644  0.61852043  1  0.046805  0  0.100271  0.09919  0  1.019738  0
H  H66  1  0.86329976  0.90750462  0.11851922  1  0.046761  0  0.10026  0.099175  0  1.019792  0
H  H67  1  0.36330029  0.59249507  0.38148067  1  0.046786  0  0.100264  0.099172  0  1.019779  0
H  H68  1  0.25860136  0.02338834  0.79878950  1  0.101045  0  0.101753  0.095273  0  1.032781  0
H  H69  1  0.75860287  0.47661169  0.70121105  1  0.101026  0  0.101756  0.095277  0  1.03279  0
H  H70  1  0.74139806  0.97661191  0.20121041  1  0.101035  0  0.101756  0.095276  0  1.032817  0
H  H71  1  0.24139862  0.52338919  0.29878945  1  0.10103  0  0.101744  0.095253  0  1.032813  0
H  H72  1  0.35780290  0.94369867  0.96882082  1  0.0959  0  0.11121  0.12844  0  1.001319  0
H  H73  1  0.85780354  0.55630158  0.53118007  1  0.095915  0  0.1112  0.128438  0  1.001375  0
H  H74  1  0.64219445  0.05630284  0.03117971  1  0.096087  0  0.111202  0.128431  0  1.001353  0
H  H75  1  0.14219726  0.44369553  0.46882140  1  0.095958  0  0.111179  0.128381  0  1.00136  0
H  H76  1  0.47386395  0.95273510  0.93490930  1  0.041033  0  0.104221  0.118112  0  0.99311  0
H  H77  1  0.97386463  0.54726186  0.56509096  1  0.041044  0  0.104234  0.118147  0  0.993052  0
H  H78  1  0.52613272  0.04726515  0.06509117  1  0.040997  0  0.10421  0.118089  0  0.99305  0
H  H79  1  0.02613479  0.45273526  0.43490995  1  0.040997  0  0.104225  0.118094  0  0.993101  0
H  H80  1  0.38194819  0.93332010  0.86890249  1  0.116053  0  0.112728  0.130934  0  1.020274  0
H  H81  1  0.88194891  0.56667950  0.63109783  1  0.116059  0  0.112722  0.130938  0  1.020288  0
H  H82  1  0.61804916  0.06668016  0.13109799  1  0.116065  0  0.112728  0.130935  0  1.020261  0
H  H83  1  0.11805120  0.43331950  0.36890259  1  0.116057  0  0.112725  0.130922  0  1.020306  0
H  H84  1  0.37758277  0.02818854  0.20605575  1  0.6662  0  0.299467  0.400525  0  0.940318  0
H  H85  1  0.87758369  0.47181140  0.29394332  1  0.666187  0  0.299451  0.400516  0  0.940329  0
H  H86  1  0.62241734  0.97181171  0.79394358  1  0.66619  0  0.29945  0.400493  0  0.940363  0
H  H87  1  0.12241711  0.52818885  0.70605602  1  0.666192  0  0.29945  0.400494  0  0.940362  0
H  H88  1  0.34349630  0.00810811  0.11895024  1  0.607031  0  0.314485  0.389488  0  0.924007  0
H  H89  1  0.84349659  0.49189251  0.38104941  1  0.607035  0  0.314491  0.3895  0  0.92399  0
H  H90  1  0.65650312  0.99189151  0.88104964  1  0.607038  0  0.314495  0.389522  0  0.923955  0
H  H91  1  0.15650490  0.50810775  0.61895050  1  0.607045  0  0.314518  0.389545  0  0.923921  0
C  C92  1  0.25143270  0.87067335  0.72411972  1  1.577871  0  0.24195  0.641797  0  4.142876  0
C  C93  1  0.75143278  0.62932641  0.77588051  1  1.57736  0  0.241925  0.641781  0  4.142949  0
C  C94  1  0.74856741  0.12932626  0.27587902  1  1.577849  0  0.241892  0.641786  0  4.142864  0
C  C95  1  0.24856664  0.37067448  0.22412057  1  1.57782  0  0.241909  0.641739  0  4.142926  0
C  C96  1  0.93380032  0.86943909  0.83783818  1  1.565742  0  0.233888  0.616487  0  4.157136  0
C  C97  1  0.43380194  0.63056106  0.66216276  1  1.56574  0  0.233833  0.61647  0  4.157246  0
C  C98  1  0.06619910  0.13056178  0.16216119  1  1.565732  0  0.233877  0.616484  0  4.15716  0
C  C99  1  0.56619817  0.36943731  0.33783820  1  1.565777  0  0.233844  0.616437  0  4.15716  0
C  C100  1  0.51431141  0.79210687  0.86710110  1  1.563765  0  0.23638  0.626928  0  4.168607  0
C  C101  1  0.01431287  0.70789320  0.63289784  1  1.563788  0  0.236418  0.627012  0  4.168625  0
C  C102  1  0.48568733  0.20789338  0.13289881  1  1.563776  0  0.236457  0.627078  0  4.168493  0
C  C103  1  0.98568931  0.29210642  0.36710090  1  1.563474  0  0.236477  0.627074  0  4.168385  0
C  C104  1  0.19491163  0.68362167  0.83618401  1  1.591079  0  0.245726  0.647637  0  4.14331  0
C  C105  1  0.69490923  0.81638131  0.66381518  1  1.591038  0  0.24586  0.647717  0  4.143057  0
C  C106  1  0.80508986  0.31638173  0.16381546  1  1.591002  0  0.245829  0.647701  0  4.143097  0
C  C107  1  0.30509227  0.18362083  0.33618595  1  1.590946  0  0.24581  0.647714  0  4.143078  0
C  C108  1  0.03731655  0.49001960  0.83361970  1  1.54322  0  0.207418  0.5699  0  4.197632  0
C  C109  1  0.53731534  0.00997945  0.66637781  1  1.543096  0  0.20753  0.570078  0  4.197405  0
C  C110  1  0.96268425  0.50998002  0.16637847  1  1.543088  0  0.207498  0.570056  0  4.197438  0
C  C111  1  0.46268340  0.99001890  0.33361975  1  1.543007  0  0.207498  0.570067  0  4.197534  0
C  C112  1  0.09386415  0.38473660  0.92181285  1  -0.039669  0  -0.059845  -0.081184  0  3.872149  0
C  C113  1  0.59386681  0.11526364  0.57818645  1  -0.039822  0  -0.059836  -0.081021  0  3.872265  0
C  C114  1  0.90613389  0.61526365  0.07818706  1  -0.039649  0  -0.059829  -0.081068  0  3.872254  0
C  C115  1  0.40613606  0.88473661  0.42181289  1  -0.039671  0  -0.059842  -0.081128  0  3.872205  0
C  C116  1  0.08885667  0.41148139  0.84740615  1  -0.058951  0  -0.016858  -0.039048  0  3.982549  0
C  C117  1  0.58885600  0.08851948  0.65259318  1  -0.058808  0  -0.016843  -0.039077  0  3.982499  0
C  C118  1  0.91114206  0.58851949  0.15259322  1  -0.058784  0  -0.016837  -0.039053  0  3.98253  0
C  C119  1  0.41114273  0.91148014  0.34740613  1  -0.058781  0  -0.01687  -0.039082  0  3.982595  0
C  C120  1  0.13286836  0.36505966  0.78795020  1  0.050759  0  -0.077013  -0.077124  0  3.957283  0
C  C121  1  0.63286699  0.13493990  0.71204853  1  0.05042  0  -0.077052  -0.077253  0  3.957438  0
C  C122  1  0.86713106  0.63493996  0.21205024  1  0.050941  0  -0.077067  -0.077185  0  3.957361  0
C  C123  1  0.36713312  0.86505971  0.28794851  1  0.050909  0  -0.07703  -0.077165  0  3.957411  0
C  C124  1  0.18105779  0.29197897  0.80284789  1  -0.02356  0  -0.093763  -0.095504  0  4.037654  0
C  C125  1  0.68105835  0.20801990  0.69715142  1  -0.023213  0  -0.093772  -0.095467  0  4.037709  0
C  C126  1  0.81894094  0.70802066  0.19715370  1  -0.023783  0  -0.093806  -0.0956  0  4.037727  0
C  C127  1  0.31894245  0.79197908  0.30284616  1  -0.023763  0  -0.09381  -0.09558  0  4.037742  0
C  C128  1  0.17761424  0.91302784  0.77176923  1  -0.055239  0  -0.016703  -0.050817  0  3.966412  0
C  C129  1  0.67761365  0.58697076  0.72823204  1  -0.054935  0  -0.016642  -0.050748  0  3.966485  0
C  C130  1  0.82238656  0.08697178  0.22823065  1  -0.055169  0  -0.01665  -0.050701  0  3.966313  0
C  C131  1  0.32238508  0.41302824  0.27176895  1  -0.055174  0  -0.016712  -0.050877  0  3.966517  0
C  C132  1  0.42939067  0.75921967  0.90353501  1  0.038313  0  -0.016268  -0.045875  0  3.974535  0
C  C133  1  0.92939176  0.74078174  0.59646484  1  0.038151  0  -0.016254  -0.045912  0  3.974634  0
C  C134  1  0.57060807  0.24078121  0.09646492  1  0.038314  0  -0.016243  -0.045914  0  3.974638  0
C  C135  1  0.07061111  0.25921851  0.40353393  1  0.038439  0  -0.016223  -0.045838  0  3.974533  0
C  C136  1  0.42273689  0.75186018  0.98247442  1  -0.066871  0  -0.078068  -0.082472  0  3.964508  0
C  C137  1  0.92273789  0.74814124  0.51752543  1  -0.066911  0  -0.078104  -0.082549  0  3.964583  0
C  C138  1  0.57726184  0.24814069  0.01752495  1  -0.066974  0  -0.078118  -0.082565  0  3.964595  0
C  C139  1  0.07726360  0.25186027  0.48247453  1  -0.066865  0  -0.078122  -0.082581  0  3.96455  0
C  C140  1  0.15048497  0.28616141  0.01758761  1  1.609844  0  0.247508  0.64859  0  4.144687  0
C  C141  1  0.65048788  0.21383820  0.48241186  1  1.609892  0  0.247498  0.648558  0  4.144678  0
C  C142  1  0.84951514  0.71384010  0.98241292  1  1.609908  0  0.247509  0.648554  0  4.144692  0
C  C143  1  0.34951361  0.78616142  0.51758802  1  1.609952  0  0.247531  0.648624  0  4.144632  0
C  C144  1  0.14390535  0.31256748  0.93713020  1  -0.001662  0  -0.014561  -0.047447  0  3.962842  0
C  C145  1  0.64390787  0.18743270  0.56286971  1  -0.001454  0  -0.014524  -0.047506  0  3.96288  0
C  C146  1  0.85609270  0.68743341  0.06287144  1  -0.001637  0  -0.014528  -0.047446  0  3.962879  0
C  C147  1  0.35609362  0.81256692  0.43712903  1  -0.001625  0  -0.014536  -0.047476  0  3.962803  0
C  C148  1  0.18717551  0.26633120  0.87727883  1  -0.09855  0  -0.079727  -0.085692  0  3.986332  0
C  C149  1  0.68717870  0.23366893  0.62272167  1  -0.098495  0  -0.079701  -0.085633  0  3.986232  0
C  C150  1  0.81282185  0.73366843  0.12272276  1  -0.098507  0  -0.079728  -0.08566  0  3.986328  0
C  C151  1  0.31282348  0.76633132  0.37727710  1  -0.098556  0  -0.079724  -0.085634  0  3.986312  0
C  C152  1  0.35444819  0.73588316  0.85749021  1  -0.070999  0  -0.068446  -0.095574  0  3.924639  0
C  C153  1  0.85444929  0.76411897  0.64250906  1  -0.07074  0  -0.068411  -0.095495  0  3.924554  0
C  C154  1  0.64555054  0.26411834  0.14250919  1  -0.070894  0  -0.068434  -0.095508  0  3.924587  0
C  C155  1  0.14555357  0.23588253  0.35748920  1  -0.070802  0  -0.068434  -0.095599  0  3.92464  0
C  C156  1  0.27250530  0.70777099  0.88894586  1  0.027017  0  -0.013463  -0.046285  0  3.970829  0
C  C157  1  0.77250563  0.79223125  0.61105393  1  0.026922  0  -0.01351  -0.046348  0  3.970822  0
C  C158  1  0.72749412  0.29223115  0.11105470  1  0.026921  0  -0.013479  -0.046312  0  3.970849  0
C  C159  1  0.22749655  0.20777025  0.38894490  1  0.027146  0  -0.01347  -0.046135  0  3.970672  0
C  C160  1  0.26486465  0.70338948  0.96804598  1  -0.088396  0  -0.069592  -0.07012  0  3.939371  0
C  C161  1  0.76486558  0.79661215  0.53195377  1  -0.088475  0  -0.069558  -0.070051  0  3.939332  0
C  C162  1  0.73513408  0.29661203  0.03195398  1  -0.08847  0  -0.069601  -0.070159  0  3.939385  0
C  C163  1  0.23513728  0.20338872  0.46804446  1  -0.088408  0  -0.069633  -0.070184  0  3.939452  0
C  C164  1  0.02484659  0.91089813  0.82783470  1  0.019494  0  -0.011603  -0.042486  0  3.972975  0
C  C165  1  0.52484731  0.58910257  0.67216712  1  0.019628  0  -0.011587  -0.042535  0  3.972971  0
C  C166  1  0.97515284  0.08910275  0.17216467  1  0.019505  0  -0.011551  -0.042409  0  3.972944  0
C  C167  1  0.47515211  0.41089644  0.32783501  1  0.019502  0  -0.011577  -0.042445  0  3.972974  0
C  C168  1  0.33933416  0.10133455  0.97036626  1  1.358366  0  0.181321  0.303066  0  4.115672  0
C  C169  1  0.83933010  0.39866664  0.52963496  1  1.358339  0  0.181333  0.303204  0  4.115435  0
C  C170  1  0.66066733  0.89866758  0.02963089  1  1.358541  0  0.181399  0.30318  0  4.115635  0
C  C171  1  0.16067208  0.60132987  0.47037047  1  1.358609  0  0.181314  0.303035  0  4.115842  0
C  C172  1  0.34056468  0.72452090  0.01436824  1  -0.052197  0  -0.092596  -0.097661  0  4.032559  0
C  C173  1  0.84056612  0.77548070  0.48563172  1  -0.052201  0  -0.092609  -0.097667  0  4.032533  0
C  C174  1  0.65943405  0.27547998  0.98563227  1  -0.052194  0  -0.092599  -0.09763  0  4.032539  0
C  C175  1  0.15943744  0.22452081  0.51436767  1  -0.052168  0  -0.092571  -0.09762  0  4.032616  0
C  C176  1  0.09333303  0.87249454  0.78212216  1  -0.061436  0  -0.066022  -0.090566  0  3.903528  0
C  C177  1  0.59333374  0.62750481  0.71787964  1  -0.061436  0  -0.066046  -0.090591  0  3.903569  0
C  C178  1  0.90666708  0.12750508  0.21787772  1  -0.061472  0  -0.066039  -0.09064  0  3.903548  0
C  C179  1  0.40666568  0.37249357  0.28212302  1  -0.061463  0  -0.065978  -0.090501  0  3.903574  0
C  C180  1  0.42991701  0.09596993  0.85441878  1  0.262084  0  -0.126649  -0.276857  0  3.914863  0
C  C181  1  0.92991306  0.40402862  0.64558125  1  0.262164  0  -0.126715  -0.276962  0  3.915033  0
C  C182  1  0.57008242  0.90403032  0.14557999  1  0.262084  0  -0.126732  -0.276964  0  3.914897  0
C  C183  1  0.07008430  0.59596976  0.35442085  1  0.261995  0  -0.126705  -0.276927  0  3.915082  0
C  C184  1  0.04072543  0.99046889  0.86332896  1  -0.058587  0  -0.068299  -0.06853  0  3.936613  0
C  C185  1  0.54072625  0.50953115  0.63667171  1  -0.058699  0  -0.068331  -0.068552  0  3.93654  0
C  C186  1  0.95927400  0.00953011  0.13667089  1  -0.058936  0  -0.068344  -0.068639  0  3.936678  0
C  C187  1  0.45927387  0.49046910  0.36332820  1  -0.058764  0  -0.06832  -0.068589  0  3.936694  0
C  C188  1  0.12476142  0.03086004  0.85343787  1  -0.051485  0  -0.091558  -0.089147  0  4.013816  0
C  C189  1  0.62476219  0.46914017  0.64656259  1  -0.051491  0  -0.091552  -0.089086  0  4.013754  0
C  C190  1  0.87523938  0.96913896  0.14656255  1  -0.05129  0  -0.091547  -0.089075  0  4.013827  0
C  C191  1  0.37523999  0.53086071  0.35343735  1  -0.051484  0  -0.091538  -0.089055  0  4.013829  0
C  C192  1  0.19287353  0.99244567  0.80776435  1  -0.019645  0  -0.07809  -0.077267  0  3.96046  0
C  C193  1  0.69287441  0.50755417  0.69223641  1  -0.019497  0  -0.078106  -0.077328  0  3.960518  0
C  C194  1  0.80712521  0.00755458  0.19223499  1  -0.019704  0  -0.078095  -0.077342  0  3.960495  0
C  C195  1  0.30712502  0.49244545  0.30776461  1  -0.019701  0  -0.078104  -0.077304  0  3.960485  0
C  C196  1  0.40098136  0.96603679  0.92305744  1  0.244415  0  -0.132934  -0.275813  0  3.88518  0
C  C197  1  0.90098069  0.53396278  0.57694232  1  0.244413  0  -0.132985  -0.275873  0  3.885156  0
C  C198  1  0.59901669  0.03396346  0.07694190  1  0.244214  0  -0.132949  -0.275796  0  3.885198  0
C  C199  1  0.09901942  0.46603497  0.42305918  1  0.24431  0  -0.132977  -0.275795  0  3.885235  0
N  N200  1  0.38691569  0.05595446  0.91779938  1  -1.233196  0  -0.28217  0.023399  0  3.738444  0
N  N201  1  0.88691299  0.44404541  0.58220182  1  -1.233013  0  -0.282051  0.023401  0  3.738326  0
N  N202  1  0.61308373  0.94404642  0.08219999  1  -1.233116  0  -0.282092  0.023449  0  3.738372  0
N  N203  1  0.11308505  0.55595359  0.41779917  1  -1.233229  0  -0.282103  0.02348  0  3.738441  0
O  O204  1  0.99029710  0.52593788  0.88665868  1  -1.176012  0  -0.34492  -0.563467  0  2.168975  0
O  O205  1  0.49029811  0.97406156  0.61333943  1  -1.176109  0  -0.34495  -0.563535  0  2.168975  0
O  O206  1  0.00970164  0.47406174  0.11334120  1  -1.176059  0  -0.344941  -0.563531  0  2.168981  0
O  O207  1  0.50970338  0.02593743  0.38665758  1  -1.175931  0  -0.344963  -0.563561  0  2.168994  0
O  O208  1  0.04079812  0.52291660  0.76788470  1  -1.209397  0  -0.351306  -0.618206  0  2.270368  0
O  O209  1  0.54079828  0.97708406  0.73211429  1  -1.209348  0  -0.351337  -0.618253  0  2.270301  0
O  O210  1  0.95920199  0.47708364  0.23211407  1  -1.20936  0  -0.351352  -0.618276  0  2.270302  0
O  O211  1  0.45920252  0.02291556  0.26788503  1  -1.2094  0  -0.351322  -0.618233  0  2.270282  0
O  O212  1  0.11362204  0.68126245  0.86354556  1  -1.217661  0  -0.37796  -0.624823  0  2.237393  0
O  O213  1  0.61362098  0.81873750  0.63645572  1  -1.217711  0  -0.377959  -0.624792  0  2.237421  0
O  O214  1  0.88637876  0.31873718  0.13645660  1  -1.217682  0  -0.377947  -0.624784  0  2.237424  0
O  O215  1  0.38637983  0.18126276  0.36354419  1  -1.217873  0  -0.377955  -0.624798  0  2.237504  0
O  O216  1  0.50866301  0.81550695  0.79917398  1  -1.231288  0  -0.376208  -0.641882  0  2.359772  0
O  O217  1  0.00866321  0.68449313  0.70082610  1  -1.23126  0  -0.37623  -0.641947  0  2.359774  0
O  O218  1  0.49133710  0.18449267  0.20082590  1  -1.23129  0  -0.376228  -0.641947  0  2.359768  0
O  O219  1  0.99133690  0.31550650  0.29917378  1  -1.231313  0  -0.376279  -0.642003  0  2.359726  0
O  O220  1  0.09736675  0.32320400  0.06564190  1  -1.223673  0  -0.380005  -0.615995  0  2.329909  0
O  O221  1  0.59737105  0.17679443  0.43435691  1  -1.223724  0  -0.38001  -0.615959  0  2.32988  0
O  O222  1  0.90263612  0.67679877  0.93435925  1  -1.223666  0  -0.37997  -0.615943  0  2.329812  0
O  O223  1  0.40263113  0.82320708  0.56564192  1  -1.223736  0  -0.379998  -0.615967  0  2.329857  0
O  O224  1  0.92391510  0.79102168  0.81862480  1  -1.247206  0  -0.373826  -0.662515  0  2.353065  0
O  O225  1  0.42391592  0.70897848  0.68137500  1  -1.247212  0  -0.373824  -0.662563  0  2.353107  0
O  O226  1  0.07608502  0.20897794  0.18137451  1  -1.247194  0  -0.373824  -0.662518  0  2.353076  0
O  O227  1  0.57608419  0.29102052  0.31862485  1  -1.247267  0  -0.373805  -0.662526  0  2.353121  0
O  O228  1  0.86669907  0.91324811  0.86401529  1  -1.187334  0  -0.357527  -0.57961  0  2.178949  0
O  O229  1  0.36670074  0.58675277  0.63598735  1  -1.187312  0  -0.357477  -0.579538  0  2.178969  0
O  O230  1  0.13329966  0.08675152  0.13598516  1  -1.187318  0  -0.357521  -0.579608  0  2.178945  0
O  O231  1  0.63330006  0.41324749  0.36401427  1  -1.187308  0  -0.357507  -0.579568  0  2.178947  0
O  O232  1  0.20815306  0.22904049  0.03244573  1  -1.213652  0  -0.366622  -0.622925  0  2.281411  0
O  O233  1  0.70815656  0.27096031  0.46755383  1  -1.213659  0  -0.366625  -0.622911  0  2.281385  0
O  O234  1  0.79184567  0.77096039  0.96755421  1  -1.213699  0  -0.366651  -0.622935  0  2.281439  0
O  O235  1  0.29184631  0.72904058  0.53244667  1  -1.21366  0  -0.366646  -0.622967  0  2.281472  0
O  O236  1  0.30264982  0.07231332  0.02795814  1  -1.182392  0  -0.322429  -0.494937  0  2.33489  0
O  O237  1  0.80264755  0.42768861  0.47204210  1  -1.182447  0  -0.322436  -0.494949  0  2.334766  0
O  O238  1  0.69734891  0.92768755  0.97204066  1  -1.182508  0  -0.322472  -0.494969  0  2.335029  0
O  O239  1  0.19735256  0.57231101  0.52795664  1  -1.182618  0  -0.322402  -0.494833  0  2.335109  0
O  O240  1  0.32711571  0.03568025  0.16779193  1  -1.266919  0  -0.615262  -0.801857  0  2.088506  0
O  O241  1  0.82711669  0.46431976  0.33220768  1  -1.266898  0  -0.615239  -0.801839  0  2.088481  0
O  O242  1  0.67288371  0.96432000  0.83220684  1  -1.266906  0  -0.615251  -0.801841  0  2.088483  0
O  O243  1  0.17288411  0.53568049  0.66779337  1  -1.26691  0  -0.615265  -0.801867  0  2.088459  0
O  O244  1  0.21452642  0.66738134  0.76671516  1  -1.224359  0  -0.375186  -0.617699  0  2.331585  0
O  O245  1  0.71452888  0.83261847  0.73328505  1  -1.224277  0  -0.375306  -0.617793  0  2.331445  0
O  O246  1  0.78547025  0.33261829  0.23328586  1  -1.224268  0  -0.375293  -0.617774  0  2.331449  0
O  O247  1  0.28547468  0.16737927  0.26671418  1  -1.224327  0  -0.375266  -0.617877  0  2.331389  0
O  O248  1  0.58848755  0.79629474  0.90575891  1  -1.209844  0  -0.366546  -0.618551  0  2.269141  0
O  O249  1  0.08848760  0.70370398  0.59424059  1  -1.209876  0  -0.366551  -0.618558  0  2.269222  0
O  O250  1  0.41151188  0.20370552  0.09424100  1  -1.209872  0  -0.366593  -0.618627  0  2.269148  0
O  O251  1  0.91151389  0.29629439  0.40575923  1  -1.209752  0  -0.36658  -0.618581  0  2.269079  0
O  O252  1  0.33333564  0.90037003  0.73006637  1  -1.218445  0  -0.378357  -0.630995  0  2.237601  0
O  O253  1  0.83333577  0.59963088  0.76993397  1  -1.218417  0  -0.378312  -0.630976  0  2.237657  0
O  O254  1  0.66666516  0.09963084  0.26993243  1  -1.21842  0  -0.378317  -0.63095  0  2.2376  0
O  O255  1  0.16666435  0.40037126  0.23006602  1  -1.21844  0  -0.378344  -0.630954  0  2.237581  0
O  O256  1  0.22997442  0.80712342  0.68144338  1  -1.220767  0  -0.371167  -0.631173  0  2.330034  0
O  O257  1  0.72997582  0.69287700  0.81855743  1  -1.220752  0  -0.371204  -0.631163  0  2.330016  0
O  O258  1  0.77002569  0.19287746  0.31855656  1  -1.220752  0  -0.371174  -0.631216  0  2.329988  0
O  O259  1  0.27002429  0.30712326  0.18144418  1  -1.220721  0  -0.371171  -0.631137  0  2.330008  0
