# generated using pymatgen
data_CdH18C28(NO)4
_symmetry_space_group_name_H-M   'P 1'
_cell_length_a   9.24306387
_cell_length_b   11.48991199
_cell_length_c   13.15908549
_cell_angle_alpha   73.81701552
_cell_angle_beta   70.93501005
_cell_angle_gamma   65.87035568
_symmetry_Int_Tables_number   1
_chemical_formula_structural   CdH18C28(NO)4
_chemical_formula_sum   'Cd2 H36 C56 N8 O8'
_cell_volume   1188.25573977
_cell_formula_units_Z   2
loop_
 _symmetry_equiv_pos_site_id
 _symmetry_equiv_pos_as_xyz
  1  'x, y, z'
loop_
 _atom_site_type_symbol
 _atom_site_label
 _atom_site_symmetry_multiplicity
 _atom_site_fract_x
 _atom_site_fract_y
 _atom_site_fract_z
 _atom_site_occupancy
 _atom_site_hle17_bader_spin_density
 _atom_site_hle17_ddec_charge
 _atom_site_hle17_ddec_spin_density
 _atom_site_hle17_ddec_sum_bond_order
 _atom_site_hle17_magmom
 _atom_site_hse06_10hf_bader_spin_density
 _atom_site_hse06_10hf_ddec_charge
 _atom_site_hse06_10hf_ddec_spin_density
 _atom_site_hse06_10hf_ddec_sum_bond_order
 _atom_site_hse06_10hf_magmom
 _atom_site_hse06_bader_spin_density
 _atom_site_hse06_ddec_charge
 _atom_site_hse06_ddec_spin_density
 _atom_site_hse06_ddec_sum_bond_order
 _atom_site_hse06_magmom
 _atom_site_pbe_bader_spin_density
 _atom_site_pbe_cm5_charge
 _atom_site_pbe_ddec_charge
 _atom_site_pbe_ddec_spin_density
 _atom_site_pbe_ddec_sum_bond_order
 _atom_site_pbe_magmom
Cd  Cd0  1  0.96761807  0.34167690  0.25752829  1  0  1.067047  0  1.709488  0  0  0.860176  0  2.15831  0  0  0.922607  0  2.10527  0  0  0.771007  0.816093  0  2.194424  0
Cd  Cd1  1  0.03238036  0.65832962  0.74247013  1  0  1.066992  0  1.709669  0  0  0.860166  0  2.158489  0  0  0.922594  0  2.105446  0  0  0.771014  0.816095  0  2.194599  0
H  H2  1  0.88033858  0.59833919  0.06557315  1  0  0.09729  0  0.926078  0  0  0.104679  0  0.988593  0  0  0.107904  0  0.985334  0  0  0.121745  0.102188  0  0.991173  0
H  H3  1  0.11965577  0.40166073  0.93442541  1  0  0.097221  0  0.926075  0  0  0.10461  0  0.988582  0  0  0.107807  0  0.985354  0  0  0.121715  0.102146  0  0.99113  0
H  H4  1  0.64481881  0.77968136  0.00415140  1  0  0.122701  0  0.94252  0  0  0.132936  0  0.997695  0  0  0.136468  0  0.996318  0  0  0.111565  0.130298  0  0.998985  0
H  H5  1  0.35517134  0.22032532  0.99585484  1  0  0.122679  0  0.942569  0  0  0.132919  0  0.997734  0  0  0.136454  0  0.996353  0  0  0.111553  0.13028  0  0.999024  0
H  H6  1  0.35860160  0.80038211  0.12222273  1  0  0.086548  0  0.962919  0  0  0.097865  0  1.024014  0  0  0.099881  0  1.023037  0  0  0.103578  0.096362  0  1.024759  0
H  H7  1  0.64138721  0.19961696  0.87778177  1  0  0.086515  0  0.962977  0  0  0.097868  0  1.024024  0  0  0.099886  0  1.023046  0  0  0.103596  0.096366  0  1.024768  0
H  H8  1  0.32690681  0.63883105  0.29180859  1  0  0.102785  0  0.977306  0  0  0.110578  0  1.044951  0  0  0.113698  0  1.043642  0  0  0.105635  0.108367  0  1.045962  0
H  H9  1  0.67308948  0.36116116  0.70819363  1  0  0.102855  0  0.977298  0  0  0.110635  0  1.044943  0  0  0.113765  0  1.043622  0  0  0.105673  0.108424  0  1.045953  0
H  H10  1  0.31707526  0.47664217  0.40491736  1  0  0.117527  0  0.971823  0  0  0.120572  0  1.04671  0  0  0.12522  0  1.042806  0  0  0.109569  0.117206  0  1.049681  0
H  H11  1  0.68292297  0.52334333  0.59507613  1  0  0.117488  0  0.971953  0  0  0.120556  0  1.046857  0  0  0.125208  0  1.042945  0  0  0.109559  0.11719  0  1.049835  0
H  H12  1  0.59086229  0.16845374  0.61884105  1  0  0.101648  0  0.973185  0  0  0.114057  0  1.032815  0  0  0.117452  0  1.031041  0  0  0.106693  0.111612  0  1.034228  0
H  H13  1  0.40913543  0.83154609  0.38115985  1  0  0.10156  0  0.973121  0  0  0.114006  0  1.03272  0  0  0.117399  0  1.030948  0  0  0.106652  0.111562  0  1.034128  0
H  H14  1  0.80907263  0.09393164  0.66764375  1  0  0.108274  0  0.943382  0  0  0.121334  0  0.999081  0  0  0.124104  0  0.998707  0  0  0.109964  0.119324  0  0.999528  0
H  H15  1  0.19093577  0.90605359  0.33235447  1  0  0.108294  0  0.943459  0  0  0.121336  0  0.999158  0  0  0.124108  0  0.998781  0  0  0.109965  0.119324  0  0.999605  0
H  H16  1  0.09180267  0.97475009  0.69169110  1  0  0.103379  0  0.964743  0  0  0.113992  0  1.023336  0  0  0.116361  0  1.021846  0  0  0.109375  0.112196  0  1.024422  0
H  H17  1  0.90821299  0.02522165  0.30829200  1  0  0.10344  0  0.964857  0  0  0.1141  0  1.023372  0  0  0.116469  0  1.021884  0  0  0.109432  0.112299  0  1.024454  0
H  H18  1  0.32606646  0.01434494  0.54321278  1  0  0.099808  0  0.936314  0  0  0.11493  0  0.985694  0  0  0.117821  0  0.985509  0  0  0.108328  0.112834  0  0.986038  0
H  H19  1  0.67394201  0.98564132  0.45677151  1  0  0.099757  0  0.936214  0  0  0.114808  0  0.985687  0  0  0.117694  0  0.985509  0  0  0.108262  0.112715  0  0.986029  0
H  H20  1  0.26530158  0.17045205  0.37043297  1  0  0.102839  0  0.947503  0  0  0.111529  0  1.007313  0  0  0.114997  0  1.003504  0  0  0.120846  0.108879  0  1.010211  0
H  H21  1  0.73469020  0.82956228  0.62956581  1  0  0.102768  0  0.947598  0  0  0.111553  0  1.007307  0  0  0.115022  0  1.003499  0  0  0.120861  0.108905  0  1.01021  0
H  H22  1  0.38354585  0.17956996  0.73156169  1  0  0.088162  0  0.953714  0  0  0.103246  0  1.008218  0  0  0.105523  0  1.007056  0  0  0.104943  0.101551  0  1.009149  0
H  H23  1  0.61645625  0.82043261  0.26844370  1  0  0.088114  0  0.953786  0  0  0.103193  0  1.008299  0  0  0.105469  0  1.007141  0  0  0.104936  0.1015  0  1.009232  0
H  H24  1  0.12539508  0.42368532  0.48373804  1  0  0.079168  0  0.976312  0  0  0.083569  0  1.047925  0  0  0.086604  0  1.045116  0  0  0.113045  0.081277  0  1.050106  0
H  H25  1  0.87459301  0.57629843  0.51627400  1  0  0.079042  0  0.976327  0  0  0.083458  0  1.047939  0  0  0.0865  0  1.045121  0  0  0.113022  0.081166  0  1.050123  0
H  H26  1  0.11627094  0.17523035  0.85353774  1  0  0.098361  0  0.986249  0  0  0.108326  0  1.04574  0  0  0.109741  0  1.048323  0  0  0.102272  0.10724  0  1.044178  0
H  H27  1  0.88373852  0.82475958  0.14647208  1  0  0.098428  0  0.986276  0  0  0.108373  0  1.045781  0  0  0.109788  0  1.048364  0  0  0.102281  0.107287  0  1.044218  0
H  H28  1  0.86327074  0.30657045  0.78903892  1  0  0.065587  0  0.947421  0  0  0.076253  0  1.010266  0  0  0.077826  0  1.009588  0  0  0.110124  0.075079  0  1.010816  0
H  H29  1  0.13672932  0.69340630  0.21097371  1  0  0.065572  0  0.947257  0  0  0.076205  0  1.010156  0  0  0.077779  0  1.009475  0  0  0.110087  0.075032  0  1.010707  0
H  H30  1  0.26624744  0.98724035  0.01722009  1  0  0.097649  0  0.948689  0  0  0.108606  0  1.006784  0  0  0.112582  0  1.003622  0  0  0.102875  0.105711  0  1.009186  0
H  H31  1  0.73376377  0.01276013  0.98277700  1  0  0.097663  0  0.948548  0  0  0.108568  0  1.006727  0  0  0.112551  0  1.00356  0  0  0.10288  0.105674  0  1.009123  0
H  H32  1  0.74293021  0.14844132  0.09986544  1  0  0.104989  0  0.961461  0  0  0.114698  0  1.022053  0  0  0.11838  0  1.019615  0  0  0.105046  0.112045  0  1.02387  0
H  H33  1  0.25710092  0.85154621  0.90013803  1  0  0.104976  0  0.961286  0  0  0.11466  0  1.021899  0  0  0.118336  0  1.019476  0  0  0.105104  0.112012  0  1.023708  0
H  H34  1  0.56962301  0.32696222  0.15724340  1  0  0.101966  0  0.955047  0  0  0.109603  0  1.020224  0  0  0.113973  0  1.016202  0  0  0.09858  0.106399  0  1.023306  0
H  H35  1  0.43037254  0.67306359  0.84273896  1  0  0.102041  0  0.955066  0  0  0.10963  0  1.020283  0  0  0.114003  0  1.016257  0  0  0.098539  0.10637  0  1.023432  0
H  H36  1  0.21092850  0.60819901  0.98760361  1  0  0.100393  0  0.955631  0  0  0.108694  0  1.020252  0  0  0.111905  0  1.018547  0  0  0.099715  0.106296  0  1.021683  0
H  H37  1  0.78906149  0.39182984  0.01237163  1  0  0.100362  0  0.955821  0  0  0.108676  0  1.020412  0  0  0.111886  0  1.018708  0  0  0.099758  0.106309  0  1.021804  0
C  C38  1  0.75518135  0.61179295  0.11297275  1  0  0.150117  0  3.679751  0  0  0.117114  0  3.940228  0  0  0.124437  0  3.956974  0  0  0.057566  0.112341  0  3.928903  0
C  C39  1  0.24480975  0.38820894  0.88703060  1  0  0.150227  0  3.679823  0  0  0.117263  0  3.940293  0  0  0.124606  0  3.957042  0  0  0.057586  0.112469  0  3.928966  0
C  C40  1  0.62239062  0.71299744  0.07978118  1  0  -0.106456  0  3.689785  0  0  -0.119009  0  3.938844  0  0  -0.125886  0  3.960447  0  0  -0.074527  -0.114659  0  3.92449  0
C  C41  1  0.37759968  0.28700638  0.92022189  1  0  -0.106485  0  3.689936  0  0  -0.119047  0  3.938984  0  0  -0.125924  0  3.960579  0  0  -0.074528  -0.114698  0  3.924637  0
C  C42  1  0.46608515  0.72322299  0.14490622  1  0  -0.01565  0  3.738775  0  0  -0.033151  0  3.98964  0  0  -0.030956  0  4.009964  0  0  -0.069785  -0.034303  0  3.975755  0
C  C43  1  0.53390660  0.27677983  0.85509981  1  0  -0.015557  0  3.738936  0  0  -0.033085  0  3.989791  0  0  -0.030894  0  4.010125  0  0  -0.069769  -0.034237  0  3.975904  0
C  C44  1  0.44764534  0.63272552  0.23950566  1  0  -0.145502  0  3.716101  0  0  -0.165658  0  3.968766  0  0  -0.172442  0  3.99109  0  0  -0.081388  -0.161223  0  3.953692  0
C  C45  1  0.55235186  0.36726476  0.76049301  1  0  -0.145539  0  3.716277  0  0  -0.165705  0  3.968951  0  0  -0.172497  0  3.991271  0  0  -0.081397  -0.161269  0  3.953876  0
C  C46  1  0.58693419  0.53386563  0.26685055  1  0  0.174355  0  3.757127  0  0  0.171902  0  3.995187  0  0  0.177468  0  4.016635  0  0  0.12171  0.16825  0  3.980535  0
C  C47  1  0.41306671  0.46613408  0.73315805  1  0  0.174402  0  3.757239  0  0  0.172  0  3.995208  0  0  0.177565  0  4.016661  0  0  0.121734  0.168349  0  3.980554  0
C  C48  1  0.57745298  0.43407035  0.36664377  1  0  0.210809  0  3.739733  0  0  0.205901  0  3.981487  0  0  0.214152  0  4.000311  0  0  0.131287  0.200283  0  3.968762  0
C  C49  1  0.42254574  0.56592182  0.63335414  1  0  0.210729  0  3.739788  0  0  0.205892  0  3.981404  0  0  0.214135  0  4.000245  0  0  0.131268  0.200274  0  3.968675  0
C  C50  1  0.43072134  0.41657046  0.42920085  1  0  -0.153317  0  3.595171  0  0  -0.179714  0  3.842122  0  0  -0.186491  0  3.859984  0  0  -0.068059  -0.17536  0  3.830338  0
C  C51  1  0.56927470  0.58343034  0.57080397  1  0  -0.153264  0  3.595374  0  0  -0.179749  0  3.842235  0  0  -0.186533  0  3.860112  0  0  -0.068025  -0.175387  0  3.830435  0
C  C52  1  0.43125478  0.32147840  0.52342949  1  0  0.122033  0  3.74709  0  0  0.131092  0  3.982616  0  0  0.136948  0  4.00438  0  0  0.013683  0.127292  0  3.967853  0
C  C53  1  0.56874255  0.67851952  0.47657270  1  0  0.122087  0  3.747153  0  0  0.131211  0  3.982598  0  0  0.13707  0  4.004363  0  0  0.013684  0.127411  0  3.967835  0
C  C54  1  0.58285669  0.24542613  0.54849394  1  0  -0.194548  0  3.692659  0  0  -0.222946  0  3.945787  0  0  -0.230441  0  3.965803  0  0  -0.082505  -0.217982  0  3.932346  0
C  C55  1  0.41714140  0.75456985  0.45150930  1  0  -0.194516  0  3.692411  0  0  -0.222955  0  3.94555  0  0  -0.23045  0  3.965571  0  0  -0.082451  -0.217988  0  3.932107  0
C  C56  1  0.72451729  0.26839755  0.48272464  1  0  0.195001  0  3.780809  0  0  0.189546  0  4.027826  0  0  0.197126  0  4.047063  0  0  0.122735  0.184448  0  4.01476  0
C  C57  1  0.27547954  0.73160132  0.51728047  1  0  0.195182  0  3.78053  0  0  0.189669  0  4.027625  0  0  0.197253  0  4.046858  0  0  0.122749  0.184571  0  4.01456  0
C  C58  1  0.88902683  0.19292801  0.50471640  1  0  0.1784  0  3.75421  0  0  0.172437  0  3.997917  0  0  0.179597  0  4.018564  0  0  0.122827  0.167711  0  3.983932  0
C  C59  1  0.11097142  0.80706799  0.49528224  1  0  0.178309  0  3.754281  0  0  0.172377  0  3.998049  0  0  0.179533  0  4.018701  0  0  0.12278  0.167651  0  3.984063  0
C  C60  1  0.91215381  0.10847291  0.60263565  1  0  -0.137155  0  3.688994  0  0  -0.158009  0  3.942353  0  0  -0.16551  0  3.9642  0  0  -0.07792  -0.153205  0  3.927705  0
C  C61  1  0.08785537  0.89151614  0.39735999  1  0  -0.137082  0  3.689166  0  0  -0.157907  0  3.942531  0  0  -0.165406  0  3.964377  0  0  -0.077905  -0.153102  0  3.927877  0
C  C62  1  0.07024148  0.04250069  0.61704472  1  0  0.004965  0  3.706114  0  0  -0.015147  0  3.959185  0  0  -0.011197  0  3.97799  0  0  -0.065128  -0.017419  0  3.9463  0
C  C63  1  0.92977055  0.95747687  0.38294084  1  0  0.004659  0  3.706742  0  0  -0.015481  0  3.959769  0  0  -0.011531  0  3.978576  0  0  -0.065187  -0.017749  0  3.946881  0
C  C64  1  0.20116473  0.06321545  0.53401892  1  0  -0.117754  0  3.74307  0  0  -0.131599  0  3.999326  0  0  -0.138865  0  4.021443  0  0  -0.082433  -0.126922  0  3.984442  0
C  C65  1  0.79884218  0.93677942  0.46597281  1  0  -0.117451  0  3.743259  0  0  -0.131225  0  3.999512  0  0  -0.138488  0  4.02163  0  0  -0.082336  -0.126552  0  3.984625  0
C  C66  1  0.16963675  0.14788177  0.43839528  1  0  0.12749  0  3.709342  0  0  0.09537  0  3.963485  0  0  0.102686  0  3.98123  0  0  0.049979  0.090682  0  3.951338  0
C  C67  1  0.83035925  0.85212005  0.56159868  1  0  0.127481  0  3.709281  0  0  0.095321  0  3.963441  0  0  0.102632  0  3.981186  0  0  0.049956  0.090627  0  3.951298  0
C  C68  1  0.27307070  0.23164331  0.70162392  1  0  -0.052825  0  3.720921  0  0  -0.079341  0  3.965779  0  0  -0.07705  0  3.985626  0  0  -0.070331  -0.080452  0  3.952132  0
C  C69  1  0.72692627  0.76835744  0.29838757  1  0  -0.05301  0  3.721073  0  0  -0.079544  0  3.965978  0  0  -0.077251  0  3.985827  0  0  -0.070429  -0.08066  0  3.952336  0
C  C70  1  0.27808337  0.30569705  0.59660088  1  0  -0.018461  0  3.760113  0  0  0.001254  0  3.990847  0  0  -0.004597  0  4.01557  0  0  -0.009706  0.004928  0  3.974113  0
C  C71  1  0.72191229  0.69428848  0.40340076  1  0  -0.018408  0  3.760151  0  0  0.001253  0  3.990865  0  0  -0.004608  0  4.015608  0  0  -0.009701  0.00493  0  3.974127  0
C  C72  1  0.12831867  0.36935103  0.56601628  1  0  0.087006  0  3.677071  0  0  0.058857  0  3.929247  0  0  0.063915  0  3.946808  0  0  0.049893  0.055754  0  3.917358  0
C  C73  1  0.87167658  0.63064020  0.43399476  1  0  0.087114  0  3.676806  0  0  0.059  0  3.928951  0  0  0.064056  0  3.946514  0  0  0.049888  0.055894  0  3.917065  0
C  C74  1  0.12393479  0.22938781  0.77092824  1  0  -0.113507  0  3.754119  0  0  -0.12405  0  4.002864  0  0  -0.131389  0  4.026596  0  0  -0.085237  -0.119444  0  3.986967  0
C  C75  1  0.87606668  0.77060232  0.22908020  1  0  -0.11336  0  3.754024  0  0  -0.123889  0  4.002717  0  0  -0.131227  0  4.026447  0  0  -0.085129  -0.119284  0  3.98682  0
C  C76  1  0.98243441  0.30178266  0.73406781  1  0  0.131529  0  3.726662  0  0  0.103562  0  3.988814  0  0  0.110105  0  4.005795  0  0  0.046666  0.099383  0  3.977236  0
C  C77  1  0.01756137  0.69820186  0.26594240  1  0  0.13145  0  3.726556  0  0  0.103532  0  3.988653  0  0  0.110073  0  4.005636  0  0  0.046655  0.099355  0  3.977073  0
C  C78  1  0.01168026  0.15567539  0.13621232  1  0  0.60313  0  3.976627  0  0  0.55962  0  4.264601  0  0  0.592852  0  4.259639  0  0  0.18196  0.537204  0  4.266855  0
C  C79  1  0.98831805  0.84433585  0.86379870  1  0  0.603018  0  3.976442  0  0  0.559471  0  4.264392  0  0  0.592703  0  4.259431  0  0  0.181949  0.537059  0  4.266646  0
C  C80  1  0.00543396  0.07465434  0.06635882  1  0  -0.056846  0  3.749391  0  0  -0.035433  0  3.983401  0  0  -0.041434  0  4.005257  0  0  -0.019211  -0.031515  0  3.968565  0
C  C81  1  0.99458856  0.92535057  0.93365231  1  0  -0.056654  0  3.749034  0  0  -0.035134  0  3.982849  0  0  -0.041125  0  4.004693  0  0  -0.019164  -0.031232  0  3.968039  0
C  C82  1  0.15023155  0.99077346  0.00987394  1  0  -0.092198  0  3.761504  0  0  -0.111918  0  4.009762  0  0  -0.112805  0  4.028667  0  0  -0.088338  -0.111131  0  3.996825  0
C  C83  1  0.84978147  0.00922690  0.99013800  1  0  -0.092324  0  3.761346  0  0  -0.112021  0  4.00958  0  0  -0.11292  0  4.028486  0  0  -0.08842  -0.111226  0  3.996643  0
C  C84  1  0.85490603  0.08324172  0.05580973  1  0  -0.07766  0  3.73185  0  0  -0.100131  0  3.980198  0  0  -0.100936  0  3.999835  0  0  -0.08476  -0.099435  0  3.966765  0
C  C85  1  0.14511880  0.91675840  0.94419214  1  0  -0.077859  0  3.731544  0  0  -0.100321  0  3.979908  0  0  -0.101127  0  3.999541  0  0  -0.084935  -0.099621  0  3.96648  0
C  C86  1  0.24779503  0.41728928  0.16457659  1  0  0.624955  0  3.957768  0  0  0.577619  0  4.247141  0  0  0.61203  0  4.240987  0  0  0.186924  0.554305  0  4.250157  0
C  C87  1  0.75221419  0.58273804  0.83541922  1  0  0.624999  0  3.957069  0  0  0.577635  0  4.24654  0  0  0.612049  0  4.240384  0  0  0.186905  0.554324  0  4.249549  0
C  C88  1  0.37690478  0.46334443  0.08133270  1  0  -0.066902  0  3.77494  0  0  -0.040355  0  4.00052  0  0  -0.047615  0  4.024198  0  0  -0.022366  -0.03549  0  3.98434  0
C  C89  1  0.62308776  0.53668626  0.91864536  1  0  -0.066527  0  3.774222  0  0  -0.040082  0  3.999991  0  0  -0.047345  0  4.023673  0  0  -0.022253  -0.035217  0  3.983798  0
C  C90  1  0.54007934  0.40231705  0.08784724  1  0  -0.083675  0  3.747062  0  0  -0.106543  0  3.997509  0  0  -0.108179  0  4.018607  0  0  -0.091221  -0.105215  0  3.983042  0
C  C91  1  0.45991481  0.59770690  0.91213206  1  0  -0.083865  0  3.747197  0  0  -0.10665  0  3.997628  0  0  -0.108286  0  4.01872  0  0  -0.091191  -0.105271  0  3.983169  0
C  C92  1  0.33761061  0.56178224  0.99310727  1  0  -0.078891  0  3.747167  0  0  -0.103354  0  4.000579  0  0  -0.104299  0  4.022001  0  0  -0.091647  -0.102601  0  3.986  0
C  C93  1  0.66238101  0.43824562  0.00686557  1  0  -0.07924  0  3.747138  0  0  -0.103685  0  4.000691  0  0  -0.104631  0  4.022119  0  0  -0.091915  -0.102953  0  3.986109  0
N  N94  1  0.73763470  0.52550899  0.20410202  1  0  -0.345807  0  3.2153  0  0  -0.280222  0  3.473281  0  0  -0.298671  0  3.492078  0  0  -0.317719  -0.267555  0  3.460213  0
N  N95  1  0.26235926  0.47448614  0.79589925  1  0  -0.345899  0  3.215373  0  0  -0.280424  0  3.47345  0  0  -0.298868  0  3.492226  0  0  -0.317783  -0.267761  0  3.460398  0
N  N96  1  0.71921460  0.36165815  0.39467693  1  0  -0.381649  0  3.242156  0  0  -0.320496  0  3.497643  0  0  -0.339527  0  3.515024  0  0  -0.323295  -0.307464  0  3.485705  0
N  N97  1  0.28077435  0.63834279  0.60533394  1  0  -0.381751  0  3.242206  0  0  -0.320578  0  3.497661  0  0  -0.339608  0  3.51504  0  0  -0.323322  -0.307546  0  3.485725  0
N  N98  1  0.01763243  0.21014890  0.42441428  1  0  -0.347818  0  3.246416  0  0  -0.274532  0  3.507545  0  0  -0.29512  0  3.525952  0  0  -0.318188  -0.26058  0  3.494858  0
N  N99  1  0.98236285  0.78985960  0.57558587  1  0  -0.347751  0  3.246308  0  0  -0.274601  0  3.507638  0  0  -0.295187  0  3.526047  0  0  -0.318192  -0.260647  0  3.494953  0
N  N100  1  0.98345811  0.36887448  0.63255780  1  0  -0.315531  0  3.088809  0  0  -0.278361  0  3.36524  0  0  -0.290228  0  3.380915  0  0  -0.321149  -0.270253  0  3.354468  0
N  N101  1  0.01653823  0.63110622  0.36744939  1  0  -0.315499  0  3.088789  0  0  -0.278315  0  3.365049  0  0  -0.290178  0  3.380724  0  0  -0.321105  -0.270209  0  3.354277  0
O  O102  1  0.14846600  0.15158611  0.14065675  1  0  -0.632622  0  1.880933  0  0  -0.582204  0  2.098054  0  0  -0.607018  0  2.088469  0  0  -0.341417  -0.564607  0  2.103837  0
O  O103  1  0.85153438  0.84842607  0.85934905  1  0  -0.632497  0  1.880871  0  0  -0.582116  0  2.098041  0  0  -0.60692  0  2.088438  0  0  -0.341343  -0.56452  0  2.103824  0
O  O104  1  0.87369963  0.22578269  0.18902082  1  0  -0.633915  0  1.969065  0  0  -0.570661  0  2.208829  0  0  -0.599884  0  2.200212  0  0  -0.336547  -0.549962  0  2.213828  0
O  O105  1  0.12627688  0.77420708  0.81099076  1  0  -0.634014  0  1.969191  0  0  -0.570678  0  2.208895  0  0  -0.599902  0  2.200275  0  0  -0.336649  -0.549979  0  2.213888  0
O  O106  1  0.10817372  0.45974006  0.14023249  1  0  -0.652728  0  2.031426  0  0  -0.580476  0  2.287736  0  0  -0.612771  0  2.278739  0  0  -0.338839  -0.557634  0  2.292885  0
O  O107  1  0.89183608  0.54024704  0.85976880  1  0  -0.65278  0  2.031166  0  0  -0.580521  0  2.287469  0  0  -0.61281  0  2.278467  0  0  -0.338848  -0.557686  0  2.292625  0
O  O108  1  0.27888671  0.33970494  0.24995940  1  0  -0.634289  0  1.908604  0  0  -0.586426  0  2.131862  0  0  -0.610869  0  2.122227  0  0  -0.338245  -0.568954  0  2.137683  0
O  O109  1  0.72113214  0.66035083  0.75004138  1  0  -0.634295  0  1.908335  0  0  -0.58641  0  2.131633  0  0  -0.610857  0  2.121998  0  0  -0.338242  -0.56895  0  2.137476  0
