# generated using pymatgen
data_Mn3H56C84(N7O9)2
_symmetry_space_group_name_H-M   'P 1'
_cell_length_a   12.20568767
_cell_length_b   13.78072107
_cell_length_c   13.48773886
_cell_angle_alpha   89.28757970
_cell_angle_beta   65.85316482
_cell_angle_gamma   71.09255823
_symmetry_Int_Tables_number   1
_chemical_formula_structural   Mn3H56C84(N7O9)2
_chemical_formula_sum   'Mn3 H56 C84 N14 O18'
_cell_volume   1939.41811237
_cell_formula_units_Z   1
loop_
 _symmetry_equiv_pos_site_id
 _symmetry_equiv_pos_as_xyz
  1  'x, y, z'
loop_
 _atom_site_type_symbol
 _atom_site_label
 _atom_site_symmetry_multiplicity
 _atom_site_fract_x
 _atom_site_fract_y
 _atom_site_fract_z
 _atom_site_occupancy
 _atom_site_pbe_bader_charge
 _atom_site_pbe_bader_spin_density
 _atom_site_pbe_cm5_charge
 _atom_site_pbe_ddec_charge
 _atom_site_pbe_ddec_spin_density
 _atom_site_pbe_ddec_sum_bond_order
 _atom_site_pbe_magmom
Mn  Mn0  1  0.49999548  0.50000250  0.50000493  1  1.524042  4.546326  0.614558  0.947005  4.687659  2.397099  4.473
Mn  Mn1  1  0.45812249  0.75559713  0.63226342  1  1.464034  4.547731  0.61439  0.937094  4.674864  2.295092  4.426
Mn  Mn2  1  0.54187433  0.24441095  0.36773682  1  1.46397  4.547751  0.614351  0.93699  4.674873  2.295151  4.426
H  H3  1  0.29713950  0.39903552  0.26643494  1  0.499151  0.000249  0.304856  0.279572  0.000489  1.001221  0.0
H  H4  1  0.70286423  0.60095863  0.73356071  1  0.499215  0.000249  0.304875  0.279583  0.000489  1.001239  0.0
H  H5  1  0.49157949  0.25225638  0.97707906  1  0.496616  5e-06  0.3106  0.275018  -2.5e-05  0.980991  0.0
H  H6  1  0.50842056  0.74774628  0.02292228  1  0.496587  5e-06  0.310577  0.274967  -2.5e-05  0.981059  0.0
H  H7  1  0.91558481  0.42820094  0.92601386  1  0.45533  3e-06  0.325058  0.277551  -3e-06  0.932405  0.0
H  H8  1  0.08442040  0.57179397  0.07397901  1  0.45515  3e-06  0.325103  0.277609  -3e-06  0.932293  0.0
H  H9  1  0.84921476  0.72898687  0.41307881  1  0.06531  0.000255  0.095215  0.095289  -0.000219  1.01957  0.0
H  H10  1  0.15078628  0.27100727  0.58691932  1  0.06529  0.000255  0.095239  0.09534  -0.000219  1.019559  0.0
H  H11  1  0.08663041  0.67964055  0.32435381  1  0.107154  7.8e-05  0.096014  0.112821  2.1e-05  1.076958  0.0
H  H12  1  0.91336997  0.32035514  0.67564231  1  0.10703  7.8e-05  0.095995  0.112794  2.1e-05  1.07699  0.0
H  H13  1  0.12529701  0.35886493  0.34484146  1  0.151735  0.000137  0.105269  0.126375  2.6e-05  1.025207  0.0
H  H14  1  0.87470056  0.64113309  0.65516012  1  0.151557  0.000137  0.10526  0.12635  2.6e-05  1.025172  0.0
H  H15  1  0.88955901  0.40917988  0.43050437  1  0.058067  0.000203  0.096039  0.086329  -0.000179  1.048454  0.0
H  H16  1  0.11043834  0.59081659  0.56949434  1  0.058153  0.000203  0.096016  0.086333  -0.000179  1.048445  0.0
H  H17  1  0.51835232  0.61116605  0.14240557  1  0.131596  1.3e-05  0.104847  0.096401  -6.7e-05  1.056941  0.0
H  H18  1  0.48165052  0.38883430  0.85760144  1  0.131615  1.3e-05  0.104832  0.096353  -6.7e-05  1.056876  0.0
H  H19  1  0.81160178  0.34046257  0.91491583  1  0.095159  2e-06  0.110375  0.107824  -4e-06  1.011117  0.0
H  H20  1  0.18840333  0.65954087  0.08508363  1  0.095043  2e-06  0.110373  0.107793  -4e-06  1.011091  0.0
H  H21  1  0.44439389  0.32894248  0.12948202  1  0.129443  0.000189  0.10989  0.102828  0.00027  1.076291  0.0
H  H22  1  0.55560976  0.67106018  0.87051206  1  0.129624  0.000189  0.109878  0.102832  0.00027  1.076206  0.0
H  H23  1  0.39423028  0.17439780  0.91501382  1  0.108599  -1e-06  0.106255  0.123114  -2.2e-05  1.010159  0.0
H  H24  1  0.60576934  0.82560796  0.08498245  1  0.108475  -1e-06  0.10627  0.123104  -2.2e-05  1.0102  0.0
H  H25  1  0.39261531  0.01565577  0.82925530  1  0.101267  0.000261  0.107745  0.113911  -0.000222  0.987704  0.0
H  H26  1  0.60738172  0.98434768  0.17074789  1  0.101267  0.000261  0.107747  0.113927  -0.000222  0.987679  0.0
H  H27  1  0.76675805  0.84656214  0.80647934  1  0.077347  6.5e-05  0.101836  0.103226  -2.3e-05  1.013042  0.0
H  H28  1  0.23323841  0.15344053  0.19352481  1  0.077285  6.5e-05  0.101821  0.10323  -2.3e-05  1.013049  0.0
H  H29  1  0.77247458  0.00563609  0.88880439  1  0.104358  6.9e-05  0.106003  0.126204  3.3e-05  1.017631  0.0
H  H30  1  0.22752278  0.99436658  0.11119646  1  0.104478  6.9e-05  0.106027  0.126231  3.3e-05  1.017703  0.0
H  H31  1  0.85024475  0.70891548  0.90619734  1  0.134205  1e-05  0.104823  0.123628  -3.8e-05  1.039961  0.0
H  H32  1  0.14975764  0.29108176  0.09380469  1  0.134489  1e-05  0.104816  0.123555  -3.8e-05  1.039997  0.0
H  H33  1  0.02949194  0.77664832  0.81854354  1  0.078571  0.000411  0.1047  0.108674  3.2e-05  0.995767  0.0
H  H34  1  0.97050866  0.22334892  0.18145470  1  0.078574  0.000411  0.104676  0.108692  3.2e-05  0.995812  0.0
H  H35  1  0.30326508  0.46941072  0.74864342  1  0.084705  0.000353  0.105766  0.102184  -0.00013  1.034379  0.0
H  H36  1  0.69673798  0.53058497  0.25135616  1  0.084758  0.000353  0.105756  0.102192  -0.00013  1.034378  0.0
H  H37  1  0.12659351  0.40011855  0.83892770  1  0.074536  2.8e-05  0.105576  0.113374  -2.7e-05  0.985408  0.0
H  H38  1  0.87340855  0.59987947  0.16107371  1  0.074635  2.8e-05  0.105584  0.113373  -2.7e-05  0.985469  0.0
H  H39  1  0.41257143  0.31531452  0.68623260  1  0.065857  0.00052  0.12156  0.115292  -4e-05  0.997852  0.0
H  H40  1  0.58742582  0.68468427  0.31376316  1  0.065691  0.00052  0.121571  0.115287  -4e-05  0.997895  0.0
H  H41  1  0.60820716  0.16340057  0.71238198  1  0.147166  0.000674  0.118344  0.110892  0.000408  1.057051  0.0
H  H42  1  0.39178683  0.83660365  0.28762455  1  0.147092  0.000674  0.118362  0.110938  0.000408  1.057014  0.0
H  H43  1  0.76164841  0.34950176  0.48102960  1  0.127714  0.000432  0.134973  0.096394  -0.000152  1.04997  0.0
H  H44  1  0.23834546  0.65049858  0.51897108  1  0.126193  0.000433  0.134975  0.096356  -0.000152  1.049927  0.0
H  H45  1  0.78757134  0.15536593  0.74712504  1  0.122354  5.3e-05  0.111637  0.121391  4.6e-05  1.039093  0.0
H  H46  1  0.21242758  0.84463518  0.25287600  1  0.122345  5.3e-05  0.111634  0.121388  4.6e-05  1.039115  0.0
H  H47  1  0.00376418  0.06054070  0.72859066  1  0.093664  6.9e-05  0.11652  0.130599  1.5e-05  0.984567  0.0
H  H48  1  0.99623464  0.93946274  0.27140890  1  0.093648  6.9e-05  0.116551  0.130591  1.5e-05  0.984556  0.0
H  H49  1  0.15808681  0.09590573  0.38411453  1  0.098889  8.4e-05  0.107393  0.112148  5.8e-05  1.031274  0.0
H  H50  1  0.84191225  0.90409925  0.61588344  1  0.098898  8.4e-05  0.107426  0.112161  5.8e-05  1.031321  0.0
H  H51  1  0.93918934  0.19387226  0.40482277  1  0.06729  0.000157  0.11055  0.115091  8e-06  1.001952  0.0
H  H52  1  0.06080623  0.80613041  0.59517949  1  0.067399  0.000157  0.110557  0.11511  8e-06  1.001943  0.0
H  H53  1  0.34063245  0.07092299  0.40714002  1  0.11467  0.000734  0.126535  0.128801  0.000286  1.032606  0.0
H  H54  1  0.65936906  0.92908045  0.59286300  1  0.114654  0.000734  0.126525  0.128778  0.000286  1.032623  0.0
H  H55  1  0.53296218  0.90982408  0.42862975  1  0.150677  0.000519  0.125144  0.118997  7.3e-05  0.991786  0.0
H  H56  1  0.46703720  0.09018014  0.57137701  1  0.150772  0.000519  0.125151  0.118976  7.3e-05  0.991754  0.0
H  H57  1  0.17792167  0.90779292  0.66390637  1  0.184879  0.000401  0.140598  0.111661  -0.000129  1.019069  0.0
H  H58  1  0.82207233  0.09221129  0.33609570  1  0.184924  0.0004  0.140595  0.111677  -0.000129  1.019058  0.0
C  C59  1  0.97646625  0.55032476  0.87849534  1  0.363919  0.004603  0.104413  0.257172  0.00374  4.009111  0.003
C  C60  1  0.02353502  0.44967094  0.12150639  1  0.364187  0.004601  0.104345  0.257145  0.003739  4.009066  0.003
C  C61  1  0.71123822  0.59935162  0.47523032  1  1.535192  0.023779  0.224019  0.597183  0.024198  4.161562  0.021
C  C62  1  0.28875980  0.40064330  0.52476446  1  1.535545  0.023779  0.224017  0.597203  0.024201  4.1616  0.021
C  C63  1  0.85273712  0.57247462  0.42635312  1  0.004625  0.001663  -0.031833  -0.073272  0.000525  4.014451  0.0
C  C64  1  0.14726381  0.42752185  0.57364427  1  0.004622  0.001661  -0.031811  -0.073206  0.000523  4.01461  0.0
C  C65  1  0.91027703  0.64776891  0.39691437  1  -0.064525  0.004763  -0.089667  -0.076541  0.003443  4.007129  0.003
C  C66  1  0.08972357  0.35222833  0.60308314  1  -0.064555  0.004765  -0.089688  -0.076656  0.003444  4.007178  0.003
C  C67  1  0.04312214  0.62071277  0.34737264  1  -0.022347  -0.000511  -0.110082  -0.206562  -0.000493  3.968486  0.0
C  C68  1  0.95687611  0.37928369  0.65262500  1  -0.021978  -0.000511  -0.110086  -0.206516  -0.000493  3.968373  0.0
C  C69  1  0.12172736  0.51564952  0.32744766  1  0.34729  0.003863  0.103168  0.263636  0.003073  3.98794  0.003
C  C70  1  0.87826999  0.48434696  0.67255180  1  0.346717  0.003864  0.103197  0.263659  0.003074  3.987887  0.003
C  C71  1  0.06427889  0.43989897  0.35958480  1  0.006475  -0.000809  -0.095409  -0.181898  -0.000884  3.953888  -0.001
C  C72  1  0.93572215  0.56009517  0.64041333  1  0.006976  -0.00081  -0.095423  -0.181927  -0.000885  3.953787  -0.001
C  C73  1  0.93252523  0.46847632  0.40730654  1  -0.07841  0.003773  -0.08491  -0.066761  0.002679  4.018258  0.002
C  C74  1  0.06747448  0.53152092  0.59269056  1  -0.078434  0.003774  -0.08488  -0.066711  0.00268  4.01822  0.002
C  C75  1  0.33317754  0.53499904  0.22633257  1  1.353075  0.000746  0.240898  0.474478  0.000598  4.096583  0.0
C  C76  1  0.66682609  0.46499743  0.77366605  1  1.352883  0.000746  0.240947  0.47448  0.000598  4.096681  0.0
C  C77  1  0.46892152  0.47487572  0.14827898  1  0.02763  0.000348  -0.00861  -0.013213  6.1e-05  3.9659  0.0
C  C78  1  0.53108177  0.52512153  0.85172123  1  0.027505  0.000348  -0.00865  -0.013303  6.1e-05  3.966043  0.0
C  C79  1  0.55226502  0.52999705  0.10920548  1  0.031625  0.000504  -0.067042  -0.086873  5e-05  3.917708  0.0
C  C80  1  0.44773479  0.47000407  0.89079893  1  0.031974  0.000504  -0.067053  -0.086808  5e-05  3.917631  0.0
C  C81  1  0.67645595  0.48341156  0.02630153  1  -0.090802  0.000234  -0.018905  -0.054534  0.000112  4.013148  0.0
C  C82  1  0.32354409  0.51659111  0.97370723  1  -0.091006  0.000234  -0.018798  -0.054501  0.000112  4.013109  0.0
C  C83  1  0.71784121  0.37944715  0.98259865  1  -0.014503  0.000692  -0.06699  -0.099989  0.000471  3.911315  0.0
C  C84  1  0.28216041  0.62055396  0.01740287  1  -0.014436  0.000692  -0.067075  -0.099959  0.000471  3.911301  0.0
C  C85  1  0.63318424  0.32455819  0.01889275  1  0.006797  0.000274  -0.006329  -0.010894  0.000122  3.960855  0.0
C  C86  1  0.36681805  0.67544138  0.98110558  1  0.00672  0.000274  -0.006314  -0.01099  0.000122  3.960761  0.0
C  C87  1  0.50977237  0.37199608  0.10199077  1  -0.131716  0.001597  -0.07033  -0.120631  0.001539  3.92202  0.0
C  C88  1  0.49023205  0.62800271  0.89800456  1  -0.131779  0.001596  -0.07032  -0.120543  0.001539  3.921919  0.0
C  C89  1  0.67520847  0.21740901  0.96235522  1  1.393384  0.000293  0.246996  0.491766  0.000155  4.080691  0.0
C  C90  1  0.32479406  0.78259210  0.03764078  1  1.393439  0.000293  0.247046  0.491872  0.000155  4.080661  0.0
C  C91  1  0.58412954  0.10062566  0.90630614  1  0.354566  0.002148  0.103488  0.253942  0.001724  4.008351  0.001
C  C92  1  0.41586885  0.89938088  0.09369206  1  0.355218  0.002148  0.103503  0.253959  0.001725  4.008298  0.001
C  C93  1  0.47672229  0.10255481  0.88947158  1  -0.063951  -0.000616  -0.097524  -0.191655  -0.000648  3.962049  0.0
C  C94  1  0.52327856  0.89745018  0.11052351  1  -0.063928  -0.000616  -0.097543  -0.191666  -0.000648  3.962136  0.0
C  C95  1  0.47568439  0.01428755  0.84200460  1  -0.023078  0.002198  -0.084661  -0.075592  0.001436  3.999623  0.001
C  C96  1  0.52431837  0.98571511  0.15799204  1  -0.023129  0.002198  -0.084672  -0.075571  0.001436  3.999499  0.001
C  C97  1  0.58066599  0.92127713  0.81100050  1  -0.051903  0.000918  -0.034527  -0.076909  0.000185  4.023659  0.0
C  C98  1  0.41933304  0.07872166  0.18900350  1  -0.051907  0.000918  -0.034496  -0.076916  0.000184  4.023565  0.0
C  C99  1  0.68660864  0.91967612  0.82877662  1  -0.068663  0.002866  -0.08988  -0.087126  0.002182  4.019004  0.002
C  C100  1  0.31338636  0.08032578  0.17122586  1  -0.068666  0.002866  -0.089847  -0.087092  0.002182  4.019038  0.002
C  C101  1  0.69009342  0.00772569  0.87507901  1  -0.022637  -7.9e-05  -0.099406  -0.190365  -8e-05  3.966123  0.0
C  C102  1  0.30990204  0.99227930  0.12492400  1  -0.02284  -7.9e-05  -0.099445  -0.190393  -8e-05  3.966227  0.0
C  C103  1  0.57963373  0.82503394  0.76142590  1  1.555692  0.013428  0.204683  0.56878  0.013979  4.24046  0.012
C  C104  1  0.42036486  0.17496795  0.23857748  1  1.556005  0.013427  0.204703  0.568762  0.01398  4.240358  0.012
C  C105  1  0.75164740  0.55352866  0.98321599  1  1.367901  0.001032  0.246716  0.483895  0.000921  4.097904  0.001
C  C106  1  0.24835644  0.44646937  0.01679217  1  1.367718  0.001031  0.246756  0.483997  0.000921  4.098237  0.001
C  C107  1  0.94930063  0.65704583  0.87255177  1  0.016318  -0.001456  -0.098418  -0.188286  -0.001504  3.959514  -0.001
C  C108  1  0.05070177  0.34295141  0.12744878  1  0.015864  -0.001455  -0.098389  -0.188119  -0.001503  3.95939  -0.001
C  C109  1  0.04975567  0.69394468  0.82240821  1  -0.093354  0.005982  -0.083593  -0.077958  0.004461  3.991789  0.004
C  C110  1  0.95024886  0.30605178  0.17759082  1  -0.093432  0.005981  -0.083601  -0.078072  0.00446  3.991849  0.004
C  C111  1  0.17786263  0.62683557  0.77615675  1  0.058725  -0.002948  -0.025748  -0.057542  -0.00449  4.007136  -0.003
C  C112  1  0.82214179  0.37316322  0.22384006  1  0.058989  -0.002948  -0.025758  -0.057532  -0.00449  4.007087  -0.003
C  C113  1  0.20381779  0.52086456  0.78306554  1  -0.032932  0.005345  -0.080813  -0.068637  0.003649  3.99597  0.003
C  C114  1  0.79618427  0.47913345  0.21693067  1  -0.033085  0.005344  -0.080779  -0.068581  0.003647  3.995969  0.003
C  C115  1  0.10499932  0.48288055  0.83379884  1  -0.105768  -0.001218  -0.096611  -0.191745  -0.001277  3.984376  -0.001
C  C116  1  0.89500364  0.51711747  0.16620149  1  -0.105917  -0.001217  -0.096575  -0.191757  -0.001277  3.984438  -0.001
C  C117  1  0.28309020  0.66803625  0.72199195  1  1.499828  0.024448  0.20726  0.560702  0.025202  4.190172  0.02
C  C118  1  0.71691624  0.33195789  0.27799973  1  1.50011  0.024441  0.207144  0.560623  0.025194  4.190468  0.02
C  C119  1  0.51437495  0.30156873  0.64884247  1  0.473796  0.005634  0.00899  -0.021079  0.004187  3.985298  0.004
C  C120  1  0.48562308  0.69843239  0.35115964  1  0.474044  0.005634  0.008938  -0.021121  0.004187  3.985257  0.004
C  C121  1  0.61019534  0.22512992  0.66211719  1  0.280763  0.001578  0.007599  -0.079878  0.000855  3.908055  0.001
C  C122  1  0.38980145  0.77487197  0.33788611  1  0.280464  0.001578  0.007582  -0.079914  0.000855  3.908087  0.001
C  C123  1  0.69296345  0.31860960  0.53768094  1  1.010967  0.010103  0.15187  0.109428  0.009053  3.91097  0.007
C  C124  1  0.30703469  0.68138919  0.46231745  1  1.012169  0.010101  0.15188  0.109482  0.009052  3.910968  0.007
C  C125  1  0.84912600  0.17888499  0.57700406  1  0.33485  0.001004  0.098843  0.165156  0.000861  4.018005  0.001
C  C126  1  0.15087103  0.82111846  0.42299839  1  0.334831  0.001004  0.098835  0.165172  0.000861  4.017933  0.001
C  C127  1  0.86785967  0.14026532  0.66711780  1  0.002152  0.000363  -0.078512  -0.125151  0.000318  3.9608  0.0
C  C128  1  0.13214049  0.85973502  0.33288130  1  0.002145  0.000363  -0.078503  -0.125143  0.000318  3.960836  0.0
C  C129  1  0.99092330  0.08696197  0.65629904  1  0.021306  0.000881  -0.081857  -0.154123  0.000639  3.969342  0.0
C  C130  1  0.00907653  0.91303915  0.34370241  1  0.021287  0.000881  -0.081915  -0.154139  0.000639  3.969396  0.0
C  C131  1  0.09556455  0.07076180  0.55433995  1  0.270076  0.001099  0.094512  0.158199  0.00101  4.022059  0.001
C  C132  1  0.90443258  0.92923931  0.44565878  1  0.270031  0.001099  0.094521  0.158206  0.00101  4.022193  0.001
C  C133  1  0.07712656  0.11028573  0.46415554  1  0.018455  0.000658  -0.08413  -0.13794  0.000559  3.967872  0.0
C  C134  1  0.92286934  0.88971616  0.53584364  1  0.018424  0.000658  -0.084141  -0.137902  0.000559  3.96797  0.0
C  C135  1  0.95377417  0.16469640  0.47563388  1  -0.036632  0.000894  -0.085446  -0.153114  0.000609  3.982135  0.0
C  C136  1  0.04622195  0.83530705  0.52436742  1  -0.036563  0.000894  -0.085424  -0.153133  0.000609  3.982137  0.0
C  C137  1  0.33614374  0.01315314  0.46219574  1  0.3378  0.001493  0.003671  -0.103795  0.000938  3.894536  0.001
C  C138  1  0.66385508  0.98685030  0.53780679  1  0.337791  0.001493  0.003678  -0.103706  0.000938  3.89455  0.001
C  C139  1  0.43004180  0.93375757  0.47451668  1  0.363276  0.006349  0.009741  -0.021498  0.004726  4.021493  0.005
C  C140  1  0.56995658  0.06624897  0.52548894  1  0.36318  0.006347  0.009734  -0.021562  0.004724  4.021549  0.005
C  C141  1  0.24861694  0.93061984  0.59821944  1  0.930444  0.013236  0.149393  0.099342  0.011198  3.895955  0.01
C  C142  1  0.75138031  0.06938515  0.40178217  1  0.930315  0.013233  0.14929  0.099206  0.011196  3.895897  0.01
N  N143  1  0.56713020  0.36015975  0.57160882  1  -1.268269  0.054544  -0.341353  -0.311262  0.038491  3.521278  0.016
N  N144  1  0.43286647  0.63983827  0.42839087  1  -1.268227  0.054539  -0.341321  -0.311227  0.038493  3.521337  0.016
N  N145  1  0.37465391  0.88311724  0.55957898  1  -1.233427  0.059553  -0.345038  -0.297701  0.037648  3.532978  0.016
N  N146  1  0.62534301  0.11688853  0.44042644  1  -1.23351  0.059563  -0.344908  -0.297482  0.037643  3.532816  0.016
N  N147  1  0.72375105  0.23579217  0.58955469  1  -1.264101  0.004496  -0.225576  0.009137  0.002579  3.820025  0.003
N  N148  1  0.27624698  0.76420895  0.41044594  1  -1.263561  0.004496  -0.225581  0.009105  0.002579  3.819962  0.003
N  N149  1  0.22062025  0.01021875  0.54124023  1  -1.267242  0.005331  -0.22648  0.005123  0.003258  3.805125  0.003
N  N150  1  0.77937801  0.98978392  0.45875955  1  -1.267101  0.00533  -0.22654  0.005045  0.003257  3.805251  0.003
N  N151  1  0.25581846  0.47870056  0.27390936  1  -1.285723  0.001431  -0.390711  -0.367581  0.000932  3.550333  0.001
N  N152  1  0.74418338  0.52129590  0.72608770  1  -1.285811  0.001431  -0.390814  -0.367681  0.000932  3.550415  0.001
N  N153  1  0.57758033  0.19302688  0.95443983  1  -1.25457  0.000669  -0.393938  -0.379663  0.00035  3.552013  0.0
N  N154  1  0.42242029  0.80697655  0.04555758  1  -1.2549  0.000669  -0.393951  -0.3797  0.00035  3.55201  0.0
N  N155  1  0.88173139  0.50614186  0.92715412  1  -1.248054  0.000648  -0.38983  -0.368108  0.000287  3.59994  0.0
N  N156  1  0.11827167  0.49385384  0.07284694  1  -1.248044  0.000648  -0.389859  -0.368147  0.000286  3.600062  0.0
O  O157  1  0.66933087  0.52503669  0.48084189  1  -1.203015  0.072992  -0.308477  -0.564313  0.052806  2.376897  0.036
O  O158  1  0.33066897  0.47495822  0.51913665  1  -1.203155  0.072985  -0.308478  -0.564415  0.052803  2.376777  0.036
O  O159  1  0.63935605  0.69497655  0.50819838  1  -1.211982  0.078601  -0.325913  -0.572497  0.050431  2.324769  0.03
O  O160  1  0.36064196  0.30501838  0.49180530  1  -1.212101  0.078586  -0.325918  -0.572422  0.050425  2.32481  0.03
O  O161  1  0.48187878  0.83579106  0.74134499  1  -1.197437  0.082747  -0.332957  -0.570044  0.053764  2.337989  0.035
O  O162  1  0.51812024  0.16420774  0.25865975  1  -1.197682  0.082736  -0.33296  -0.570039  0.053758  2.337983  0.035
O  O163  1  0.67109793  0.74115675  0.74307493  1  -1.198869  0.01423  -0.318547  -0.563168  0.010212  2.213333  0.01
O  O164  1  0.32890179  0.25884669  0.25692578  1  -1.198915  0.01423  -0.318562  -0.563151  0.010212  2.213271  0.01
O  O165  1  0.25816257  0.76557295  0.73253254  1  -1.174028  0.065532  -0.308656  -0.542796  0.043173  2.218641  0.034
O  O166  1  0.74184566  0.23442118  0.26746071  1  -1.174148  0.065517  -0.308608  -0.542804  0.043165  2.218832  0.034
O  O167  1  0.39946465  0.60661786  0.66428949  1  -1.222713  0.088592  -0.302086  -0.579825  0.065105  2.323108  0.036
O  O168  1  0.60054099  0.39337395  0.33570326  1  -1.222751  0.088577  -0.30202  -0.579742  0.065098  2.323209  0.036
O  O169  1  0.29450799  0.63115171  0.23922239  1  -1.104644  0.001102  -0.282205  -0.476325  0.000671  2.21282  0.001
O  O170  1  0.70549193  0.36884709  0.76078053  1  -1.104555  0.001103  -0.282139  -0.476195  0.000672  2.21291  0.001
O  O171  1  0.78835461  0.15866590  0.92384074  1  -1.132855  0.000385  -0.29382  -0.475986  0.000247  2.089831  0.0
O  O172  1  0.21164828  0.84134063  0.07615209  1  -1.132852  0.000385  -0.293846  -0.476014  0.000247  2.089748  0.0
O  O173  1  0.69676576  0.64921975  0.99844280  1  -1.151148  0.001154  -0.285216  -0.481319  0.000799  2.156061  0.001
O  O174  1  0.30324075  0.35077828  0.00158142  1  -1.151009  0.001154  -0.285269  -0.481445  0.000798  2.156216  0.001
