# generated using pymatgen
data_CoH7C7NO6
_symmetry_space_group_name_H-M   'P 1'
_cell_length_a   7.39068566
_cell_length_b   7.74428836
_cell_length_c   7.74427012
_cell_angle_alpha   100.90943979
_cell_angle_beta   100.12588578
_cell_angle_gamma   100.12592074
_symmetry_Int_Tables_number   1
_chemical_formula_structural   CoH7C7NO6
_chemical_formula_sum   'Co2 H14 C14 N2 O12'
_cell_volume   418.31484855
_cell_formula_units_Z   2
loop_
 _symmetry_equiv_pos_site_id
 _symmetry_equiv_pos_as_xyz
  1  'x, y, z'
loop_
 _atom_site_type_symbol
 _atom_site_label
 _atom_site_symmetry_multiplicity
 _atom_site_fract_x
 _atom_site_fract_y
 _atom_site_fract_z
 _atom_site_occupancy
 _atom_site_hle17_ddec_charge
 _atom_site_hle17_ddec_spin_density
 _atom_site_hle17_ddec_sum_bond_order
 _atom_site_hle17_magmom
 _atom_site_hse06_10hf_ddec_charge
 _atom_site_hse06_10hf_ddec_spin_density
 _atom_site_hse06_10hf_ddec_sum_bond_order
 _atom_site_hse06_10hf_magmom
 _atom_site_hse06_ddec_charge
 _atom_site_hse06_ddec_spin_density
 _atom_site_hse06_ddec_sum_bond_order
 _atom_site_hse06_magmom
 _atom_site_pbe_cm5_charge
 _atom_site_pbe_ddec_charge
 _atom_site_pbe_ddec_spin_density
 _atom_site_pbe_ddec_sum_bond_order
 _atom_site_pbe_magmom
Co  Co0  1  0.74999872  0.33465305  0.66534608  1  1.034786  -2.871125  1.78063  -2.604  1.002189  -2.866869  2.154486  -2.677  1.080036  -2.899125  2.088651  -2.746  0.638854  0.936156  -2.843728  2.214191  -2.616
Co  Co1  1  0.24999913  0.66534629  0.33465537  1  1.034836  -2.871132  1.78058  -2.604  1.002241  -2.866875  2.154397  -2.677  1.080082  -2.899127  2.088569  -2.746  0.638858  0.936241  -2.843735  2.214052  -2.616
H  H2  1  0.78205662  0.94549040  0.65128858  1  0.098722  -0.000604  0.95721  -0.002  0.106531  -0.0004  1.019677  -0.001  0.110337  -0.000246  1.015085  -0.001  0.127131  0.103126  -0.000521  1.023916  -0.001
H  H3  1  0.71794171  0.34871033  0.05450462  1  0.098758  -0.000606  0.957199  -0.002  0.106565  -0.0004  1.019681  -0.001  0.110371  -0.000247  1.015089  -0.001  0.127149  0.103166  -0.000521  1.023901  -0.001
H  H4  1  0.21795421  0.05451168  0.34871682  1  0.09874  -0.000604  0.957112  -0.002  0.106542  -0.0004  1.019624  -0.001  0.110349  -0.000246  1.015026  -0.001  0.127126  0.103136  -0.000521  1.023858  -0.001
H  H5  1  0.28204588  0.65128627  0.94548947  1  0.098779  -0.000607  0.957125  -0.002  0.106554  -0.0004  1.019642  -0.001  0.110359  -0.000247  1.015046  -0.001  0.127141  0.10315  -0.000521  1.023874  -0.001
H  H6  1  0.74999455  0.82972182  0.17027815  1  0.123518  -0.000577  0.950998  -0.001  0.1334  -0.000252  1.01254  0.0  0.137918  -0.000171  1.007324  0.0  0.116701  0.129343  -0.000254  1.017415  0.0
H  H7  1  0.25000329  0.17027751  0.82972330  1  0.123538  -0.00058  0.951016  -0.001  0.133446  -0.000252  1.012524  0.0  0.137962  -0.000172  1.00731  0.0  0.11671  0.129389  -0.000254  1.017404  0.0
H  H8  1  0.39257266  0.32740933  0.53393011  1  0.434202  0.000158  0.861851  0.0  0.406398  -0.000264  0.920728  0.0  0.418337  -6.5e-05  0.903503  0.0  0.295363  0.397668  -0.000469  0.933209  -0.001
H  H9  1  0.10742792  0.46606935  0.67259192  1  0.434175  0.000157  0.861875  0.0  0.406387  -0.000264  0.920723  0.0  0.418327  -6.6e-05  0.903498  0.0  0.295347  0.397656  -0.000469  0.933204  -0.001
H  H10  1  0.60743464  0.67259544  0.46607521  1  0.434141  0.000157  0.861924  0.0  0.406331  -0.000264  0.920816  0.0  0.418271  -6.5e-05  0.903588  0.0  0.295304  0.3976  -0.000468  0.933298  -0.001
H  H11  1  0.89256323  0.53392458  0.32740741  1  0.434134  0.000157  0.861931  0.0  0.406333  -0.000264  0.920807  0.0  0.418274  -6.6e-05  0.903579  0.0  0.295311  0.397602  -0.000468  0.933289  -0.001
H  H12  1  0.40674182  0.15473089  0.61467754  1  0.417009  0.000293  0.891494  0.001  0.387778  -0.000128  0.955292  0.0  0.398694  8e-05  0.939501  0.0  0.289533  0.380284  -0.000346  0.965954  0.0
H  H13  1  0.09325524  0.38532204  0.84527116  1  0.416838  0.000293  0.891736  0.001  0.387651  -0.000128  0.955449  0.0  0.398572  8e-05  0.939653  0.0  0.289467  0.380158  -0.000346  0.966107  0.0
H  H14  1  0.59325949  0.84527789  0.38532756  1  0.416902  0.000293  0.891645  0.001  0.387673  -0.000128  0.955442  0.0  0.398589  8e-05  0.939651  0.0  0.289456  0.380177  -0.000346  0.966106  0.0
H  H15  1  0.90674062  0.61467460  0.15472817  1  0.416951  0.000292  0.891584  0.001  0.387716  -0.000127  0.955393  0.0  0.398634  8e-05  0.9396  0.0  0.289494  0.38022  -0.000346  0.966057  0.0
C  C16  1  0.76497413  0.98438982  0.78878019  1  0.141875  0.025448  3.630608  0.016  0.097762  0.007645  3.889508  0.004  0.111073  0.005616  3.902463  0.003  0.062228  0.087552  0.012383  3.882573  0.007
C  C17  1  0.73502611  0.21121563  0.01560691  1  0.141841  0.025444  3.630836  0.016  0.097715  0.007643  3.889737  0.004  0.111028  0.005616  3.902688  0.003  0.062217  0.087509  0.012379  3.882801  0.007
C  C18  1  0.23502949  0.01561088  0.21121730  1  0.141863  0.025452  3.630659  0.016  0.097722  0.007642  3.889602  0.004  0.111033  0.005612  3.902554  0.003  0.062215  0.087514  0.01238  3.882667  0.007
C  C19  1  0.26496974  0.78878101  0.98439112  1  0.141769  0.025459  3.630726  0.016  0.097696  0.007643  3.889597  0.004  0.111007  0.005615  3.902551  0.003  0.062193  0.087487  0.012381  3.882661  0.007
C  C20  1  0.76002626  0.86136393  0.89958997  1  -0.1185  -0.010415  3.75619  -0.015  -0.091503  -0.003277  3.998288  -0.005  -0.10561  -0.002513  4.019705  -0.004  -0.013272  -0.083665  -0.003718  3.987047  -0.007
C  C21  1  0.73997117  0.10041282  0.13863450  1  -0.118588  -0.010416  3.756341  -0.015  -0.091572  -0.003277  3.998408  -0.005  -0.105682  -0.002513  4.019827  -0.004  -0.013261  -0.083734  -0.003718  3.987165  -0.007
C  C22  1  0.23997756  0.13863140  0.10041170  1  -0.118443  -0.010416  3.75624  -0.015  -0.09146  -0.003277  3.99834  -0.005  -0.105569  -0.002512  4.019759  -0.004  -0.013252  -0.083621  -0.003717  3.987097  -0.007
C  C23  1  0.26002482  0.89959055  0.86136741  1  -0.118488  -0.010417  3.75628  -0.015  -0.091513  -0.003277  3.998343  -0.005  -0.105622  -0.002512  4.019761  -0.004  -0.013265  -0.083673  -0.003718  3.9871  -0.007
C  C24  1  0.74999660  0.92102417  0.07897484  1  -0.009178  0.027008  3.634535  0.017  -0.049463  0.009147  3.877503  0.005  -0.039298  0.005892  3.890383  0.003  -0.053628  -0.058014  0.016828  3.872253  0.009
C  C25  1  0.24999710  0.07897515  0.92102206  1  -0.009295  0.027019  3.634668  0.017  -0.049595  0.009148  3.877633  0.005  -0.039428  0.005896  3.890513  0.003  -0.053656  -0.058142  0.016828  3.872374  0.009
C  C26  1  0.76359293  0.67032318  0.82351108  1  0.642689  0.012129  3.895195  0.01  0.590081  0.004664  4.195988  0.004  0.626308  0.003489  4.191981  0.003  0.210117  0.564607  0.007103  4.196594  0.006
C  C27  1  0.73640414  0.17648776  0.32967495  1  0.642758  0.012128  3.895171  0.01  0.590152  0.004663  4.195944  0.004  0.626381  0.003489  4.191934  0.003  0.210116  0.564678  0.007104  4.196552  0.006
C  C28  1  0.23641836  0.32967487  0.17648976  1  0.642787  0.012129  3.894967  0.01  0.590198  0.004664  4.195723  0.004  0.626425  0.00349  4.191711  0.003  0.210147  0.564725  0.007105  4.196335  0.006
C  C29  1  0.26358652  0.82351020  0.67032248  1  0.642817  0.01213  3.89496  0.01  0.590264  0.004663  4.195675  0.004  0.626491  0.003489  4.191659  0.003  0.210214  0.564791  0.007104  4.19629  0.006
N  N30  1  0.75000012  0.15570090  0.84429881  1  -0.301857  -0.037694  3.246765  -0.061  -0.25058  -0.026202  3.538207  -0.038  -0.276253  -0.021082  3.553698  -0.03  -0.31879  -0.231891  -0.030813  3.528347  -0.045
N  N31  1  0.25000182  0.84429845  0.15569815  1  -0.301874  -0.037698  3.246781  -0.061  -0.25059  -0.0262  3.538187  -0.038  -0.276257  -0.02108  3.553675  -0.03  -0.318789  -0.231906  -0.030812  3.528327  -0.045
O  O32  1  0.72001033  0.60901643  0.65332894  1  -0.59202  -0.034757  2.038399  -0.063  -0.544744  -0.024592  2.279982  -0.043  -0.580361  -0.017468  2.272242  -0.031  -0.289521  -0.516119  -0.032941  2.283339  -0.057
O  O33  1  0.77998677  0.34667143  0.39098226  1  -0.592112  -0.03476  2.038367  -0.063  -0.544832  -0.024593  2.279942  -0.043  -0.580454  -0.017468  2.272199  -0.031  -0.289577  -0.516206  -0.032944  2.2833  -0.057
O  O34  1  0.28001602  0.39099378  0.34667537  1  -0.592137  -0.034762  2.038219  -0.063  -0.544839  -0.024595  2.279773  -0.043  -0.580454  -0.017469  2.272029  -0.031  -0.289542  -0.51622  -0.032946  2.283132  -0.057
O  O35  1  0.22000024  0.65332248  0.60901510  1  -0.592054  -0.034761  2.038131  -0.063  -0.544861  -0.024593  2.279752  -0.043  -0.580477  -0.01747  2.272001  -0.031  -0.289565  -0.516243  -0.032944  2.283113  -0.057
O  O36  1  0.80882960  0.56789890  0.92682586  1  -0.617764  -0.024548  2.030146  -0.045  -0.569517  -0.019155  2.269497  -0.033  -0.603742  -0.013694  2.262903  -0.024  -0.291877  -0.541826  -0.025797  2.271777  -0.044
O  O37  1  0.69116999  0.07318010  0.43209964  1  -0.617678  -0.024545  2.03017  -0.045  -0.569453  -0.019153  2.269525  -0.033  -0.603671  -0.013692  2.262928  -0.024  -0.291824  -0.541761  -0.025795  2.271806  -0.044
O  O38  1  0.19118202  0.43210050  0.07318303  1  -0.617755  -0.024545  2.030229  -0.045  -0.56954  -0.019153  2.269581  -0.033  -0.603762  -0.013693  2.262983  -0.024  -0.291884  -0.541847  -0.025795  2.271846  -0.044
O  O39  1  0.30880875  0.92681377  0.56789248  1  -0.617845  -0.024547  2.030232  -0.045  -0.569592  -0.019154  2.269547  -0.033  -0.603813  -0.013693  2.262952  -0.024  -0.291926  -0.541894  -0.025796  2.271807  -0.044
O  O40  1  0.45809000  0.28658199  0.63722851  1  -0.829835  -0.026507  1.957718  -0.051  -0.800537  -0.022402  2.160484  -0.038  -0.82623  -0.017955  2.122955  -0.031  -0.581277  -0.779407  -0.026708  2.186943  -0.044
O  O41  1  0.04190508  0.36276980  0.71341731  1  -0.829618  -0.026508  1.957863  -0.051  -0.800362  -0.022403  2.160677  -0.038  -0.826025  -0.017955  2.123075  -0.031  -0.581181  -0.779239  -0.026708  2.187151  -0.044
O  O42  1  0.54190992  0.71342678  0.36277377  1  -0.829665  -0.026506  1.957814  -0.051  -0.800361  -0.022402  2.160571  -0.038  -0.826044  -0.017955  2.123027  -0.031  -0.581121  -0.779239  -0.026707  2.187031  -0.044
O  O43  1  0.95809107  0.63722818  0.28657974  1  -0.829723  -0.026509  1.957789  -0.051  -0.800413  -0.022403  2.160532  -0.038  -0.826108  -0.017955  2.123001  -0.031  -0.581183  -0.77929  -0.026709  2.186989  -0.044
