# generated using pymatgen
data_ZnH12(C2N)8
_symmetry_space_group_name_H-M   'P 1'
_cell_length_a   9.52570894
_cell_length_b   9.52627088
_cell_length_c   11.93437856
_cell_angle_alpha   94.82761729
_cell_angle_beta   108.15607791
_cell_angle_gamma   120.28298465
_symmetry_Int_Tables_number   1
_chemical_formula_structural   ZnH12(C2N)8
_chemical_formula_sum   'Zn2 H24 C32 N16'
_cell_volume   849.34906889
_cell_formula_units_Z   2
loop_
 _symmetry_equiv_pos_site_id
 _symmetry_equiv_pos_as_xyz
  1  'x, y, z'
loop_
 _atom_site_type_symbol
 _atom_site_label
 _atom_site_symmetry_multiplicity
 _atom_site_fract_x
 _atom_site_fract_y
 _atom_site_fract_z
 _atom_site_occupancy
 _atom_site_hle17_bader_spin_density
 _atom_site_hle17_ddec_charge
 _atom_site_hle17_ddec_spin_density
 _atom_site_hle17_ddec_sum_bond_order
 _atom_site_hle17_magmom
 _atom_site_hse06_10hf_bader_spin_density
 _atom_site_hse06_10hf_ddec_charge
 _atom_site_hse06_10hf_ddec_spin_density
 _atom_site_hse06_10hf_ddec_sum_bond_order
 _atom_site_hse06_10hf_magmom
 _atom_site_hse06_bader_spin_density
 _atom_site_hse06_ddec_charge
 _atom_site_hse06_ddec_spin_density
 _atom_site_hse06_ddec_sum_bond_order
 _atom_site_hse06_magmom
 _atom_site_pbe_bader_spin_density
 _atom_site_pbe_cm5_charge
 _atom_site_pbe_ddec_charge
 _atom_site_pbe_ddec_spin_density
 _atom_site_pbe_ddec_sum_bond_order
 _atom_site_pbe_magmom
Zn  Zn0  1  0.49999789  0.99999981  0.00000008  1  0  1.030812  0  1.989038  0  0  0.855764  0  2.462541  0  0  0.89641  0  2.414792  0  0  0.732424  0.82803  0  2.494766  0
Zn  Zn1  1  0.50000174  0.50000119  0.50000094  1  0  1.030581  0  1.988895  0  0  0.854959  0  2.462611  0  0  0.895643  0  2.414911  0  0  0.732101  0.827085  0  2.494959  0
H  H2  1  0.57295613  0.32671215  0.94220477  1  0  0.075339  0  0.951263  0  0  0.08484  0  1.015561  0  0  0.086723  0  1.013989  0  0  0.113911  0.083455  0  1.016719  0
H  H3  1  0.88452982  0.63078167  0.55782724  1  0  0.074631  0  0.951751  0  0  0.084244  0  1.016089  0  0  0.086122  0  1.0145  0  0  0.113682  0.082885  0  1.017184  0
H  H4  1  0.42704254  0.67328769  0.05779406  1  0  0.075362  0  0.951256  0  0  0.084863  0  1.015556  0  0  0.086746  0  1.013983  0  0  0.113921  0.083477  0  1.016714  0
H  H5  1  0.11547218  0.36921818  0.44217324  1  0  0.074624  0  0.951769  0  0  0.08422  0  1.016129  0  0  0.086099  0  1.014537  0  0  0.113678  0.082867  0  1.017224  0
H  H6  1  0.88427597  0.21164244  0.18910966  1  0  0.081489  0  0.935801  0  0  0.090222  0  0.999217  0  0  0.092374  0  0.997424  0  0  0.115663  0.088681  0  1.000462  0
H  H7  1  0.52253117  0.69524997  0.31100787  1  0  0.08114  0  0.935693  0  0  0.090124  0  0.998965  0  0  0.09219  0  0.997262  0  0  0.115495  0.088616  0  1.000184  0
H  H8  1  0.11571974  0.78835606  0.81089087  1  0  0.08149  0  0.93577  0  0  0.090226  0  0.999189  0  0  0.092378  0  0.997397  0  0  0.115653  0.088685  0  1.000436  0
H  H9  1  0.47746898  0.30474861  0.68899206  1  0  0.081163  0  0.935666  0  0  0.090149  0  0.998939  0  0  0.092215  0  0.997235  0  0  0.115506  0.088655  0  1.000142  0
H  H10  1  0.80856883  0.63806623  0.02885466  1  0  0.103209  0  0.987477  0  0  0.11152  0  1.050647  0  0  0.114286  0  1.050683  0  0  0.102237  0.109585  0  1.050666  0
H  H11  1  0.10910691  0.77953966  0.47106877  1  0  0.103327  0  0.987911  0  0  0.111755  0  1.050744  0  0  0.114518  0  1.050779  0  0  0.102325  0.109775  0  1.050854  0
H  H12  1  0.19143095  0.36193361  0.97114528  1  0  0.103177  0  0.987504  0  0  0.111486  0  1.050674  0  0  0.114253  0  1.050711  0  0  0.102232  0.109552  0  1.050693  0
H  H13  1  0.89089472  0.22046146  0.52893173  1  0  0.10335  0  0.987916  0  0  0.111778  0  1.050753  0  0  0.11454  0  1.050788  0  0  0.102332  0.109798  0  1.050863  0
H  H14  1  0.13283290  0.51913826  0.28971631  1  0  0.111046  0  0.977181  0  0  0.118494  0  1.044848  0  0  0.121217  0  1.044579  0  0  0.101693  0.116482  0  1.045268  0
H  H15  1  0.72929594  0.84296928  0.21026539  1  0  0.111371  0  0.97522  0  0  0.11889  0  1.042933  0  0  0.121598  0  1.042686  0  0  0.101915  0.116766  0  1.04352  0
H  H16  1  0.86716503  0.48086029  0.71028308  1  0  0.111054  0  0.977134  0  0  0.118489  0  1.044815  0  0  0.121219  0  1.044539  0  0  0.101692  0.116478  0  1.045234  0
H  H17  1  0.27070421  0.15702931  0.78973370  1  0  0.111385  0  0.975244  0  0  0.118904  0  1.042958  0  0  0.121612  0  1.042713  0  0  0.101919  0.116786  0  1.043541  0
H  H18  1  0.19791787  0.84741955  0.17326046  1  0  0.095568  0  0.92802  0  0  0.114848  0  0.984264  0  0  0.115071  0  0.985574  0  0  0.101096  0.114682  0  0.983382  0
H  H19  1  0.17407196  0.02455185  0.32680079  1  0  0.095453  0  0.927178  0  0  0.11516  0  0.983093  0  0  0.115413  0  0.984305  0  0  0.100973  0.114946  0  0.982285  0
H  H20  1  0.80208006  0.15257900  0.82673893  1  0  0.095575  0  0.928002  0  0  0.114848  0  0.984263  0  0  0.11507  0  0.985576  0  0  0.101097  0.114685  0  0.983371  0
H  H21  1  0.82592671  0.97544799  0.67319805  1  0  0.095456  0  0.927143  0  0  0.115146  0  0.983071  0  0  0.1154  0  0.984283  0  0  0.100973  0.114931  0  0.982263  0
H  H22  1  0.23349352  0.80678315  0.31716300  1  0  0.080814  0  0.949141  0  0  0.095098  0  1.015121  0  0  0.096059  0  1.015488  0  0  0.09377  0.094395  0  1.014875  0
H  H23  1  0.98961951  0.91618236  0.18283565  1  0  0.080342  0  0.948846  0  0  0.09482  0  1.015005  0  0  0.095752  0  1.015331  0  0  0.093607  0.094161  0  1.014733  0
H  H24  1  0.76650700  0.19321798  0.68283639  1  0  0.080813  0  0.94912  0  0  0.095105  0  1.015102  0  0  0.096066  0  1.015468  0  0  0.093761  0.094401  0  1.014856  0
H  H25  1  0.01037842  0.08381619  0.81716374  1  0  0.080389  0  0.948911  0  0  0.094855  0  1.015049  0  0  0.095789  0  1.015375  0  0  0.093629  0.094197  0  1.014776  0
C  C26  1  0.69954583  0.37570090  0.01942624  1  0  0.132576  0  3.723205  0  0  0.102688  0  3.969594  0  0  0.109877  0  3.988234  0  0  0.044066  0.098103  0  3.956773  0
C  C27  1  0.85623459  0.68006164  0.48057140  1  0  0.132812  0  3.721488  0  0  0.102391  0  3.967974  0  0  0.109626  0  3.986625  0  0  0.043617  0.097784  0  3.955071  0
C  C28  1  0.30045284  0.62429890  0.98057427  1  0  0.132503  0  3.723258  0  0  0.102608  0  3.969651  0  0  0.109795  0  3.988294  0  0  0.044048  0.098021  0  3.956832  0
C  C29  1  0.14376815  0.31993949  0.51942936  1  0  0.132813  0  3.721538  0  0  0.102393  0  3.968042  0  0  0.109628  0  3.986694  0  0  0.043592  0.097778  0  3.955148  0
C  C30  1  0.83071194  0.54877330  0.06907883  1  0  -0.172467  0  3.706679  0  0  -0.188952  0  3.950051  0  0  -0.197532  0  3.972281  0  0  -0.090473  -0.183421  0  3.935107  0
C  C31  1  0.97957248  0.76144844  0.43085108  1  0  -0.172263  0  3.705163  0  0  -0.188066  0  3.948938  0  0  -0.196655  0  3.971136  0  0  -0.08954  -0.182535  0  3.934029  0
C  C32  1  0.16928895  0.45122653  0.93092222  1  0  -0.172396  0  3.706685  0  0  -0.188853  0  3.950064  0  0  -0.197444  0  3.972285  0  0  -0.090443  -0.183325  0  3.935121  0
C  C33  1  0.02042914  0.23855268  0.56914941  1  0  -0.172282  0  3.705119  0  0  -0.188106  0  3.948889  0  0  -0.196695  0  3.971086  0  0  -0.089541  -0.182573  0  3.933975  0
C  C34  1  0.98941563  0.60627688  0.17056951  1  0  0.162177  0  3.708455  0  0  0.179204  0  3.94271  0  0  0.184605  0  3.964771  0  0  0.013626  0.175732  0  3.927673  0
C  C35  1  0.93556506  0.81862025  0.32935762  1  0  0.163057  0  3.705328  0  0  0.178291  0  3.942581  0  0  0.183702  0  3.964546  0  0  0.013009  0.174849  0  3.927482  0
C  C36  1  0.01058453  0.39372166  0.82943210  1  0  0.162223  0  3.708394  0  0  0.179193  0  3.942738  0  0  0.184625  0  3.964758  0  0  0.013578  0.175719  0  3.927701  0
C  C37  1  0.06443583  0.18137959  0.67064259  1  0  0.163035  0  3.705333  0  0  0.178314  0  3.942495  0  0  0.183727  0  3.964464  0  0  0.013007  0.174873  0  3.927396  0
C  C38  1  0.01034803  0.48253039  0.21303552  1  0  -0.184077  0  3.708397  0  0  -0.202164  0  3.95487  0  0  -0.211174  0  3.977607  0  0  -0.09003  -0.196261  0  3.939602  0
C  C39  1  0.76938204  0.79718458  0.28694408  1  0  -0.185852  0  3.707569  0  0  -0.203414  0  3.954743  0  0  -0.212428  0  3.977442  0  0  -0.090666  -0.197444  0  3.939464  0
C  C40  1  0.98965101  0.51746815  0.78696498  1  0  -0.184112  0  3.708338  0  0  -0.202163  0  3.954822  0  0  -0.21119  0  3.977545  0  0  -0.090009  -0.196262  0  3.939554  0
C  C41  1  0.23061923  0.20281400  0.71305611  1  0  -0.185869  0  3.70763  0  0  -0.203456  0  3.9548  0  0  -0.212471  0  3.977499  0  0  -0.090688  -0.197492  0  3.939521  0
C  C42  1  0.87315875  0.31134295  0.15772954  1  0  0.137514  0  3.713353  0  0  0.105848  0  3.963064  0  0  0.113166  0  3.981845  0  0  0.04486  0.101181  0  3.950152  0
C  C43  1  0.65355303  0.71539366  0.34230962  1  0  0.140054  0  3.714674  0  0  0.107807  0  3.964232  0  0  0.115232  0  3.983069  0  0  0.046263  0.10309  0  3.951261  0
C  C44  1  0.12684104  0.68865687  0.84227124  1  0  0.137502  0  3.713318  0  0  0.105833  0  3.963018  0  0  0.11315  0  3.981803  0  0  0.044873  0.101165  0  3.950107  0
C  C45  1  0.34644786  0.28460617  0.65769142  1  0  0.140036  0  3.714706  0  0  0.10778  0  3.964265  0  0  0.115207  0  3.9831  0  0  0.046248  0.103052  0  3.951289  0
C  C46  1  0.13077196  0.79274392  0.23369583  1  0  -0.156445  0  3.668478  0  0  -0.199163  0  3.917202  0  0  -0.200357  0  3.928295  0  0  -0.155711  -0.19814  0  3.909331  0
C  C47  1  0.05903894  0.89693205  0.26632672  1  0  -0.154997  0  3.663994  0  0  -0.1982  0  3.913619  0  0  -0.199227  0  3.924486  0  0  -0.15513  -0.197308  0  3.905838  0
C  C48  1  0.86922781  0.20725593  0.76630327  1  0  -0.156451  0  3.668381  0  0  -0.199185  0  3.91714  0  0  -0.200386  0  3.928227  0  0  -0.155691  -0.198159  0  3.909267  0
C  C49  1  0.94096269  0.10306907  0.73367378  1  0  -0.15506  0  3.664078  0  0  -0.198207  0  3.913618  0  0  -0.199243  0  3.924499  0  0  -0.155148  -0.197316  0  3.905837  0
C  C50  1  0.43237169  0.95497975  0.71114557  1  0  0.503061  0  3.976959  0  0  0.466062  0  4.260023  0  0  0.491774  0  4.27048  0  0  0.311012  0.448549  0  4.25264  0
C  C51  1  0.74422273  0.72146638  0.78893482  1  0  0.503795  0  3.976811  0  0  0.46699  0  4.259812  0  0  0.492681  0  4.270308  0  0  0.311007  0.449433  0  4.252495  0
C  C52  1  0.56762809  0.04502010  0.28885353  1  0  0.503035  0  3.977008  0  0  0.466031  0  4.260074  0  0  0.49174  0  4.270532  0  0  0.311004  0.448518  0  4.252693  0
C  C53  1  0.25577852  0.27853600  0.21106568  1  0  0.503763  0  3.97689  0  0  0.466963  0  4.259892  0  0  0.492656  0  4.270388  0  0  0.311004  0.449407  0  4.252574  0
C  C54  1  0.42165322  0.78861895  0.55320266  1  0  0.503668  0  3.975972  0  0  0.463936  0  4.26548  0  0  0.490255  0  4.274649  0  0  0.307788  0.445974  0  4.259037  0
C  C55  1  0.73564414  0.86859668  0.94681113  1  0  0.504304  0  3.974534  0  0  0.464786  0  4.264045  0  0  0.491084  0  4.273206  0  0  0.308325  0.446783  0  4.257643  0
C  C56  1  0.57834878  0.21138090  0.44679782  1  0  0.503657  0  3.976058  0  0  0.463921  0  4.265561  0  0  0.490236  0  4.274734  0  0  0.307735  0.445958  0  4.259118  0
C  C57  1  0.26435527  0.13140442  0.05318882  1  0  0.504297  0  3.974479  0  0  0.464785  0  4.263989  0  0  0.491085  0  4.273144  0  0  0.308272  0.446785  0  4.257587  0
N  N58  1  0.71836337  0.25841896  0.06413043  1  0  -0.331704  0  3.320403  0  0  -0.249441  0  3.578425  0  0  -0.269236  0  3.597114  0  0  -0.325793  -0.236001  0  3.565394  0
N  N59  1  0.69426659  0.65423153  0.43589839  1  0  -0.332605  0  3.32047  0  0  -0.24939  0  3.577898  0  0  -0.269284  0  3.596662  0  0  -0.325956  -0.235804  0  3.56476  0
N  N60  1  0.28163568  0.74157957  0.93587091  1  0  -0.331664  0  3.320397  0  0  -0.249402  0  3.578419  0  0  -0.269196  0  3.597109  0  0  -0.325798  -0.235961  0  3.565387  0
N  N61  1  0.30573541  0.34576831  0.56410292  1  0  -0.332615  0  3.320572  0  0  -0.249382  0  3.577979  0  0  -0.269276  0  3.596742  0  0  -0.325931  -0.235799  0  3.56485  0
N  N62  1  0.44805556  0.00736649  0.81042994  1  0  -0.599273  0  2.85616  0  0  -0.557852  0  3.146954  0  0  -0.578427  0  3.150823  0  0  -0.372495  -0.543915  0  3.144272  0
N  N63  1  0.69724956  0.63785593  0.68962994  1  0  -0.60076  0  2.855626  0  0  -0.559399  0  3.146505  0  0  -0.57999  0  3.150393  0  0  -0.373119  -0.545507  0  3.143868  0
N  N64  1  0.55194274  0.99263459  0.18956975  1  0  -0.599266  0  2.856202  0  0  -0.557845  0  3.146997  0  0  -0.578422  0  3.150865  0  0  -0.372511  -0.543908  0  3.144316  0
N  N65  1  0.30275207  0.36214517  0.31037139  1  0  -0.600756  0  2.855685  0  0  -0.559395  0  3.146561  0  0  -0.579985  0  3.150449  0  0  -0.373122  -0.545501  0  3.143924  0
N  N66  1  0.41410674  0.91104212  0.59943899  1  0  -0.457398  0  3.303739  0  0  -0.402808  0  3.564518  0  0  -0.426423  0  3.568462  0  0  -0.307667  -0.386438  0  3.56115  0
N  N67  1  0.81195195  0.81489535  0.90064532  1  0  -0.45677  0  3.304708  0  0  -0.402542  0  3.565638  0  0  -0.426115  0  3.569587  0  0  -0.307194  -0.38605  0  3.56217  0
N  N68  1  0.58589341  0.08895644  0.40056178  1  0  -0.457341  0  3.303782  0  0  -0.402739  0  3.564552  0  0  -0.426344  0  3.568495  0  0  -0.307593  -0.386366  0  3.561183  0
N  N69  1  0.18804708  0.18510703  0.09935381  1  0  -0.456708  0  3.304611  0  0  -0.402488  0  3.565551  0  0  -0.426062  0  3.569495  0  0  -0.307154  -0.386002  0  3.56209  0
N  N70  1  0.42235706  0.67895199  0.50008561  1  0  -0.600937  0  2.858323  0  0  -0.560556  0  3.154054  0  0  -0.5808  0  3.156509  0  0  -0.373879  -0.546857  0  3.152426  0
N  N71  1  0.67888367  0.92223886  0.99985219  1  0  -0.601896  0  2.855091  0  0  -0.561427  0  3.150449  0  0  -0.581702  0  3.15298  0  0  -0.374547  -0.547781  0  3.148944  0
N  N72  1  0.57764383  0.32104785  0.49991460  1  0  -0.600962  0  2.858352  0  0  -0.560583  0  3.15409  0  0  -0.580829  0  3.156546  0  0  -0.373872  -0.546883  0  3.152464  0
N  N73  1  0.32111574  0.07776225  0.00014693  1  0  -0.601916  0  2.855125  0  0  -0.561451  0  3.150485  0  0  -0.581726  0  3.153016  0  0  -0.37452  -0.547804  0  3.148982  0
