# generated using pymatgen
data_CdH9C13NO5
_symmetry_space_group_name_H-M   'P 1'
_cell_length_a   7.77677532
_cell_length_b   17.37397191
_cell_length_c   17.37048740
_cell_angle_alpha   117.81759722
_cell_angle_beta   98.58326603
_cell_angle_gamma   98.57713957
_symmetry_Int_Tables_number   1
_chemical_formula_structural   CdH9C13NO5
_chemical_formula_sum   'Cd6 H54 C78 N6 O30'
_cell_volume   1987.24532929
_cell_formula_units_Z   6
loop_
 _symmetry_equiv_pos_site_id
 _symmetry_equiv_pos_as_xyz
  1  'x, y, z'
loop_
 _atom_site_type_symbol
 _atom_site_label
 _atom_site_symmetry_multiplicity
 _atom_site_fract_x
 _atom_site_fract_y
 _atom_site_fract_z
 _atom_site_occupancy
 _atom_site_pbe_bader_charge
 _atom_site_pbe_bader_spin_density
 _atom_site_pbe_cm5_charge
 _atom_site_pbe_ddec_charge
 _atom_site_pbe_ddec_spin_density
 _atom_site_pbe_ddec_sum_bond_order
 _atom_site_pbe_magmom
Cd  Cd0  1  0.98571753  0.91463976  0.24792825  1  1.297805  0  0.773559  0.967956  0  2.066072  0
Cd  Cd1  1  0.07131870  0.33329179  0.08536858  1  1.297418  0  0.773646  0.968427  0  2.065339  0
Cd  Cd2  1  0.73785067  0.75214142  0.66665519  1  1.296657  0  0.773778  0.968175  0  2.067293  0
Cd  Cd3  1  0.01428148  0.08536031  0.75207238  1  1.297842  0  0.773567  0.967971  0  2.066073  0
Cd  Cd4  1  0.92868255  0.66670760  0.91463015  1  1.297389  0  0.773649  0.968404  0  2.065347  0
Cd  Cd5  1  0.26214863  0.24785663  0.33334395  1  1.296629  0  0.77381  0.968197  0  2.067322  0
H  H6  1  0.78972654  0.97465935  0.14768269  1  0.581037  0  0.324378  0.404629  0  0.873726  0
H  H7  1  0.81513075  0.17313346  0.02530848  1  0.589693  0  0.324446  0.404713  0  0.873561  0
H  H8  1  0.64213479  0.85234411  0.82689224  1  0.623891  0  0.32422  0.404496  0  0.873463  0
H  H9  1  0.21027671  0.02534138  0.85231852  1  0.581062  0  0.324387  0.404644  0  0.873661  0
H  H10  1  0.18487119  0.82686728  0.97469208  1  0.589686  0  0.324446  0.404695  0  0.873564  0
H  H11  1  0.35786648  0.14765529  0.17310765  1  0.623884  0  0.324209  0.404474  0  0.873497  0
H  H12  1  0.85381272  0.06444950  0.24449660  1  0.657022  0  0.286922  0.393839  0  0.945867  0
H  H13  1  0.78962425  0.18004757  0.93543874  1  0.653677  0  0.286805  0.393492  0  0.946319  0
H  H14  1  0.60954142  0.75554700  0.81988781  1  0.653186  0  0.286626  0.393526  0  0.946351  0
H  H15  1  0.14618758  0.93555057  0.75550354  1  0.657022  0  0.286919  0.393847  0  0.945854  0
H  H16  1  0.21037572  0.81995182  0.06456107  1  0.65362  0  0.286813  0.393511  0  0.946286  0
H  H17  1  0.39045922  0.24445374  0.18011267  1  0.653188  0  0.286615  0.393456  0  0.946429  0
H  H18  1  0.36820375  0.02853998  0.68468337  1  0.090583  0  0.113558  0.089986  0  1.013256  0
H  H19  1  0.33912298  0.65600991  0.97118441  1  0.093821  0  0.113531  0.089723  0  1.013719  0
H  H20  1  0.68337694  0.31528897  0.34400422  1  0.134267  0  0.113567  0.09025  0  1.013143  0
H  H21  1  0.63179361  0.97145941  0.31531569  1  0.090573  0  0.113556  0.089955  0  1.013297  0
H  H22  1  0.66088350  0.34399218  0.02881534  1  0.093993  0  0.113534  0.089717  0  1.013732  0
H  H23  1  0.31662234  0.68470908  0.65599433  1  0.134302  0  0.113556  0.090244  0  1.013175  0
H  H24  1  0.56836621  0.05155139  0.59449533  1  0.134551  0  0.107201  0.12422  0  1.03248  0
H  H25  1  0.51649622  0.54297655  0.94818574  1  0.153031  0  0.107137  0.12421  0  1.0318  0
H  H26  1  0.97364203  0.40556565  0.45720118  1  0.117176  0  0.107461  0.124358  0  1.032202  0
H  H27  1  0.43163114  0.94844801  0.40550373  1  0.134523  0  0.107204  0.124196  0  1.032514  0
H  H28  1  0.48350634  0.45702284  0.05181423  1  0.152928  0  0.107147  0.124219  0  1.031745  0
H  H29  1  0.02635631  0.59443307  0.54279821  1  0.117172  0  0.107463  0.124343  0  1.032201  0
H  H30  1  0.20491982  0.18777681  0.52457366  1  0.117563  0  0.103739  0.119981  0  1.048797  0
H  H31  1  0.01707099  0.33666570  0.81215769  1  0.154342  0  0.103907  0.120304  0  1.049141  0
H  H32  1  0.68003692  0.47551111  0.66334389  1  0.143497  0  0.103653  0.120144  0  1.049305  0
H  H33  1  0.79508192  0.81222863  0.47543197  1  0.117635  0  0.10374  0.119988  0  1.048785  0
H  H34  1  0.98293025  0.66333370  0.18784104  1  0.154387  0  0.103943  0.120334  0  1.049072  0
H  H35  1  0.31996433  0.52448828  0.33665484  1  0.143453  0  0.103652  0.120119  0  1.049364  0
H  H36  1  0.01882638  0.15777823  0.61841524  1  0.092002  0  0.113862  0.085715  0  1.034907  0
H  H37  1  0.86071736  0.46038622  0.84193694  1  0.076908  0  0.1141  0.08611  0  1.034792  0
H  H38  1  0.40017260  0.38138920  0.53947821  1  0.101262  0  0.113851  0.08541  0  1.035291  0
H  H39  1  0.98117408  0.84222722  0.38159146  1  0.091755  0  0.113851  0.08572  0  1.034895  0
H  H40  1  0.13928550  0.53961385  0.15806049  1  0.076884  0  0.114118  0.086148  0  1.034765  0
H  H41  1  0.59982963  0.61860952  0.46052085  1  0.101244  0  0.113846  0.085391  0  1.035311  0
H  H42  1  0.74402136  0.20462192  0.62868268  1  0.118229  0  0.100216  0.108174  0  1.062914  0
H  H43  1  0.53909107  0.42390472  0.79514825  1  0.110734  0  0.100164  0.108294  0  1.062404  0
H  H44  1  0.11472590  0.37141494  0.57615487  1  0.117752  0  0.10032  0.10799  0  1.062802  0
H  H45  1  0.25597606  0.79538016  0.37131880  1  0.118252  0  0.100219  0.108199  0  1.062871  0
H  H46  1  0.46091215  0.57609602  0.20485124  1  0.110666  0  0.100172  0.108291  0  1.062459  0
H  H47  1  0.88527665  0.62858445  0.42384452  1  0.117784  0  0.100327  0.108012  0  1.062809  0
H  H48  1  0.98099337  0.24707078  0.56490727  1  0.101218  0  0.106673  0.101855  0  1.029665  0
H  H49  1  0.73367955  0.31773258  0.75266521  1  0.072002  0  0.106476  0.101367  0  1.030516  0
H  H50  1  0.41564987  0.43512305  0.68222693  1  0.05537  0  0.106398  0.101438  0  1.030662  0
H  H51  1  0.01900337  0.75292996  0.43509354  1  0.101154  0  0.106669  0.101842  0  1.02968  0
H  H52  1  0.26632335  0.68226748  0.24733510  1  0.071962  0  0.106492  0.101355  0  1.030492  0
H  H53  1  0.58435138  0.56487635  0.31777238  1  0.055381  0  0.106375  0.101417  0  1.030687  0
H  H54  1  0.59851891  0.13156435  0.31096802  1  0.116514  0  0.107001  0.112538  0  1.013494  0
H  H55  1  0.46714865  0.17946581  0.86838166  1  0.105068  0  0.107013  0.113264  0  1.013111  0
H  H56  1  0.28787919  0.68924549  0.82043373  1  0.115715  0  0.107233  0.113324  0  1.013107  0
H  H57  1  0.40147950  0.86843706  0.68903435  1  0.116501  0  0.106993  0.112532  0  1.013453  0
H  H58  1  0.53285002  0.82053359  0.13161864  1  0.105086  0  0.107021  0.1133  0  1.013108  0
H  H59  1  0.71211716  0.31075188  0.17956433  1  0.115858  0  0.107257  0.113379  0  1.013098  0
C  C60  1  0.33540360  0.06230630  0.64714997  1  0.480718  0  0.043796  0.102155  0  3.953934  0
C  C61  1  0.27258349  0.58471260  0.93742377  1  0.486554  0  0.044279  0.102913  0  3.953798  0
C  C62  1  0.68804297  0.35281745  0.41529794  1  0.42962  0  0.043611  0.101731  0  3.953667  0
C  C63  1  0.66459377  0.93769309  0.35284967  1  0.480919  0  0.0438  0.102155  0  3.953956  0
C  C64  1  0.72742070  0.41528747  0.06257547  1  0.486178  0  0.044286  0.10294  0  3.953906  0
C  C65  1  0.31195600  0.64718261  0.58470039  1  0.429572  0  0.043646  0.101758  0  3.953696  0
C  C66  1  0.44681465  0.07583531  0.59667762  1  -0.015459  0  -0.082463  -0.172815  0  3.909244  0
C  C67  1  0.37064392  0.52078205  0.92391271  1  -0.021283  0  -0.082818  -0.17333  0  3.908009  0
C  C68  1  0.84990004  0.40335215  0.47928581  1  0.067314  0  -0.082848  -0.173567  0  3.909315  0
C  C69  1  0.55318174  0.92416476  0.40332170  1  -0.01536  0  -0.082453  -0.172762  0  3.909211  0
C  C70  1  0.62935994  0.47921735  0.07608734  1  -0.021103  0  -0.082816  -0.173317  0  3.907984  0
C  C71  1  0.15009923  0.59664590  0.52071217  1  0.067436  0  -0.082816  -0.173507  0  3.909325  0
C  C72  1  0.40396230  0.12247678  0.55180953  1  -0.015366  0  0.018848  0.126327  0  3.954767  0
C  C73  1  0.28134552  0.42925617  0.87736497  1  -0.079863  0  0.019005  0.126916  0  3.952129  0
C  C74  1  0.85184820  0.44831057  0.57080763  1  -0.107027  0  0.019193  0.127751  0  3.952314  0
C  C75  1  0.59603253  0.87752530  0.44819236  1  -0.015381  0  0.01889  0.126443  0  3.95465  0
C  C76  1  0.71865572  0.57074322  0.12263319  1  -0.079871  0  0.019016  0.126917  0  3.952001  0
C  C77  1  0.14815040  0.55168614  0.42918967  1  -0.107037  0  0.019128  0.12767  0  3.952387  0
C  C78  1  0.24500800  0.15130330  0.55823474  1  -0.032542  0  -0.083422  -0.163216  0  3.911207  0
C  C79  1  0.09353173  0.40681651  0.84856420  1  0.032261  0  -0.083917  -0.164402  0  3.909818  0
C  C80  1  0.68643860  0.44181031  0.59318473  1  -0.007758  0  -0.083827  -0.164801  0  3.91134  0
C  C81  1  0.75498916  0.84870080  0.44176939  1  -0.032717  0  -0.083447  -0.163341  0  3.911039  0
C  C82  1  0.90646982  0.59318356  0.15143256  1  0.032612  0  -0.083947  -0.164398  0  3.909808  0
C  C83  1  0.31356069  0.55818774  0.40681383  1  -0.007561  0  -0.083814  -0.164767  0  3.911303  0
C  C84  1  0.14147755  0.13518266  0.61034450  1  0.48159  0  0.041376  0.093861  0  3.947903  0
C  C85  1  0.00595058  0.47497481  0.86456994  1  0.460807  0  0.041813  0.094846  0  3.946711  0
C  C86  1  0.53086514  0.38954769  0.52495886  1  0.472294  0  0.041586  0.09525  0  3.94836  0
C  C87  1  0.85852419  0.86482278  0.38966113  1  0.481895  0  0.041418  0.093926  0  3.947823  0
C  C88  1  0.99405063  0.52502458  0.13542649  1  0.460396  0  0.041797  0.094777  0  3.946791  0
C  C89  1  0.46913546  0.61045036  0.47504036  1  0.472087  0  0.041546  0.095226  0  3.948358  0
C  C90  1  0.53390654  0.14576665  0.50686383  1  -0.033526  0  0.007632  0.062597  0  3.927958  0
C  C91  1  0.38804547  0.36103894  0.85412623  1  -0.023694  0  0.007538  0.062063  0  3.927224  0
C  C92  1  0.02681210  0.49334622  0.63902774  1  -0.025505  0  0.007658  0.061135  0  3.928201  0
C  C93  1  0.46609186  0.85423476  0.49313797  1  -0.033585  0  0.007711  0.062619  0  3.928092  0
C  C94  1  0.61195284  0.63895978  0.14587200  1  -0.023735  0  0.007498  0.062019  0  3.927273  0
C  C95  1  0.97318848  0.50665183  0.36097032  1  -0.025741  0  0.007687  0.061223  0  3.928176  0
C  C96  1  0.71120872  0.18941051  0.55899701  1  -0.004372  0  -0.089618  -0.132887  0  3.956525  0
C  C97  1  0.52158534  0.36950459  0.81043590  1  -0.037598  0  -0.089211  -0.132606  0  3.9571  0
C  C98  1  0.15180995  0.44114700  0.63051030  1  -0.023916  0  -0.089536  -0.13242  0  3.956834  0
C  C99  1  0.28878679  0.81059292  0.44100612  1  -0.004285  0  -0.089635  -0.132902  0  3.956511  0
C  C100  1  0.47841688  0.63049413  0.18956259  1  -0.037509  0  -0.08921  -0.132625  0  3.95721  0
C  C101  1  0.84819063  0.55885105  0.36948834  1  -0.02382  0  -0.089573  -0.13251  0  3.956846  0
C  C102  1  0.84524453  0.21178993  0.52301491  1  -0.043341  0  -0.080177  -0.08044  0  3.977204  0
C  C103  1  0.63326924  0.31114806  0.78800905  1  -0.004153  0  -0.079759  -0.080466  0  3.977129  0
C  C104  1  0.32192372  0.47708110  0.68877777  1  0.005898  0  -0.079885  -0.080009  0  3.978054  0
C  C105  1  0.15474961  0.78821080  0.47698515  1  -0.043501  0  -0.080224  -0.080484  0  3.97719  0
C  C106  1  0.36673333  0.68885134  0.21199092  1  -0.004118  0  -0.079749  -0.080374  0  3.977019  0
C  C107  1  0.67807624  0.52291829  0.31122145  1  0.005897  0  -0.079837  -0.079947  0  3.977968  0
C  C108  1  0.80838145  0.18813034  0.43240397  1  -0.109274  0  -0.019136  -0.03906  0  3.986383  0
C  C109  1  0.62026547  0.24423123  0.81168970  1  -0.032175  0  -0.019149  -0.03738  0  3.983993  0
C  C110  1  0.37603231  0.56772600  0.75558756  1  -0.072616  0  -0.019027  -0.038437  0  3.985182  0
C  C111  1  0.19161524  0.81186771  0.56759500  1  -0.109382  0  -0.019106  -0.039012  0  3.986272  0
C  C112  1  0.37973778  0.75576951  0.18831152  1  -0.032116  0  -0.019149  -0.037434  0  3.984047  0
C  C113  1  0.62396861  0.43227272  0.24441084  1  -0.073002  0  -0.019026  -0.038416  0  3.985197  0
C  C114  1  0.63073652  0.14848302  0.38111147  1  0.021186  0  -0.078082  -0.112299  0  3.96732  0
C  C115  1  0.48235771  0.23265193  0.85142509  1  -0.076027  0  -0.077884  -0.113952  0  3.967208  0
C  C116  1  0.24979213  0.61910023  0.76725171  1  0.00429  0  -0.078295  -0.114165  0  3.966627  0
C  C117  1  0.36925987  0.85151705  0.61888785  1  0.021274  0  -0.078136  -0.112353  0  3.96721  0
C  C118  1  0.51764554  0.76734881  0.14857613  1  -0.076128  0  -0.077931  -0.114082  0  3.967322  0
C  C119  1  0.75020522  0.38089916  0.23274678  1  0.004405  0  -0.078326  -0.114273  0  3.966764  0
C  C120  1  0.49292408  0.12816102  0.41718569  1  -0.039832  0  -0.014168  -0.087718  0  3.938967  0
C  C121  1  0.36477017  0.28900944  0.87174804  1  -0.012074  0  -0.014427  -0.087013  0  3.938869  0
C  C122  1  0.07573636  0.58303939  0.71101648  1  -0.06824  0  -0.014371  -0.085844  0  3.937826  0
C  C123  1  0.50707527  0.87183971  0.58281528  1  -0.039854  0  -0.014167  -0.087744  0  3.939046  0
C  C124  1  0.63522783  0.71098861  0.12825101  1  -0.012018  0  -0.014401  -0.086887  0  3.938797  0
C  C125  1  0.92426132  0.41696067  0.28898234  1  -0.068131  0  -0.014337  -0.085777  0  3.937884  0
C  C126  1  0.30991579  0.07906370  0.35347810  1  1.568305  0  0.206633  0.591637  0  4.205641  0
C  C127  1  0.23098062  0.27438172  0.92087060  1  1.580896  0  0.206832  0.592131  0  4.20619  0
C  C128  1  0.95635175  0.64667940  0.72568435  1  1.585028  0  0.206528  0.590824  0  4.207973  0
C  C129  1  0.69008063  0.92093637  0.64652237  1  1.568296  0  0.206687  0.591755  0  4.205629  0
C  C130  1  0.76902131  0.72561901  0.07912938  1  1.58092  0  0.206834  0.592086  0  4.206199  0
C  C131  1  0.04364622  0.35331865  0.27431297  1  1.585211  0  0.20653  0.590839  0  4.207797  0
C  C132  1  0.95736663  0.20473955  0.39207259  1  1.54169  0  0.202428  0.567875  0  4.19276  0
C  C133  1  0.75284677  0.18738662  0.79512200  1  1.545706  0  0.202751  0.568569  0  4.190529  0
C  C134  1  0.56543589  0.60790340  0.81246119  1  1.549158  0  0.203362  0.569143  0  4.189  0
C  C135  1  0.04263239  0.79526052  0.60792805  1  1.541885  0  0.20245  0.567911  0  4.192761  0
C  C136  1  0.24715356  0.81261345  0.20487987  1  1.545685  0  0.202702  0.568503  0  4.190615  0
C  C137  1  0.43456312  0.39209667  0.18753887  1  1.549247  0  0.203352  0.569091  0  4.189061  0
N  N138  1  0.18583452  0.09242267  0.65525662  1  -1.240591  0  -0.334251  -0.263377  0  3.521465  0
N  N139  1  0.09294483  0.56265240  0.90729173  1  -1.253279  0  -0.335027  -0.264581  0  3.522469  0
N  N140  1  0.53039911  0.34463672  0.43729260  1  -1.25161  0  -0.334197  -0.263439  0  3.522081  0
N  N141  1  0.81416585  0.90758009  0.34474651  1  -1.240641  0  -0.33431  -0.263414  0  3.52148  0
N  N142  1  0.90705742  0.43734901  0.09270744  1  -1.25312  0  -0.335076  -0.264636  0  3.52255  0
N  N143  1  0.46960018  0.65536133  0.56270596  1  -1.251572  0  -0.334212  -0.263476  0  3.52214  0
O  O144  1  0.80834019  0.99661711  0.21171639  1  -1.202031  0  -0.572182  -0.752391  0  2.061243  0
O  O145  1  0.81194459  0.21514059  0.00327292  1  -1.208091  0  -0.571876  -0.751809  0  2.061405  0
O  O146  1  0.59667930  0.78832324  0.78483581  1  -1.240318  0  -0.571705  -0.751891  0  2.061823  0
O  O147  1  0.19166012  0.00338296  0.78828433  1  -1.202074  0  -0.572195  -0.752427  0  2.06118  0
O  O148  1  0.18805865  0.78486015  0.99672715  1  -1.208089  0  -0.571878  -0.751784  0  2.061343  0
O  O149  1  0.40332101  0.21167682  0.21516491  1  -1.240314  0  -0.571671  -0.751787  0  2.061949  0
O  O150  1  0.25747630  0.09933971  0.29381365  1  -1.179636  0  -0.343555  -0.593728  0  2.252728  0
O  O151  1  0.15836987  0.19445130  0.90059896  1  -1.178847  0  -0.34337  -0.59386  0  2.253847  0
O  O152  1  0.96374508  0.70635991  0.80564702  1  -1.182161  0  -0.343402  -0.593732  0  2.252847  0
O  O153  1  0.74251848  0.90065969  0.70618698  1  -1.179713  0  -0.343569  -0.593771  0  2.252628  0
O  O154  1  0.84162982  0.80555011  0.09940234  1  -1.178898  0  -0.343371  -0.593852  0  2.253893  0
O  O155  1  0.03625029  0.29363814  0.19435013  1  -1.182201  0  -0.343378  -0.593728  0  2.252852  0
O  O156  1  0.22145452  0.01635443  0.36125672  1  -1.150548  0  -0.314975  -0.535239  0  2.286965  0
O  O157  1  0.20527021  0.34486449  0.98362794  1  -1.149434  0  -0.315437  -0.535848  0  2.285729  0
O  O158  1  0.85985039  0.63880445  0.65519546  1  -1.146023  0  -0.315299  -0.535098  0  2.287071  0
O  O159  1  0.77854451  0.98364563  0.63874506  1  -1.150505  0  -0.315004  -0.535277  0  2.28701  0
O  O160  1  0.79473562  0.65513625  0.01637229  1  -1.149405  0  -0.315428  -0.535833  0  2.285752  0
O  O161  1  0.14015052  0.36119427  0.34480294  1  -1.146183  0  -0.315333  -0.535149  0  2.28697  0
O  O162  1  0.92654031  0.17243365  0.30700075  1  -1.162897  0  -0.326414  -0.56585  0  2.194599  0
O  O163  1  0.75430809  0.13459313  0.82738398  1  -1.164971  0  -0.326713  -0.566546  0  2.194012  0
O  O164  1  0.61979882  0.69295130  0.86528712  1  -1.172206  0  -0.326659  -0.566597  0  2.19355  0
O  O165  1  0.07345872  0.82756641  0.69300046  1  -1.162928  0  -0.326428  -0.565881  0  2.194567  0
O  O166  1  0.24569224  0.86540693  0.17261789  1  -1.164856  0  -0.326692  -0.566511  0  2.194025  0
O  O167  1  0.38019854  0.30704809  0.13471252  1  -1.172204  0  -0.326671  -0.566577  0  2.19357  0
O  O168  1  0.11224292  0.25079139  0.44500977  1  -1.171254  0  -0.319418  -0.554453  0  2.231246  0
O  O169  1  0.86188193  0.19438249  0.74920425  1  -1.171405  0  -0.31969  -0.555069  0  2.230722  0
O  O170  1  0.66730505  0.55494121  0.80555846  1  -1.174346  0  -0.320142  -0.555286  0  2.2312  0
O  O171  1  0.88775740  0.74920868  0.55499095  1  -1.171313  0  -0.319413  -0.554463  0  2.23128  0
O  O172  1  0.13812135  0.80561825  0.25079870  1  -1.171417  0  -0.319647  -0.555018  0  2.230776  0
O  O173  1  0.33269265  0.44505886  0.19444152  1  -1.174365  0  -0.320127  -0.555276  0  2.231271  0
