# generated using pymatgen
data_BiH8C10NO10
_symmetry_space_group_name_H-M   'P 1'
_cell_length_a   5.03946457
_cell_length_b   9.97235675
_cell_length_c   15.29847462
_cell_angle_alpha   89.99961611
_cell_angle_beta   100.61513253
_cell_angle_gamma   90.00060308
_symmetry_Int_Tables_number   1
_chemical_formula_structural   BiH8C10NO10
_chemical_formula_sum   'Bi2 H16 C20 N2 O20'
_cell_volume   755.67282610
_cell_formula_units_Z   2
loop_
 _symmetry_equiv_pos_site_id
 _symmetry_equiv_pos_as_xyz
  1  'x, y, z'
loop_
 _atom_site_type_symbol
 _atom_site_label
 _atom_site_symmetry_multiplicity
 _atom_site_fract_x
 _atom_site_fract_y
 _atom_site_fract_z
 _atom_site_occupancy
 _atom_site_pbe_bader_spin_density
 _atom_site_pbe_cm5_charge
 _atom_site_pbe_ddec_charge
 _atom_site_pbe_ddec_spin_density
 _atom_site_pbe_ddec_sum_bond_order
 _atom_site_pbe_magmom
Bi  Bi0  1  0.36801953  0.86146837  0.97626198  1  0  0.893791  1.420658  0  2.557417  0
Bi  Bi1  1  0.86797787  0.13853685  0.47625804  1  0  0.893818  1.420749  0  2.557299  0
H  H2  1  0.40350280  0.34815446  0.00687040  1  0  0.116689  0.126881  0  0.985099  0
H  H3  1  0.90350115  0.65184173  0.50687228  1  0  0.116672  0.12685  0  0.98506  0
H  H4  1  0.03295082  0.13573529  0.19801358  1  0  0.113783  0.119075  0  1.01913  0
H  H5  1  0.53294075  0.86426196  0.69801019  1  0  0.113806  0.119065  0  1.019223  0
H  H6  1  0.96516447  0.56546480  0.17849147  1  0  0.115193  0.119774  0  1.013579  0
H  H7  1  0.46514956  0.43452996  0.67849294  1  0  0.115287  0.119874  0  1.013339  0
H  H8  1  0.81410365  0.45694641  0.37588427  1  0  0.313307  0.379582  0  0.948385  0
H  H9  1  0.31410077  0.54305354  0.87588460  1  0  0.313289  0.379594  0  0.948367  0
H  H10  1  0.87447702  0.77148048  0.09562937  1  0  0.3082  0.357395  0  0.976198  0
H  H11  1  0.37444778  0.22851765  0.59562638  1  0  0.308253  0.357477  0  0.976126  0
H  H12  1  0.84984415  0.79484425  0.24175781  1  0  0.102238  0.110241  0  0.985683  0
H  H13  1  0.34983264  0.20515426  0.74175584  1  0  0.102214  0.110165  0  0.985687  0
H  H14  1  0.49785380  0.83354946  0.21084576  1  0  0.099205  0.107438  0  1.001723  0
H  H15  1  0.99784091  0.16644515  0.71084779  1  0  0.099187  0.107421  0  1.001665  0
H  H16  1  0.74700938  0.95560661  0.19601635  1  0  0.094072  0.099036  0  1.012995  0
H  H17  1  0.24699495  0.04439081  0.69601622  1  0  0.094079  0.099009  0  1.012982  0
C  C18  1  0.18135195  0.47015170  0.08578517  1  0  -0.016457  -0.048658  0  3.994947  0
C  C19  1  0.68134579  0.52984951  0.58578471  1  0  -0.016457  -0.048646  0  3.99502  0
C  C20  1  0.28310162  0.34912455  0.05913039  1  0  -0.054575  -0.070985  0  3.875469  0
C  C21  1  0.78309799  0.65087748  0.55913282  1  0  -0.054564  -0.070899  0  3.87558  0
C  C22  1  0.22819819  0.22872638  0.09883447  1  0  -0.006446  -0.017986  0  3.957989  0
C  C23  1  0.72818228  0.77127294  0.59883051  1  0  -0.006437  -0.018049  0  3.958127  0
C  C24  1  0.07624758  0.22916283  0.16659257  1  0  -0.051761  -0.055542  0  3.852137  0
C  C25  1  0.57623384  0.77083297  0.66659070  1  0  -0.051801  -0.055605  0  3.852213  0
C  C26  1  0.98755979  0.35079736  0.19668279  1  0  -0.013985  -0.051793  0  3.982205  0
C  C27  1  0.48753856  0.64919734  0.69667976  1  0  -0.013953  -0.051658  0  3.982098  0
C  C28  1  0.03704601  0.47126403  0.15560349  1  0  -0.057901  -0.071193  0  3.884919  0
C  C29  1  0.53702974  0.52873267  0.65560251  1  0  -0.058025  -0.071367  0  3.884634  0
C  C30  1  0.23630364  0.59644620  0.04088205  1  0  0.227216  0.586477  0  4.157357  0
C  C31  1  0.73628336  0.40355376  0.54088596  1  0  0.227188  0.586434  0  4.157239  0
C  C32  1  0.32362064  0.10044118  0.06559966  1  0  0.213585  0.553647  0  4.185649  0
C  C33  1  0.82359695  0.89955698  0.56559345  1  0  0.213456  0.553539  0  4.185723  0
C  C34  1  0.85849134  0.34901267  0.27654292  1  0  0.238402  0.598349  0  4.101462  0
C  C35  1  0.35850482  0.65098352  0.77654628  1  0  0.238355  0.598217  0  4.101446  0
C  C36  1  0.69750438  0.84841317  0.19394886  1  0  -0.149793  -0.117693  0  3.874329  0
C  C37  1  0.19748793  0.15158300  0.69394817  1  0  -0.149767  -0.117556  0  3.874202  0
N  N38  1  0.85022343  0.97511332  0.87671217  1  0  0.111428  0.704181  0  4.389031  0
N  N39  1  0.35018283  0.02489282  0.37671140  1  0  0.111234  0.703993  0  4.389699  0
O  O40  1  0.15156416  0.70908621  0.06623402  1  0  -0.27823  -0.521536  0  2.28635  0
O  O41  1  0.65154947  0.29091704  0.56623412  1  0  -0.278174  -0.521501  0  2.286428  0
O  O42  1  0.37430875  0.59350263  0.97911352  1  0  -0.298728  -0.566585  0  2.244401  0
O  O43  1  0.87430686  0.40649658  0.47911576  1  0  -0.298741  -0.566594  0  2.244112  0
O  O44  1  0.51707190  0.09820975  0.02321552  1  0  -0.292674  -0.52398  0  2.148741  0
O  O45  1  0.01705133  0.90179522  0.52321079  1  0  -0.292622  -0.523893  0  2.148615  0
O  O46  1  0.19356126  0.99218183  0.07794981  1  0  -0.286617  -0.512748  0  2.196822  0
O  O47  1  0.69352878  0.00780949  0.57794560  1  0  -0.286603  -0.512743  0  2.196702  0
O  O48  1  0.78272627  0.24397295  0.30737702  1  0  -0.285675  -0.543371  0  2.24551  0
O  O49  1  0.28273147  0.75603154  0.80737753  1  0  -0.285646  -0.543294  0  2.245292  0
O  O50  1  0.84466890  0.46982140  0.31312033  1  0  -0.329413  -0.473299  0  2.247571  0
O  O51  1  0.34464548  0.53017835  0.81311833  1  0  -0.329363  -0.473254  0  2.247594  0
O  O52  1  0.69008449  0.79424586  0.10587243  1  0  -0.386629  -0.460641  0  2.472909  0
O  O53  1  0.19005917  0.20575418  0.60587366  1  0  -0.386685  -0.460785  0  2.472858  0
O  O54  1  0.86334806  0.86409523  0.92379129  1  0  -0.181503  -0.498588  0  2.047949  0
O  O55  1  0.36331338  0.13591151  0.42378776  1  0  -0.181379  -0.498403  0  2.048029  0
O  O56  1  0.62818772  0.01820772  0.84001547  1  0  -0.11996  -0.36044  0  2.014549  0
O  O57  1  0.12814740  0.98179661  0.34001656  1  0  -0.119928  -0.360426  0  2.014901  0
O  O58  1  0.07162587  0.03216063  0.87260092  1  0  -0.136738  -0.38769  0  2.000077  0
O  O59  1  0.57158190  0.96784506  0.37259663  1  0  -0.136715  -0.387721  0  2.000352  0
