# generated using pymatgen
data_NaH7C7SO3
_symmetry_space_group_name_H-M   'P 1'
_cell_length_a   6.11036834
_cell_length_b   8.52207180
_cell_length_c   14.94975296
_cell_angle_alpha   100.42861766
_cell_angle_beta   90.00025739
_cell_angle_gamma   90.00028716
_symmetry_Int_Tables_number   1
_chemical_formula_structural   NaH7C7SO3
_chemical_formula_sum   'Na4 H28 C28 S4 O12'
_cell_volume   765.61890894
_cell_formula_units_Z   4
loop_
 _symmetry_equiv_pos_site_id
 _symmetry_equiv_pos_as_xyz
  1  'x, y, z'
loop_
 _atom_site_type_symbol
 _atom_site_label
 _atom_site_symmetry_multiplicity
 _atom_site_fract_x
 _atom_site_fract_y
 _atom_site_fract_z
 _atom_site_occupancy
 _atom_site_hle17_bader_spin_density
 _atom_site_hle17_ddec_charge
 _atom_site_hle17_ddec_spin_density
 _atom_site_hle17_ddec_sum_bond_order
 _atom_site_hle17_magmom
 _atom_site_hse06_10hf_bader_spin_density
 _atom_site_hse06_10hf_ddec_charge
 _atom_site_hse06_10hf_ddec_spin_density
 _atom_site_hse06_10hf_ddec_sum_bond_order
 _atom_site_hse06_10hf_magmom
 _atom_site_hse06_bader_spin_density
 _atom_site_hse06_ddec_charge
 _atom_site_hse06_ddec_spin_density
 _atom_site_hse06_ddec_sum_bond_order
 _atom_site_hse06_magmom
 _atom_site_pbe_bader_spin_density
 _atom_site_pbe_cm5_charge
 _atom_site_pbe_ddec_charge
 _atom_site_pbe_ddec_spin_density
 _atom_site_pbe_ddec_sum_bond_order
 _atom_site_pbe_magmom
Na  Na0  1  0.12774185  0.18420999  0.46930949  1  0  0.918574  0  0.375951  0  0  0.888547  0  0.515811  0  0  0.896502  0  0.496427  0  0  0.717354  0.882511  0  0.529834  0
Na  Na1  1  0.62774196  0.31578984  0.53069022  1  0  0.918596  0  0.375949  0  0  0.888557  0  0.515821  0  0  0.896508  0  0.496442  0  0  0.717375  0.88252  0  0.529843  0
Na  Na2  1  0.87225755  0.81578812  0.53069081  1  0  0.918587  0  0.375943  0  0  0.888547  0  0.515819  0  0  0.896502  0  0.496435  0  0  0.717364  0.882513  0  0.529843  0
Na  Na3  1  0.37226236  0.68421066  0.46931033  1  0  0.918595  0  0.375962  0  0  0.888562  0  0.515824  0  0  0.896514  0  0.496442  0  0  0.717378  0.882525  0  0.529846  0
H  H4  1  0.06849926  0.46027852  0.76907171  1  0  0.129138  0  0.960081  0  0  0.141257  0  1.020585  0  0  0.142807  0  1.022403  0  0  0.107661  0.140118  0  1.019489  0
H  H5  1  0.56849088  0.03971985  0.23092974  1  0  0.129155  0  0.960027  0  0  0.141292  0  1.020557  0  0  0.142837  0  1.022368  0  0  0.107694  0.14015  0  1.019459  0
H  H6  1  0.93151161  0.53972675  0.23092866  1  0  0.129114  0  0.960038  0  0  0.141253  0  1.020538  0  0  0.142797  0  1.022353  0  0  0.107661  0.140113  0  1.019442  0
H  H7  1  0.43150034  0.96027587  0.76907231  1  0  0.129109  0  0.960082  0  0  0.141238  0  1.020578  0  0  0.142781  0  1.02239  0  0  0.107683  0.140097  0  1.019482  0
H  H8  1  0.29863858  0.35425174  0.71634727  1  0  0.140785  0  0.968672  0  0  0.150846  0  1.031114  0  0  0.153663  0  1.030393  0  0  0.112451  0.14878  0  1.031817  0
H  H9  1  0.79862660  0.14574646  0.28364923  1  0  0.140638  0  0.968923  0  0  0.15075  0  1.031343  0  0  0.153568  0  1.03062  0  0  0.112425  0.148685  0  1.032045  0
H  H10  1  0.70136574  0.64574637  0.28365035  1  0  0.140606  0  0.968721  0  0  0.150716  0  1.031136  0  0  0.153534  0  1.030411  0  0  0.112394  0.148652  0  1.03184  0
H  H11  1  0.20136299  0.85425643  0.71634889  1  0  0.140721  0  0.96874  0  0  0.150793  0  1.031175  0  0  0.153611  0  1.030449  0  0  0.112443  0.148728  0  1.031879  0
H  H12  1  0.13880406  0.65169832  0.89442557  1  0  0.086675  0  0.971991  0  0  0.096602  0  1.038412  0  0  0.098888  0  1.038332  0  0  0.096394  0.094797  0  1.038904  0
H  H13  1  0.63879638  0.84828511  0.10557020  1  0  0.086641  0  0.97196  0  0  0.096511  0  1.038457  0  0  0.098796  0  1.03838  0  0  0.096349  0.094708  0  1.038944  0
H  H14  1  0.86121008  0.34828189  0.10557286  1  0  0.086666  0  0.971871  0  0  0.096533  0  1.038382  0  0  0.098819  0  1.038305  0  0  0.096372  0.094733  0  1.038869  0
H  H15  1  0.36120139  0.15171300  0.89443143  1  0  0.086676  0  0.971898  0  0  0.09654  0  1.03841  0  0  0.098826  0  1.038332  0  0  0.096349  0.094737  0  1.038901  0
H  H16  1  0.37962216  0.84836942  0.98906283  1  0  0.077735  0  0.978634  0  0  0.088312  0  1.043224  0  0  0.090737  0  1.042672  0  0  0.094127  0.08663  0  1.043622  0
H  H17  1  0.87962518  0.65160552  0.01093919  1  0  0.077773  0  0.978649  0  0  0.088303  0  1.04328  0  0  0.090713  0  1.042746  0  0  0.094101  0.086621  0  1.043677  0
H  H18  1  0.62038052  0.15161556  0.01093945  1  0  0.077749  0  0.978624  0  0  0.088283  0  1.043258  0  0  0.090702  0  1.042713  0  0  0.094082  0.086601  0  1.043655  0
H  H19  1  0.12037095  0.34839139  0.98906299  1  0  0.077756  0  0.978634  0  0  0.088322  0  1.043227  0  0  0.090739  0  1.042685  0  0  0.094141  0.08664  0  1.043626  0
H  H20  1  0.75012016  0.90815060  0.93113083  1  0  0.08502  0  0.956237  0  0  0.098159  0  1.013887  0  0  0.100625  0  1.013452  0  0  0.097897  0.096459  0  1.014159  0
H  H21  1  0.25012806  0.59185956  0.06887528  1  0  0.085044  0  0.956402  0  0  0.098168  0  1.014054  0  0  0.100632  0  1.013623  0  0  0.097898  0.096469  0  1.014325  0
H  H22  1  0.24987761  0.09184870  0.06887093  1  0  0.085048  0  0.956302  0  0  0.098201  0  1.013933  0  0  0.10067  0  1.013499  0  0  0.097932  0.096501  0  1.014203  0
H  H23  1  0.74987134  0.40814213  0.93112605  1  0  0.085026  0  0.956429  0  0  0.098153  0  1.014073  0  0  0.100617  0  1.013641  0  0  0.097904  0.096453  0  1.014345  0
H  H24  1  0.86967464  0.76839368  0.77764778  1  0  0.094508  0  0.969631  0  0  0.104878  0  1.030471  0  0  0.107325  0  1.030128  0  0  0.100434  0.102949  0  1.031159  0
H  H25  1  0.36968029  0.73162777  0.22235103  1  0  0.094603  0  0.969603  0  0  0.104949  0  1.030457  0  0  0.107415  0  1.030089  0  0  0.100499  0.103019  0  1.031149  0
H  H26  1  0.13032968  0.23161637  0.22235242  1  0  0.094626  0  0.969532  0  0  0.104939  0  1.030434  0  0  0.107405  0  1.030066  0  0  0.100467  0.103009  0  1.031126  0
H  H27  1  0.63031585  0.26837272  0.77765085  1  0  0.094549  0  0.969645  0  0  0.104888  0  1.030495  0  0  0.107353  0  1.030128  0  0  0.100468  0.102957  0  1.031186  0
H  H28  1  0.63139977  0.57191776  0.68497798  1  0  0.099778  0  0.958717  0  0  0.108147  0  1.023394  0  0  0.112244  0  1.020514  0  0  0.11024  0.105216  0  1.025582  0
H  H29  1  0.13139632  0.92810025  0.31501936  1  0  0.099739  0  0.958768  0  0  0.108121  0  1.023432  0  0  0.112214  0  1.02056  0  0  0.110245  0.105191  0  1.025622  0
H  H30  1  0.36860782  0.42809707  0.31501803  1  0  0.099737  0  0.958649  0  0  0.10811  0  1.023321  0  0  0.1122  0  1.02045  0  0  0.110239  0.10518  0  1.025512  0
H  H31  1  0.86860145  0.07190263  0.68498076  1  0  0.099695  0  0.958761  0  0  0.108073  0  1.023436  0  0  0.112166  0  1.020563  0  0  0.110218  0.105141  0  1.025626  0
C  C32  1  0.21956036  0.47187919  0.73124974  1  0  -0.367351  0  3.646436  0  0  -0.401801  0  3.874392  0  0  -0.40818  0  3.883071  0  0  -0.153204  -0.397344  0  3.868596  0
C  C33  1  0.71955723  0.02811986  0.26874336  1  0  -0.366921  0  3.646313  0  0  -0.401543  0  3.874308  0  0  -0.40791  0  3.882975  0  0  -0.15314  -0.397086  0  3.86851  0
C  C34  1  0.78044723  0.52812131  0.26874746  1  0  -0.367035  0  3.646129  0  0  -0.401572  0  3.874079  0  0  -0.407934  0  3.882741  0  0  -0.15313  -0.397115  0  3.868284  0
C  C35  1  0.28044218  0.97187944  0.73125639  1  0  -0.367064  0  3.646281  0  0  -0.401522  0  3.874056  0  0  -0.407879  0  3.88271  0  0  -0.153183  -0.397065  0  3.868259  0
C  C36  1  0.36732303  0.59675052  0.78337551  1  0  0.122942  0  3.749871  0  0  0.14596  0  3.979406  0  0  0.146504  0  4.004039  0  0  -0.010212  0.145553  0  3.962754  0
C  C37  1  0.86731696  0.90325182  0.21662197  1  0  0.122688  0  3.750166  0  0  0.145941  0  3.979431  0  0  0.146482  0  4.004061  0  0  -0.010267  0.145537  0  3.962781  0
C  C38  1  0.63268293  0.40324521  0.21662119  1  0  0.122795  0  3.749894  0  0  0.145918  0  3.979256  0  0  0.146454  0  4.003887  0  0  -0.010192  0.145514  0  3.962607  0
C  C39  1  0.13268409  0.09675225  0.78337961  1  0  0.122702  0  3.750149  0  0  0.145921  0  3.97937  0  0  0.146456  0  4.004002  0  0  -0.010261  0.145516  0  3.962717  0
C  C40  1  0.29983685  0.67742148  0.86918606  1  0  -0.126805  0  3.735418  0  0  -0.14338  0  3.973252  0  0  -0.146628  0  3.995928  0  0  -0.094167  -0.141096  0  3.958046  0
C  C41  1  0.79982600  0.82257221  0.13081442  1  0  -0.126559  0  3.735494  0  0  -0.143136  0  3.973226  0  0  -0.14638  0  3.995895  0  0  -0.094066  -0.140854  0  3.958019  0
C  C42  1  0.70017074  0.32256589  0.13081446  1  0  -0.126631  0  3.735468  0  0  -0.143186  0  3.973248  0  0  -0.146429  0  3.995922  0  0  -0.094148  -0.140905  0  3.958042  0
C  C43  1  0.20016850  0.17742710  0.86918667  1  0  -0.126686  0  3.735389  0  0  -0.143268  0  3.973146  0  0  -0.146512  0  3.995818  0  0  -0.094099  -0.140987  0  3.957943  0
C  C44  1  0.43595207  0.78849611  0.92239019  1  0  -0.080868  0  3.807081  0  0  -0.091482  0  4.052867  0  0  -0.09384  0  4.075297  0  0  -0.097911  -0.089745  0  4.03731  0
C  C45  1  0.93594478  0.71149460  0.07760888  1  0  -0.080921  0  3.807072  0  0  -0.091495  0  4.052842  0  0  -0.093841  0  4.075275  0  0  -0.097836  -0.089757  0  4.037281  0
C  C46  1  0.56405225  0.21149365  0.07761191  1  0  -0.080932  0  3.807154  0  0  -0.091514  0  4.052927  0  0  -0.093868  0  4.075358  0  0  -0.097835  -0.089776  0  4.037367  0
C  C47  1  0.06404808  0.28850470  0.92239087  1  0  -0.080838  0  3.806938  0  0  -0.091443  0  4.052717  0  0  -0.093794  0  4.075148  0  0  -0.097868  -0.089708  0  4.037162  0
C  C48  1  0.64245510  0.82149577  0.89018179  1  0  -0.091366  0  3.797877  0  0  -0.106887  0  4.048924  0  0  -0.108915  0  4.070098  0  0  -0.098537  -0.105347  0  4.034295  0
C  C49  1  0.14245913  0.67850318  0.10981962  1  0  -0.091454  0  3.798136  0  0  -0.106966  0  4.049169  0  0  -0.108998  0  4.070345  0  0  -0.098617  -0.105425  0  4.034539  0
C  C50  1  0.35754104  0.17850234  0.10982051  1  0  -0.091418  0  3.798066  0  0  -0.106939  0  4.049071  0  0  -0.108974  0  4.070255  0  0  -0.098601  -0.105398  0  4.034439  0
C  C51  1  0.85753536  0.32149731  0.89018160  1  0  -0.091379  0  3.798036  0  0  -0.106891  0  4.049045  0  0  -0.108923  0  4.070224  0  0  -0.09855  -0.105351  0  4.034417  0
C  C52  1  0.71079721  0.74257748  0.80457331  1  0  -0.069769  0  3.767523  0  0  -0.082091  0  4.019381  0  0  -0.083738  0  4.040376  0  0  -0.090913  -0.080891  0  4.005405  0
C  C53  1  0.21080273  0.75743610  0.19542706  1  0  -0.069872  0  3.767467  0  0  -0.082168  0  4.019345  0  0  -0.083825  0  4.040328  0  0  -0.090946  -0.080971  0  4.005376  0
C  C54  1  0.28920220  0.25742779  0.19542706  1  0  -0.069883  0  3.76759  0  0  -0.082173  0  4.019462  0  0  -0.08383  0  4.040444  0  0  -0.090947  -0.080973  0  4.00549  0
C  C55  1  0.78919504  0.24257156  0.80457289  1  0  -0.069868  0  3.767395  0  0  -0.082138  0  4.01925  0  0  -0.083794  0  4.040233  0  0  -0.090981  -0.08094  0  4.005277  0
C  C56  1  0.57510913  0.63060453  0.75179630  1  0  -0.103025  0  3.690178  0  0  -0.125441  0  3.938218  0  0  -0.127662  0  3.957718  0  0  -0.082843  -0.123882  0  3.924911  0
C  C57  1  0.07510127  0.86940964  0.24820255  1  0  -0.102997  0  3.690083  0  0  -0.125495  0  3.938099  0  0  -0.127714  0  3.957599  0  0  -0.082859  -0.123936  0  3.924797  0
C  C58  1  0.42489682  0.36940194  0.24820018  1  0  -0.103004  0  3.690063  0  0  -0.125438  0  3.938045  0  0  -0.127659  0  3.957558  0  0  -0.08284  -0.123877  0  3.924735  0
C  C59  1  0.92489486  0.13059085  0.75179799  1  0  -0.102922  0  3.68993  0  0  -0.125428  0  3.937929  0  0  -0.127645  0  3.957427  0  0  -0.082805  -0.123869  0  3.924626  0
S  S60  1  0.12773067  0.49875428  0.62082447  1  0  1.387894  0  5.580884  0  0  1.30449  0  6.105226  0  0  1.349474  0  6.079658  0  0  0.505135  1.273374  0  6.122041  0
S  S61  1  0.62773350  0.00124555  0.37917389  1  0  1.387619  0  5.581  0  0  1.304244  0  6.105394  0  0  1.349225  0  6.079829  0  0  0.505044  1.273129  0  6.122205  0
S  S62  1  0.87227201  0.50124742  0.37917419  1  0  1.387815  0  5.580949  0  0  1.304418  0  6.105303  0  0  1.3494  0  6.079734  0  0  0.505085  1.273303  0  6.122116  0
S  S63  1  0.37226427  0.99875375  0.62082652  1  0  1.38781  0  5.580825  0  0  1.304385  0  6.105195  0  0  1.349362  0  6.079634  0  0  0.505128  1.273272  0  6.122007  0
O  O64  1  0.97005081  0.36756841  0.59321488  1  0  -0.78197  0  1.945002  0  0  -0.742284  0  2.216882  0  0  -0.760016  0  2.198775  0  0  -0.463898  -0.729689  0  2.229001  0
O  O65  1  0.47005621  0.13243771  0.40678275  1  0  -0.781916  0  1.944985  0  0  -0.742219  0  2.216849  0  0  -0.759947  0  2.198741  0  0  -0.463824  -0.72962  0  2.228965  0
O  O66  1  0.02995187  0.63243328  0.40678445  1  0  -0.781954  0  1.945103  0  0  -0.742266  0  2.216972  0  0  -0.759995  0  2.198862  0  0  -0.463862  -0.729666  0  2.22909  0
O  O67  1  0.52994320  0.86756517  0.59321603  1  0  -0.781937  0  1.944944  0  0  -0.742259  0  2.216836  0  0  -0.759986  0  2.198728  0  0  -0.463838  -0.729661  0  2.228954  0
O  O68  1  0.02854738  0.65774259  0.62930742  1  0  -0.725405  0  1.956847  0  0  -0.677048  0  2.21542  0  0  -0.69609  0  2.199596  0  0  -0.387223  -0.663616  0  2.226002  0
O  O69  1  0.52854589  0.84226063  0.37069355  1  0  -0.725388  0  1.956934  0  0  -0.677032  0  2.215503  0  0  -0.696074  0  2.199681  0  0  -0.387252  -0.663599  0  2.226083  0
O  O70  1  0.97145857  0.34225671  0.37069233  1  0  -0.725393  0  1.95674  0  0  -0.677056  0  2.215322  0  0  -0.696096  0  2.199497  0  0  -0.387241  -0.663623  0  2.225903  0
O  O71  1  0.47145352  0.15773987  0.62930565  1  0  -0.725475  0  1.956848  0  0  -0.6771  0  2.215408  0  0  -0.696139  0  2.199586  0  0  -0.387271  -0.663667  0  2.225987  0
O  O72  1  0.32089375  0.48013403  0.56003786  1  0  -0.796511  0  1.963805  0  0  -0.756817  0  2.239876  0  0  -0.773736  0  2.220289  0  0  -0.462828  -0.744816  0  2.253035  0
O  O73  1  0.82089247  0.01986427  0.43996136  1  0  -0.796431  0  1.963876  0  0  -0.756763  0  2.24001  0  0  -0.773686  0  2.220425  0  0  -0.462801  -0.744764  0  2.253169  0
O  O74  1  0.67911057  0.51986528  0.43996055  1  0  -0.796506  0  1.963867  0  0  -0.756807  0  2.239925  0  0  -0.773728  0  2.220341  0  0  -0.462804  -0.744805  0  2.253082  0
O  O75  1  0.17910366  0.98013503  0.56004106  1  0  -0.796474  0  1.963873  0  0  -0.756781  0  2.239956  0  0  -0.773702  0  2.220375  0  0  -0.462831  -0.744781  0  2.253116  0
