# generated using pymatgen
data_CdH14C20(NO)4
_symmetry_space_group_name_H-M   'P 1'
_cell_length_a   8.25546748
_cell_length_b   10.17726948
_cell_length_c   11.27269954
_cell_angle_alpha   101.14878229
_cell_angle_beta   88.73194068
_cell_angle_gamma   112.55394747
_symmetry_Int_Tables_number   1
_chemical_formula_structural   CdH14C20(NO)4
_chemical_formula_sum   'Cd2 H28 C40 N8 O8'
_cell_volume   856.75212834
_cell_formula_units_Z   2
loop_
 _symmetry_equiv_pos_site_id
 _symmetry_equiv_pos_as_xyz
  1  'x, y, z'
loop_
 _atom_site_type_symbol
 _atom_site_label
 _atom_site_symmetry_multiplicity
 _atom_site_fract_x
 _atom_site_fract_y
 _atom_site_fract_z
 _atom_site_occupancy
 _atom_site_hle17_bader_spin_density
 _atom_site_hle17_ddec_charge
 _atom_site_hle17_ddec_spin_density
 _atom_site_hle17_ddec_sum_bond_order
 _atom_site_hle17_magmom
 _atom_site_hse06_10hf_bader_spin_density
 _atom_site_hse06_10hf_ddec_charge
 _atom_site_hse06_10hf_ddec_spin_density
 _atom_site_hse06_10hf_ddec_sum_bond_order
 _atom_site_hse06_10hf_magmom
 _atom_site_hse06_bader_spin_density
 _atom_site_hse06_ddec_charge
 _atom_site_hse06_ddec_spin_density
 _atom_site_hse06_ddec_sum_bond_order
 _atom_site_hse06_magmom
 _atom_site_pbe_bader_spin_density
 _atom_site_pbe_cm5_charge
 _atom_site_pbe_ddec_charge
 _atom_site_pbe_ddec_spin_density
 _atom_site_pbe_ddec_sum_bond_order
 _atom_site_pbe_magmom
Cd  Cd0  1  0.90183143  0.40041947  0.63819522  1  0  1.134037  0  1.661324  0  0  0.942056  0  2.106573  0  0  1.000178  0  2.056335  0  0  0.776921  0.89795  0  2.142319  0
Cd  Cd1  1  0.09816993  0.59957975  0.36180510  1  0  1.134044  0  1.661341  0  0  0.942057  0  2.106598  0  0  1.000179  0  2.056359  0  0  0.776933  0.897953  0  2.142347  0
H  H2  1  0.40295233  0.48929103  0.29551754  1  0  0.103679  0  0.961892  0  0  0.111886  0  1.029223  0  0  0.115041  0  1.0278  0  0  0.102546  0.109801  0  1.030038  0
H  H3  1  0.59704541  0.51070817  0.70448193  1  0  0.103694  0  0.961844  0  0  0.111874  0  1.029203  0  0  0.115029  0  1.027779  0  0  0.102535  0.109785  0  1.030019  0
H  H4  1  0.30397708  0.03301494  0.19875425  1  0  0.086117  0  0.974751  0  0  0.09668  0  1.040741  0  0  0.099444  0  1.039451  0  0  0.097466  0.094042  0  1.043027  0
H  H5  1  0.69602310  0.96698427  0.80124431  1  0  0.086149  0  0.974757  0  0  0.096722  0  1.040735  0  0  0.099478  0  1.039455  0  0  0.097483  0.094085  0  1.043019  0
H  H6  1  0.15637582  0.01665780  0.00316515  1  0  0.084899  0  0.962912  0  0  0.097762  0  1.020333  0  0  0.099768  0  1.020522  0  0  0.097025  0.096532  0  1.019724  0
H  H7  1  0.84362315  0.98334140  0.99683342  1  0  0.084896  0  0.962896  0  0  0.097761  0  1.020315  0  0  0.099767  0  1.020502  0  0  0.097015  0.096533  0  1.019704  0
H  H8  1  0.12707183  0.23423822  0.95603241  1  0  0.079936  0  0.981329  0  0  0.089092  0  1.050326  0  0  0.091087  0  1.050425  0  0  0.094859  0.087873  0  1.049797  0
H  H9  1  0.87292764  0.76576207  0.04396634  1  0  0.0799  0  0.981326  0  0  0.089049  0  1.050343  0  0  0.091044  0  1.050442  0  0  0.094845  0.087831  0  1.049811  0
H  H10  1  0.15005266  0.78704881  0.13277692  1  0  0.080586  0  0.960793  0  0  0.092302  0  1.023452  0  0  0.094141  0  1.021082  0  0  0.130133  0.091289  0  1.024717  0
H  H11  1  0.84994747  0.21295040  0.86722519  1  0  0.08059  0  0.960782  0  0  0.092302  0  1.023454  0  0  0.094139  0  1.021087  0  0  0.130142  0.091307  0  1.024699  0
H  H12  1  0.25721599  0.46823730  0.88277907  1  0  0.122299  0  0.95802  0  0  0.130386  0  1.022856  0  0  0.133676  0  1.020606  0  0  0.12312  0.128023  0  1.024342  0
H  H13  1  0.74278346  0.53176299  0.11722146  1  0  0.1223  0  0.958017  0  0  0.130391  0  1.022848  0  0  0.133681  0  1.020598  0  0  0.123117  0.128028  0  1.024335  0
H  H14  1  0.51810079  0.10862797  0.57984099  1  0  0.084033  0  0.961763  0  0  0.094257  0  1.025962  0  0  0.095961  0  1.024523  0  0  0.130287  0.092965  0  1.02708  0
H  H15  1  0.48189815  0.89137123  0.42015935  1  0  0.084042  0  0.961775  0  0  0.094256  0  1.025984  0  0  0.095959  0  1.024547  0  0  0.130294  0.092962  0  1.027103  0
H  H16  1  0.67952446  0.48037732  0.42344977  1  0  0.130117  0  0.943205  0  0  0.137782  0  1.005639  0  0  0.141009  0  1.003563  0  0  0.120971  0.135212  0  1.00761  0
H  H17  1  0.32047498  0.51962297  0.57655075  1  0  0.130104  0  0.943195  0  0  0.137775  0  1.005627  0  0  0.141  0  1.003553  0  0  0.120978  0.135203  0  1.007596  0
H  H18  1  0.94210394  0.88668821  0.60293118  1  0  0.105803  0  0.951611  0  0  0.113367  0  1.017901  0  0  0.116854  0  1.015258  0  0  0.106723  0.1108  0  1.019875  0
H  H19  1  0.05789412  0.11331425  0.39706706  1  0  0.105816  0  0.951567  0  0  0.113367  0  1.01786  0  0  0.116854  0  1.015216  0  0  0.106716  0.110793  0  1.019838  0
H  H20  1  0.34850621  0.28732126  0.78093109  1  0  0.098647  0  0.949788  0  0  0.108592  0  1.013072  0  0  0.111879  0  1.010666  0  0  0.10473  0.1062  0  1.0148  0
H  H21  1  0.65149687  0.71267905  0.21907029  1  0  0.098669  0  0.949787  0  0  0.108598  0  1.013093  0  0  0.111885  0  1.010687  0  0  0.104735  0.106205  0  1.014822  0
H  H22  1  0.50406309  0.14817109  0.85200231  1  0  0.086524  0  0.982647  0  0  0.096231  0  1.043723  0  0  0.098801  0  1.043806  0  0  0.095447  0.093651  0  1.045218  0
H  H23  1  0.49593485  0.85182594  0.14799767  1  0  0.086486  0  0.982677  0  0  0.09618  0  1.043771  0  0  0.09875  0  1.043852  0  0  0.095423  0.093602  0  1.045262  0
H  H24  1  0.37292053  0.87672661  0.80182178  1  0  0.091859  0  0.967751  0  0  0.099701  0  1.03555  0  0  0.102895  0  1.033545  0  0  0.100084  0.097021  0  1.037815  0
H  H25  1  0.62707377  0.12327041  0.19817733  1  0  0.091859  0  0.967825  0  0  0.099667  0  1.03565  0  0  0.102881  0  1.033626  0  0  0.100094  0.096988  0  1.037919  0
H  H26  1  0.17463109  0.68059447  0.90392455  1  0  0.316642  0  0.911002  0  0  0.297617  0  0.970568  0  0  0.307224  0  0.962479  0  0  0.312067  0.290943  0  0.976004  0
H  H27  1  0.82536711  0.31940582  0.09607776  1  0  0.316647  0  0.911085  0  0  0.297635  0  0.970629  0  0  0.307242  0  0.962545  0  0  0.312082  0.290963  0  0.97606  0
H  H28  1  0.29557888  0.05140823  0.40350458  1  0  0.314896  0  0.931326  0  0  0.293432  0  0.998725  0  0  0.302815  0  0.990697  0  0  0.305028  0.286789  0  1.004355  0
H  H29  1  0.70442127  0.94859098  0.59649575  1  0  0.314844  0  0.93145  0  0  0.293414  0  0.998791  0  0  0.302797  0  0.990764  0  0  0.30503  0.28677  0  1.004422  0
C  C30  1  0.26520380  0.37708038  0.12123586  1  0  0.045215  0  3.821514  0  0  0.062124  0  4.053849  0  0  0.063137  0  4.077308  0  0  -0.008523  0.061093  0  4.038515  0
C  C31  1  0.73479810  0.62291992  0.87876287  1  0  0.045183  0  3.821648  0  0  0.06211  0  4.053934  0  0  0.063144  0  4.077365  0  0  -0.008499  0.061076  0  4.038605  0
C  C32  1  0.34936873  0.38607744  0.23106812  1  0  -0.13775  0  3.660681  0  0  -0.163873  0  3.903425  0  0  -0.166958  0  3.921774  0  0  -0.087192  -0.161459  0  3.890781  0
C  C33  1  0.65063074  0.61392285  0.76893063  1  0  -0.137769  0  3.660629  0  0  -0.163862  0  3.903379  0  0  -0.166954  0  3.921722  0  0  -0.087189  -0.161441  0  3.890733  0
C  C34  1  0.36259474  0.26214396  0.25990448  1  0  0.046746  0  3.822406  0  0  0.063994  0  4.056471  0  0  0.065185  0  4.07943  0  0  -0.006572  0.063186  0  4.0407  0
C  C35  1  0.63740543  0.73785525  0.74009496  1  0  0.046802  0  3.822379  0  0  0.06399  0  4.056471  0  0  0.065183  0  4.079427  0  0  -0.006632  0.063177  0  4.040704  0
C  C36  1  0.29229338  0.12885277  0.17692648  1  0  -0.126718  0  3.756778  0  0  -0.150384  0  4.007527  0  0  -0.153511  0  4.028204  0  0  -0.100167  -0.148305  0  3.994656  0
C  C37  1  0.70770731  0.87114753  0.82307226  1  0  -0.126785  0  3.756738  0  0  -0.150451  0  4.007499  0  0  -0.153573  0  4.028179  0  0  -0.10018  -0.148373  0  3.994631  0
C  C38  1  0.20961232  0.11957202  0.06779682  1  0  -0.062623  0  3.81609  0  0  -0.072822  0  4.063306  0  0  -0.073937  0  4.085357  0  0  -0.097674  -0.072013  0  4.048332  0
C  C39  1  0.79038789  0.88042720  0.93219996  1  0  -0.062607  0  3.816041  0  0  -0.072807  0  4.06326  0  0  -0.073923  0  4.085311  0  0  -0.09766  -0.072009  0  4.048293  0
C  C40  1  0.19468669  0.24219071  0.04054047  1  0  -0.114682  0  3.743641  0  0  -0.136483  0  3.990697  0  0  -0.139592  0  4.012394  0  0  -0.09532  -0.134505  0  3.975865  0
C  C41  1  0.80531473  0.75780851  0.95945630  1  0  -0.114631  0  3.74368  0  0  -0.13643  0  3.990719  0  0  -0.139545  0  4.012412  0  0  -0.095308  -0.13445  0  3.97589  0
C  C42  1  0.18411874  0.69443494  0.09861605  1  0  0.200711  0  3.723473  0  0  0.141208  0  4.000082  0  0  0.155019  0  4.013017  0  0  0.131494  0.131769  0  3.991839  0
C  C43  1  0.81587969  0.30556318  0.90138500  1  0  0.200776  0  3.723467  0  0  0.141283  0  4.000077  0  0  0.155095  0  4.01301  0  0  0.131508  0.131822  0  3.991827  0
C  C44  1  0.23977219  0.52599185  0.97036281  1  0  -0.036415  0  3.624781  0  0  -0.081296  0  3.887654  0  0  -0.07924  0  3.905344  0  0  0.008462  -0.081688  0  3.8746  0
C  C45  1  0.76022968  0.47400845  0.02963769  1  0  -0.036427  0  3.624856  0  0  -0.081312  0  3.887746  0  0  -0.079256  0  3.905439  0  0  0.008465  -0.081702  0  3.87469  0
C  C46  1  0.24414577  0.50146539  0.08671505  1  0  0.114522  0  3.803595  0  0  0.110432  0  4.056957  0  0  0.112207  0  4.081289  0  0  0.0746  0.109258  0  4.040157  0
C  C47  1  0.75585562  0.49853382  0.91328439  1  0  0.114562  0  3.803624  0  0  0.110489  0  4.056944  0  0  0.112258  0  4.081269  0  0  0.074586  0.109309  0  4.040149  0
C  C48  1  0.52296864  0.18153055  0.52039003  1  0  0.225506  0  3.695444  0  0  0.16437  0  3.967676  0  0  0.178754  0  3.981876  0  0  0.139241  0.155011  0  3.957658  0
C  C49  1  0.47703080  0.81846974  0.47961049  1  0  0.225494  0  3.695459  0  0  0.164358  0  3.967711  0  0  0.178744  0  3.981907  0  0  0.139228  0.154998  0  3.957695  0
C  C50  1  0.59957914  0.37264340  0.43845163  1  0  -0.028667  0  3.663175  0  0  -0.068508  0  3.929099  0  0  -0.066228  0  3.94828  0  0  0.003794  -0.070118  0  3.916426  0
C  C51  1  0.40042029  0.62735690  0.56154978  1  0  -0.02863  0  3.663145  0  0  -0.06851  0  3.929066  0  0  -0.06623  0  3.948244  0  0  0.003757  -0.070119  0  3.91639  0
C  C52  1  0.45158835  0.26804869  0.37232968  1  0  0.118173  0  3.752596  0  0  0.108991  0  4.004986  0  0  0.111079  0  4.027379  0  0  0.083803  0.107563  0  3.98996  0
C  C53  1  0.54841007  0.73194943  0.62767136  1  0  0.118077  0  3.752584  0  0  0.108993  0  4.004881  0  0  0.11108  0  4.027272  0  0  0.083832  0.107567  0  3.989854  0
C  C54  1  0.15101079  0.86628875  0.69805173  1  0  -0.065715  0  3.758459  0  0  -0.038843  0  3.993176  0  0  -0.04809  0  4.016034  0  0  -0.01901  -0.033033  0  3.977525  0
C  C55  1  0.84898334  0.13371044  0.30194598  1  0  -0.065751  0  3.758229  0  0  -0.038884  0  3.992953  0  0  -0.048135  0  4.015818  0  0  -0.019011  -0.033074  0  3.9773  0
C  C56  1  0.06451357  0.94509188  0.65788332  1  0  -0.050777  0  3.682394  0  0  -0.086676  0  3.929647  0  0  -0.083248  0  3.948598  0  0  -0.073878  -0.088263  0  3.917036  0
C  C57  1  0.93548639  0.05490950  0.34211650  1  0  -0.050844  0  3.682218  0  0  -0.086696  0  3.929432  0  0  -0.083269  0  3.948384  0  0  -0.073901  -0.088273  0  3.916811  0
C  C58  1  0.13273276  0.09685264  0.69070714  1  0  -0.082461  0  3.761294  0  0  -0.056105  0  3.99534  0  0  -0.066006  0  4.018634  0  0  -0.022928  -0.050037  0  3.980082  0
C  C59  1  0.86726840  0.90314874  0.30929355  1  0  -0.082387  0  3.761292  0  0  -0.056033  0  3.995317  0  0  -0.065935  0  4.018612  0  0  -0.022926  -0.049963  0  3.980053  0
C  C60  1  0.29402090  0.16918597  0.75807437  1  0  -0.056001  0  3.730273  0  0  -0.083747  0  3.98045  0  0  -0.080836  0  3.998489  0  0  -0.0799  -0.085454  0  3.968065  0
C  C61  1  0.70597925  0.83081324  0.24192597  1  0  -0.056051  0  3.730358  0  0  -0.0838  0  3.980547  0  0  -0.080889  0  3.998585  0  0  -0.079896  -0.085508  0  3.968162  0
C  C62  1  0.38106560  0.09079361  0.79754390  1  0  -0.083148  0  3.789209  0  0  -0.091699  0  4.040648  0  0  -0.096623  0  4.061718  0  0  -0.095453  -0.088414  0  4.026807  0
C  C63  1  0.61893355  0.90920343  0.20245607  1  0  -0.083056  0  3.789166  0  0  -0.091581  0  4.040574  0  0  -0.096505  0  4.061648  0  0  -0.095408  -0.088292  0  4.026725  0
C  C64  1  0.30840685  0.93972825  0.76957630  1  0  -0.068626  0  3.731967  0  0  -0.096488  0  3.982133  0  0  -0.093677  0  3.999743  0  0  -0.08534  -0.098278  0  3.970446  0
C  C65  1  0.69158725  0.06027094  0.23042319  1  0  -0.068613  0  3.731809  0  0  -0.096453  0  3.981975  0  0  -0.093661  0  3.999576  0  0  -0.085334  -0.098256  0  3.970304  0
C  C66  1  0.07206755  0.70432209  0.67247268  1  0  0.646097  0  3.915261  0  0  0.592181  0  4.20654  0  0  0.62651  0  4.201626  0  0  0.200748  0.569191  0  4.208415  0
C  C67  1  0.92792898  0.29567711  0.32752680  1  0  0.646101  0  3.915327  0  0  0.592178  0  4.206617  0  0  0.626507  0  4.201703  0  0  0.200716  0.569177  0  4.208503  0
C  C68  1  0.03138243  0.18288374  0.66246322  1  0  0.632254  0  3.92935  0  0  0.582925  0  4.221044  0  0  0.617304  0  4.214837  0  0  0.196462  0.559582  0  4.224371  0
C  C69  1  0.96862116  0.81711765  0.33753746  1  0  0.632092  0  3.929382  0  0  0.582747  0  4.221107  0  0  0.617124  0  4.214902  0  0  0.196397  0.559403  0  4.22443  0
N  N70  1  0.21011364  0.60947939  0.16630247  1  0  -0.440585  0  3.171393  0  0  -0.374007  0  3.453375  0  0  -0.394693  0  3.470002  0  0  -0.351429  -0.359835  0  3.441792  0
N  N71  1  0.78988792  0.39051766  0.83369837  1  0  -0.440671  0  3.171405  0  0  -0.374098  0  3.453375  0  0  -0.394785  0  3.47  0  0  -0.351478  -0.359921  0  3.441793  0
N  N72  1  0.20246422  0.64766301  0.98006172  1  0  -0.272996  0  3.457328  0  0  -0.205034  0  3.693287  0  0  -0.220949  0  3.707198  0  0  -0.376724  -0.194266  0  3.684113  0
N  N73  1  0.79753713  0.35233620  0.01993950  1  0  -0.272997  0  3.45743  0  0  -0.205069  0  3.693424  0  0  -0.220987  0  3.707332  0  0  -0.376695  -0.194297  0  3.684246  0
N  N74  1  0.40584415  0.14838751  0.42689970  1  0  -0.335778  0  3.426721  0  0  -0.270859  0  3.660072  0  0  -0.288247  0  3.674677  0  0  -0.376982  -0.259138  0  3.650233  0
N  N75  1  0.59415530  0.85161278  0.57310083  1  0  -0.335685  0  3.426788  0  0  -0.270813  0  3.660101  0  0  -0.288199  0  3.674702  0  0  -0.376954  -0.259089  0  3.650257  0
N  N76  1  0.64283135  0.31645725  0.52949552  1  0  -0.410478  0  3.286186  0  0  -0.329323  0  3.571888  0  0  -0.352493  0  3.590038  0  0  -0.364346  -0.313095  0  3.55848  0
N  N77  1  0.35716809  0.68354305  0.47050500  1  0  -0.410477  0  3.286141  0  0  -0.32932  0  3.571847  0  0  -0.35249  0  3.589994  0  0  -0.364332  -0.313095  0  3.558444  0
O  O78  1  0.10202860  0.63973078  0.75055014  1  0  -0.639126  0  2.018747  0  0  -0.575159  0  2.257487  0  0  -0.603845  0  2.250879  0  0  -0.314888  -0.554164  0  2.26139  0
O  O79  1  0.89797085  0.36026951  0.24945039  1  0  -0.639119  0  2.018787  0  0  -0.57516  0  2.257545  0  0  -0.603846  0  2.250941  0  0  -0.314881  -0.554161  0  2.261453  0
O  O80  1  0.97522652  0.63407620  0.57593539  1  0  -0.656724  0  2.000904  0  0  -0.585309  0  2.254843  0  0  -0.615542  0  2.245271  0  0  -0.326407  -0.563363  0  2.26027  0
O  O81  1  0.02477072  0.36592192  0.42406389  1  0  -0.656713  0  2.00092  0  0  -0.585295  0  2.254868  0  0  -0.615514  0  2.245263  0  0  -0.326394  -0.563344  0  2.260295  0
O  O82  1  0.86843261  0.11966361  0.63001994  1  0  -0.653907  0  1.97285  0  0  -0.600764  0  2.214372  0  0  -0.627382  0  2.206326  0  0  -0.327769  -0.581323  0  2.218382  0
O  O83  1  0.13156955  0.88033994  0.36998200  1  0  -0.653827  0  1.972817  0  0  -0.600659  0  2.214334  0  0  -0.627286  0  2.206312  0  0  -0.327705  -0.581219  0  2.218341  0
O  O84  1  0.11350480  0.32079906  0.67848809  1  0  -0.626123  0  1.987326  0  0  -0.56  0  2.234477  0  0  -0.588879  0  2.22418  0  0  -0.325512  -0.538994  0  2.241363  0
O  O85  1  0.88649756  0.67920232  0.32151348  1  0  -0.626086  0  1.987415  0  0  -0.559954  0  2.234561  0  0  -0.58883  0  2.224266  0  0  -0.325522  -0.538946  0  2.241444  0
