# generated using pymatgen
data_HgH10C14S2(IN2)2
_symmetry_space_group_name_H-M   'P 1'
_cell_length_a   9.76851773
_cell_length_b   10.44622864
_cell_length_c   10.44621186
_cell_angle_alpha   74.54957514
_cell_angle_beta   69.28613550
_cell_angle_gamma   69.28583879
_symmetry_Int_Tables_number   1
_chemical_formula_structural   HgH10C14S2(IN2)2
_chemical_formula_sum   'Hg2 H20 C28 S4 I4 N8'
_cell_volume   920.37167014
_cell_formula_units_Z   2
loop_
 _symmetry_equiv_pos_site_id
 _symmetry_equiv_pos_as_xyz
  1  'x, y, z'
loop_
 _atom_site_type_symbol
 _atom_site_label
 _atom_site_symmetry_multiplicity
 _atom_site_fract_x
 _atom_site_fract_y
 _atom_site_fract_z
 _atom_site_occupancy
 _atom_site_hle17_bader_spin_density
 _atom_site_hle17_ddec_charge
 _atom_site_hle17_ddec_spin_density
 _atom_site_hle17_ddec_sum_bond_order
 _atom_site_hle17_magmom
 _atom_site_hse06_10hf_bader_spin_density
 _atom_site_hse06_10hf_ddec_charge
 _atom_site_hse06_10hf_ddec_spin_density
 _atom_site_hse06_10hf_ddec_sum_bond_order
 _atom_site_hse06_10hf_magmom
 _atom_site_hse06_bader_spin_density
 _atom_site_hse06_ddec_charge
 _atom_site_hse06_ddec_spin_density
 _atom_site_hse06_ddec_sum_bond_order
 _atom_site_hse06_magmom
 _atom_site_pbe_bader_spin_density
 _atom_site_pbe_cm5_charge
 _atom_site_pbe_ddec_charge
 _atom_site_pbe_ddec_spin_density
 _atom_site_pbe_ddec_sum_bond_order
 _atom_site_pbe_magmom
Hg  Hg0  1  0.75000190  0.73992306  0.26007579  1  0  0.498521  0  2.205722  0  0  0.366785  0  2.691832  0  0  0.411191  0  2.669718  0  0  0.380744  0.338944  0  2.705008  0
Hg  Hg1  1  0.24999984  0.26007838  0.73992453  1  0  0.498518  0  2.20575  0  0  0.366779  0  2.691853  0  0  0.411184  0  2.66974  0  0  0.380745  0.338935  0  2.705038  0
H  H2  1  0.95837075  0.11211997  0.37295377  1  0  0.100624  0  0.973127  0  0  0.104537  0  1.046631  0  0  0.107412  0  1.046259  0  0  0.096182  0.102368  0  1.047231  0
H  H3  1  0.54162739  0.62703765  0.88788426  1  0  0.100679  0  0.97315  0  0  0.10456  0  1.046678  0  0  0.107435  0  1.046307  0  0  0.096199  0.102398  0  1.047275  0
H  H4  1  0.04162885  0.88788460  0.62704166  1  0  0.100626  0  0.973219  0  0  0.104522  0  1.046741  0  0  0.107397  0  1.04637  0  0  0.096176  0.102355  0  1.047341  0
H  H5  1  0.45837373  0.37295547  0.11211942  1  0  0.100634  0  0.973182  0  0  0.104539  0  1.046679  0  0  0.107414  0  1.046307  0  0  0.096202  0.10238  0  1.04728  0
H  H6  1  0.90109834  0.31283517  0.18438133  1  0  0.087222  0  0.983264  0  0  0.092855  0  1.05446  0  0  0.096413  0  1.051588  0  0  0.087493  0.0905  0  1.056411  0
H  H7  1  0.59889933  0.81561132  0.68716962  1  0  0.08726  0  0.98323  0  0  0.09289  0  1.054425  0  0  0.096446  0  1.051554  0  0  0.087504  0.090536  0  1.056371  0
H  H8  1  0.09889907  0.68716939  0.81561484  1  0  0.087271  0  0.983222  0  0  0.092887  0  1.054436  0  0  0.096445  0  1.051565  0  0  0.087501  0.090533  0  1.056387  0
H  H9  1  0.40110289  0.18438180  0.31283465  1  0  0.087283  0  0.983188  0  0  0.092904  0  1.054384  0  0  0.096462  0  1.051513  0  0  0.087517  0.090549  0  1.056337  0
H  H10  1  0.77340381  0.28879751  0.02370493  1  0  0.098384  0  0.980049  0  0  0.101264  0  1.054777  0  0  0.104843  0  1.053049  0  0  0.092247  0.098568  0  1.056036  0
H  H11  1  0.72658901  0.97628747  0.71121075  1  0  0.098417  0  0.980016  0  0  0.101315  0  1.054727  0  0  0.104889  0  1.053003  0  0  0.092311  0.09862  0  1.055988  0
H  H12  1  0.22659425  0.71120498  0.97629061  1  0  0.098361  0  0.980043  0  0  0.101263  0  1.054755  0  0  0.104843  0  1.053023  0  0  0.092271  0.098568  0  1.056012  0
H  H13  1  0.27340851  0.02370668  0.28879483  1  0  0.098363  0  0.980026  0  0  0.101244  0  1.054765  0  0  0.10483  0  1.05303  0  0  0.09227  0.098548  0  1.056028  0
H  H14  1  0.70800436  0.07145040  0.05824593  1  0  0.077686  0  0.967617  0  0  0.082558  0  1.039116  0  0  0.084955  0  1.036662  0  0  0.112337  0.080603  0  1.041026  0
H  H15  1  0.79198937  0.94174888  0.92855673  1  0  0.077677  0  0.967713  0  0  0.082593  0  1.039146  0  0  0.084992  0  1.036691  0  0  0.112346  0.080644  0  1.041057  0
H  H16  1  0.29199909  0.92854899  0.94174957  1  0  0.07768  0  0.967598  0  0  0.082561  0  1.039102  0  0  0.08496  0  1.036647  0  0  0.112325  0.080608  0  1.041009  0
H  H17  1  0.20800649  0.05825046  0.07144804  1  0  0.077699  0  0.967637  0  0  0.082569  0  1.03914  0  0  0.084967  0  1.036685  0  0  0.11233  0.080613  0  1.041051  0
H  H18  1  0.11169614  0.58463054  0.52957673  1  0  0.102903  0  0.983048  0  0  0.111827  0  1.048637  0  0  0.115728  0  1.046027  0  0  0.089234  0.108203  0  1.052202  0
H  H19  1  0.38830157  0.47042455  0.41537551  1  0  0.102921  0  0.983001  0  0  0.111845  0  1.048592  0  0  0.115746  0  1.04598  0  0  0.089238  0.108218  0  1.052168  0
H  H20  1  0.88830275  0.41537296  0.47042497  1  0  0.102926  0  0.982989  0  0  0.111845  0  1.048582  0  0  0.115746  0  1.04597  0  0  0.089249  0.108219  0  1.052148  0
H  H21  1  0.61169580  0.52957687  0.58462725  1  0  0.102883  0  0.983013  0  0  0.111811  0  1.048599  0  0  0.115711  0  1.045991  0  0  0.089234  0.108191  0  1.052166  0
C  C22  1  0.87078014  0.98576031  0.30702430  1  0  0.197371  0  3.773865  0  0  0.198649  0  4.035445  0  0  0.206781  0  4.054413  0  0  0.115907  0.19276  0  4.023254  0
C  C23  1  0.62921995  0.69296673  0.01424593  1  0  0.197428  0  3.774051  0  0  0.198668  0  4.035673  0  0  0.206779  0  4.054669  0  0  0.11591  0.19283  0  4.023413  0
C  C24  1  0.12922231  0.01424219  0.69297072  1  0  0.197346  0  3.774048  0  0  0.198588  0  4.035655  0  0  0.206701  0  4.054656  0  0  0.115836  0.192698  0  4.023476  0
C  C25  1  0.37078086  0.30702743  0.98575951  1  0  0.197317  0  3.774  0  0  0.198617  0  4.035571  0  0  0.20673  0  4.05457  0  0  0.115878  0.192759  0  4.023341  0
C  C26  1  0.90496905  0.10690894  0.29959326  1  0  -0.132304  0  3.7159  0  0  -0.147455  0  3.959051  0  0  -0.153444  0  3.979113  0  0  -0.083633  -0.143747  0  3.946465  0
C  C27  1  0.59503143  0.70039917  0.89309459  1  0  -0.13245  0  3.716037  0  0  -0.147568  0  3.959205  0  0  -0.153552  0  3.979274  0  0  -0.083708  -0.143884  0  3.946609  0
C  C28  1  0.09503196  0.89309460  0.70040101  1  0  -0.132292  0  3.716118  0  0  -0.147419  0  3.959258  0  0  -0.153404  0  3.979329  0  0  -0.08364  -0.143711  0  3.946674  0
C  C29  1  0.40497121  0.29959604  0.10690803  1  0  -0.132257  0  3.715999  0  0  -0.147422  0  3.959159  0  0  -0.153406  0  3.979227  0  0  -0.083642  -0.143737  0  3.946577  0
C  C30  1  0.87203527  0.21791086  0.19545690  1  0  -0.003335  0  3.717723  0  0  -0.016025  0  3.956455  0  0  -0.014101  0  3.97558  0  0  -0.07159  -0.017472  0  3.94406  0
C  C31  1  0.62796314  0.80453340  0.78209356  1  0  -0.003375  0  3.717742  0  0  -0.016048  0  3.956443  0  0  -0.014124  0  3.975569  0  0  -0.071549  -0.017494  0  3.944048  0
C  C32  1  0.12796464  0.78209268  0.80453679  1  0  -0.003458  0  3.717776  0  0  -0.01613  0  3.956495  0  0  -0.014207  0  3.975621  0  0  -0.07161  -0.017581  0  3.944104  0
C  C33  1  0.37203764  0.19546077  0.21790901  1  0  -0.003444  0  3.71767  0  0  -0.01611  0  3.9564  0  0  -0.014186  0  3.975527  0  0  -0.071584  -0.01756  0  3.944014  0
C  C34  1  0.80140909  0.20509632  0.10660033  1  0  -0.106553  0  3.721431  0  0  -0.120421  0  3.97111  0  0  -0.126731  0  3.993005  0  0  -0.085053  -0.116276  0  3.957139  0
C  C35  1  0.69858724  0.89339421  0.79490871  1  0  -0.106511  0  3.721393  0  0  -0.120423  0  3.971114  0  0  -0.126723  0  3.993008  0  0  -0.085152  -0.116272  0  3.957144  0
C  C36  1  0.19859259  0.79490515  0.89339426  1  0  -0.10648  0  3.721371  0  0  -0.120352  0  3.971037  0  0  -0.126662  0  3.992937  0  0  -0.085082  -0.116209  0  3.957067  0
C  C37  1  0.30141178  0.10660203  0.20509391  1  0  -0.10645  0  3.721347  0  0  -0.120343  0  3.971059  0  0  -0.126656  0  3.992949  0  0  -0.08509  -0.116194  0  3.957085  0
C  C38  1  0.76729350  0.08180936  0.12404053  1  0  0.138096  0  3.675435  0  0  0.109682  0  3.926399  0  0  0.115989  0  3.944801  0  0  0.045423  0.10557  0  3.914161  0
C  C39  1  0.73270166  0.87595255  0.91819745  1  0  0.137956  0  3.675588  0  0  0.109525  0  3.926534  0  0  0.115833  0  3.944923  0  0  0.045354  0.105402  0  3.914308  0
C  C40  1  0.23270850  0.91819107  0.87595327  1  0  0.138085  0  3.675504  0  0  0.109634  0  3.926506  0  0  0.115944  0  3.9449  0  0  0.045389  0.105525  0  3.914258  0
C  C41  1  0.26729486  0.12404472  0.08180670  1  0  0.137994  0  3.675457  0  0  0.109588  0  3.926426  0  0  0.115895  0  3.944825  0  0  0.045395  0.105479  0  3.914181  0
C  C42  1  0.10440397  0.76104164  0.36044357  1  0  0.148774  0  3.807462  0  0  0.151921  0  4.081818  0  0  0.158816  0  4.098478  0  0  0.111958  0.1471  0  4.070408  0
C  C43  1  0.39559589  0.63955711  0.23896227  1  0  0.148746  0  3.807526  0  0  0.151891  0  4.081882  0  0  0.158784  0  4.098546  0  0  0.111953  0.147067  0  4.070485  0
C  C44  1  0.89559635  0.23896083  0.63955791  1  0  0.148736  0  3.807476  0  0  0.151856  0  4.081855  0  0  0.158749  0  4.09852  0  0  0.111941  0.147035  0  4.070453  0
C  C45  1  0.60440366  0.36044432  0.76103879  1  0  0.148831  0  3.807413  0  0  0.15195  0  4.081797  0  0  0.158845  0  4.09846  0  0  0.111976  0.147118  0  4.070413  0
C  C46  1  0.17464636  0.63224259  0.43014790  1  0  -0.088454  0  3.708924  0  0  -0.104994  0  3.94758  0  0  -0.106727  0  3.963774  0  0  -0.077969  -0.103833  0  3.937194  0
C  C47  1  0.32535266  0.56985444  0.36776205  1  0  -0.088457  0  3.708828  0  0  -0.10501  0  3.947503  0  0  -0.106742  0  3.963698  0  0  -0.077979  -0.103832  0  3.937087  0
C  C48  1  0.82535253  0.36776091  0.56985380  1  0  -0.088465  0  3.708849  0  0  -0.104998  0  3.947503  0  0  -0.106729  0  3.963698  0  0  -0.077979  -0.103817  0  3.937079  0
C  C49  1  0.67464724  0.43014595  0.63224109  1  0  -0.088437  0  3.708844  0  0  -0.104981  0  3.947512  0  0  -0.106715  0  3.96371  0  0  -0.077966  -0.103814  0  3.937096  0
S  S50  1  0.91006237  0.84144682  0.43868357  1  0  -0.024661  0  2.438543  0  0  -0.028747  0  2.770855  0  0  -0.033206  0  2.771126  0  0  0.04427  -0.026332  0  2.771612  0
S  S51  1  0.58993686  0.56131119  0.15855764  1  0  -0.024614  0  2.438639  0  0  -0.028684  0  2.770947  0  0  -0.033133  0  2.771226  0  0  0.044307  -0.026286  0  2.771692  0
S  S52  1  0.08993834  0.15855775  0.56131340  1  0  -0.024614  0  2.438604  0  0  -0.028677  0  2.770916  0  0  -0.033129  0  2.771197  0  0  0.044311  -0.026261  0  2.771677  0
S  S53  1  0.41006403  0.43868609  0.84144503  1  0  -0.024655  0  2.438614  0  0  -0.028728  0  2.770905  0  0  -0.033179  0  2.771183  0  0  0.044283  -0.026318  0  2.771659  0
I  I54  1  0.48184744  0.80790804  0.46193393  1  0  -0.333159  0  1.187157  0  0  -0.294909  0  1.522635  0  0  -0.314126  0  1.510023  0  0  -0.165669  -0.28002  0  1.531754  0
I  I55  1  0.01815691  0.53806493  0.19209149  1  0  -0.33318  0  1.187182  0  0  -0.294927  0  1.522658  0  0  -0.314153  0  1.510069  0  0  -0.165686  -0.280037  0  1.531776  0
I  I56  1  0.51815463  0.19209236  0.53806656  1  0  -0.333173  0  1.187168  0  0  -0.294924  0  1.522652  0  0  -0.314142  0  1.510043  0  0  -0.165667  -0.28003  0  1.531773  0
I  I57  1  0.98184295  0.46193547  0.80790783  1  0  -0.333172  0  1.187182  0  0  -0.294921  0  1.522663  0  0  -0.314144  0  1.510069  0  0  -0.165676  -0.280027  0  1.531782  0
N  N58  1  0.80363949  0.97258234  0.22101324  1  0  -0.311312  0  3.201233  0  0  -0.244953  0  3.457204  0  0  -0.263292  0  3.477467  0  0  -0.306343  -0.232272  0  3.443249  0
N  N59  1  0.69635858  0.77898015  0.02742193  1  0  -0.311266  0  3.201318  0  0  -0.244891  0  3.457293  0  0  -0.263226  0  3.477567  0  0  -0.306269  -0.232224  0  3.443324  0
N  N60  1  0.19636438  0.02741913  0.77898157  1  0  -0.311308  0  3.201264  0  0  -0.244912  0  3.457229  0  0  -0.26324  0  3.477485  0  0  -0.306239  -0.232232  0  3.44327  0
N  N61  1  0.30364087  0.22101816  0.97257999  1  0  -0.311273  0  3.201204  0  0  -0.244917  0  3.457165  0  0  -0.263249  0  3.477427  0  0  -0.306306  -0.232249  0  3.443199  0
N  N62  1  0.17664983  0.82276851  0.23880375  1  0  -0.200535  0  3.048396  0  0  -0.179173  0  3.336621  0  0  -0.184898  0  3.351027  0  0  -0.195157  -0.175198  0  3.327152  0
N  N63  1  0.32335155  0.76119564  0.17723427  1  0  -0.200509  0  3.048445  0  0  -0.179139  0  3.336667  0  0  -0.184863  0  3.351072  0  0  -0.195172  -0.175163  0  3.327196  0
N  N64  1  0.82335190  0.17723293  0.76119562  1  0  -0.200485  0  3.048394  0  0  -0.179115  0  3.336624  0  0  -0.184838  0  3.351029  0  0  -0.195152  -0.175141  0  3.327155  0
N  N65  1  0.67665085  0.23880373  0.82276638  1  0  -0.200578  0  3.04837  0  0  -0.179205  0  3.336611  0  0  -0.184929  0  3.351016  0  0  -0.195183  -0.175221  0  3.327137  0
