# generated using pymatgen
data_ZnH24C31NO7
_symmetry_space_group_name_H-M   'P 1'
_cell_length_a   16.01650708
_cell_length_b   18.33756812
_cell_length_c   19.49626452
_cell_angle_alpha   89.92252351
_cell_angle_beta   91.01392740
_cell_angle_gamma   89.23202091
_symmetry_Int_Tables_number   1
_chemical_formula_structural   ZnH24C31NO7
_chemical_formula_sum   'Zn2 H48 C62 N2 O14'
_cell_volume   5724.70866667
_cell_formula_units_Z   2
loop_
 _symmetry_equiv_pos_site_id
 _symmetry_equiv_pos_as_xyz
  1  'x, y, z'
loop_
 _atom_site_type_symbol
 _atom_site_label
 _atom_site_symmetry_multiplicity
 _atom_site_fract_x
 _atom_site_fract_y
 _atom_site_fract_z
 _atom_site_occupancy
 _atom_site_pbe_bader_charge
 _atom_site_pbe_bader_spin_density
 _atom_site_pbe_cm5_charge
 _atom_site_pbe_ddec_charge
 _atom_site_pbe_ddec_spin_density
 _atom_site_pbe_ddec_sum_bond_order
 _atom_site_pbe_magmom
Zn  Zn0  1  0.49608091  0.42244619  0.50196575  1  1.293513  0  0.669801  0.81468  0  2.414787  0
Zn  Zn1  1  0.49731231  0.57649096  0.50427328  1  1.27527  0  0.670588  0.815646  0  2.426768  0
H  H2  1  0.08092630  0.39582947  0.51270283  1  0.054607  0  0.102452  0.111807  0  0.96376  0
H  H3  1  0.40509459  0.68526811  0.42934320  1  0.125801  0  0.127323  0.099182  0  1.012665  0
H  H4  1  0.38935117  0.18044495  0.41466949  1  0.104609  0  0.117346  0.121979  0  0.98326  0
H  H5  1  0.38949327  0.81963569  0.41779637  1  0.082595  0  0.117854  0.122933  0  0.983948  0
H  H6  1  0.58798447  0.15912207  0.56762780  1  0.124286  0  0.118275  0.128926  0  0.999734  0
H  H7  1  0.57501796  0.83786798  0.58164436  1  0.123038  0  0.117907  0.12781  0  1.003462  0
H  H8  1  0.50246164  0.06880297  0.60156855  1  0.075132  0  0.112164  0.113454  0  0.985843  0
H  H9  1  0.49985053  0.93494718  0.60477732  1  0.091368  0  0.112673  0.114193  0  0.987352  0
H  H10  1  0.45134336  0.93038135  0.38633729  1  0.071552  0  0.108874  0.108164  0  0.992709  0
H  H11  1  0.45306352  0.06470420  0.38323889  1  0.076326  0  0.108174  0.107331  0  0.991887  0
H  H12  1  0.93797351  0.40768908  0.53808663  1  0.039506  0  0.104865  0.114006  0  0.95631  0
H  H13  1  0.05872768  0.49909561  0.59241998  1  0.038193  0  0.098279  0.100648  0  0.966976  0
H  H14  1  0.91607390  0.53350754  0.59034146  1  0.06364  0  0.104146  0.112965  0  0.961269  0
H  H15  1  0.93278235  0.60950063  0.53701199  1  0.050913  0  0.10204  0.112919  0  0.982775  0
H  H16  1  0.92053512  0.39316382  0.44983400  1  0.054448  0  0.098265  0.101265  0  0.989118  0
H  H17  1  0.07475786  0.59041309  0.56656102  1  0.095156  0  0.104207  0.118364  0  0.984873  0
H  H18  1  0.06317459  0.41056675  0.42422255  1  -0.005746  0  0.089892  0.08306  0  1.001233  0
H  H19  1  0.46393025  0.59688414  0.15070960  1  0.050449  0  0.095761  0.09723  0  1.018463  0
H  H20  1  0.60331570  0.39575823  0.16892482  1  0.047729  0  0.097848  0.100043  0  1.012372  0
H  H21  1  0.52115941  0.38143197  0.06524555  1  0.050163  0  0.099425  0.098256  0  1.004157  0
H  H22  1  0.57532725  0.61060954  0.06818497  1  0.067481  0  0.10064  0.10048  0  1.000246  0
H  H23  1  0.62785904  0.35847790  0.57282496  1  0.163787  0  0.115293  0.074638  0  1.014317  0
H  H24  1  0.52557752  0.38196007  0.93877852  1  0.064988  0  0.099791  0.097561  0  1.008574  0
H  H25  1  0.59313474  0.63719945  0.60808297  1  0.09896  0  0.115344  0.076045  0  1.011682  0
H  H26  1  0.96973931  0.44952042  0.34250002  1  0.043858  0  0.105856  0.040677  0  0.971311  0
H  H27  1  0.83422770  0.60874661  0.37853354  1  0.119713  0  0.124307  0.072069  0  0.953908  0
H  H28  1  0.15051385  0.50968384  0.36228613  1  0.075498  0  0.112819  0.060869  0  0.972952  0
H  H29  1  0.05293777  0.66918876  0.37796291  1  0.099528  0  0.1114  0.051308  0  0.9665  0
H  H30  1  0.29116608  0.66982699  0.36879763  1  0.006137  0  0.080885  0.107083  0  1.026965  0
H  H31  1  0.28301512  0.70099313  0.28227208  1  0.028588  0  0.080519  0.103165  0  1.009582  0
H  H32  1  0.21059373  0.63778961  0.31388497  1  0.013969  0  0.08009  0.107413  0  1.031494  0
H  H33  1  0.30887721  0.56704807  0.24455986  1  -0.000826  0  0.086636  0.076413  0  0.974356  0
H  H34  1  0.33353501  0.54633649  0.33108186  1  0.016391  0  0.085137  0.079049  0  0.989541  0
H  H35  1  0.58141406  0.61111624  0.94159169  1  0.041528  0  0.100925  0.098931  0  1.003603  0
H  H36  1  0.45073242  0.63568665  0.32937800  1  0.03914  0  0.087454  0.091388  0  1.033132  0
H  H37  1  0.42229025  0.66038547  0.24421032  1  -0.000478  0  0.086369  0.081035  0  0.989978  0
H  H38  1  0.69554918  0.32253765  0.41400479  1  0.046242  0  0.076213  0.104742  0  1.024935  0
H  H39  1  0.72721292  0.27999151  0.33633866  1  -0.026555  0  0.07597  0.096077  0  1.014407  0
H  H40  1  0.79375400  0.34314632  0.37853830  1  -0.001246  0  0.07669  0.099049  0  1.027618  0
H  H41  1  0.72395289  0.40579547  0.27900861  1  0.038438  0  0.084345  0.076758  0  0.983537  0
H  H42  1  0.68783366  0.44366868  0.35584458  1  0.044559  0  0.084925  0.083299  0  0.994249  0
H  H43  1  0.56099833  0.36343797  0.34864402  1  0.065165  0  0.086583  0.09446  0  1.033637  0
H  H44  1  0.59741043  0.32768009  0.27020302  1  0.01117  0  0.084026  0.077942  0  0.989846  0
H  H45  1  0.49194527  0.60621736  0.84969241  1  0.040568  0  0.100309  0.098691  0  1.007343  0
H  H46  1  0.59945860  0.38972230  0.84107728  1  0.066565  0  0.101577  0.101014  0  1.002802  0
H  H47  1  0.47164628  0.60507702  0.72292371  1  0.087001  0  0.103912  0.107584  0  0.998119  0
H  H48  1  0.57510388  0.38808962  0.71498778  1  0.097809  0  0.102591  0.107451  0  1.008429  0
H  H49  1  0.40681593  0.31514431  0.42271986  1  0.15543  0  0.132858  0.111587  0  0.965599  0
C  C50  1  0.50569722  0.49509161  0.63558560  1  1.540953  0  0.215752  0.596372  0  4.161574  0
C  C51  1  0.56723114  0.43986809  0.19230520  1  -0.047816  0  -0.097855  -0.204142  0  3.971742  0
C  C52  1  0.53604614  0.49672929  0.15095566  1  -0.059423  0  -0.01113  0.081261  0  4.058889  0
C  C53  1  0.51148879  0.49688355  0.29401068  1  -0.107956  0  -0.017246  -0.145599  0  3.860661  0
C  C54  1  0.53575801  0.43169674  0.03822160  1  -0.050375  0  -0.093134  -0.128717  0  4.00081  0
C  C55  1  0.56353184  0.56049218  0.03968673  1  -0.044127  0  -0.093005  -0.129563  0  3.999193  0
C  C56  1  0.65973552  0.50177345  0.49875346  1  1.687383  0  0.223557  0.667725  0  4.236664  0
C  C57  1  0.53847932  0.43201876  0.96696570  1  -0.036834  0  -0.093191  -0.127596  0  4.005158  0
C  C58  1  0.56680680  0.56072873  0.96842284  1  0.011771  0  -0.092398  -0.127188  0  4.003132  0
C  C59  1  0.55242079  0.49678986  0.93044465  1  -0.107176  0  -0.011878  0.057158  0  4.015427  0
C  C60  1  0.54631111  0.49625441  0.07594078  1  -0.038954  0  -0.007727  0.07156  0  4.00229  0
C  C61  1  0.04321552  0.55542527  0.42171413  1  -0.050234  0  -0.008935  -0.077213  0  3.682146  0
C  C62  1  0.51189314  0.55877762  0.82019039  1  0.010751  0  -0.091412  -0.136056  0  3.98713  0
C  C63  1  0.57007464  0.43671462  0.81563155  1  -0.023134  0  -0.092532  -0.138374  0  3.989552  0
C  C64  1  0.49965939  0.55821517  0.74945376  1  -0.058896  0  -0.084287  -0.083032  0  3.990943  0
C  C65  1  0.55707340  0.43568578  0.74496022  1  -0.065478  0  -0.084797  -0.084137  0  3.986653  0
C  C66  1  0.52091317  0.49621346  0.71118941  1  -0.007441  0  -0.02343  -0.045874  0  3.984376  0
C  C67  1  0.54634773  0.49774537  0.85484840  1  -0.020587  0  -0.002559  0.079444  0  3.999589  0
C  C68  1  0.44540943  0.27793387  0.45385993  1  0.429875  0  0.06494  0.111968  0  3.911588  0
C  C69  1  0.44191831  0.72169210  0.46157962  1  0.436593  0  0.064434  0.113658  0  3.909176  0
C  C70  1  0.43643986  0.20264542  0.44955028  1  0.003378  0  -0.069221  -0.160897  0  3.9172  0
C  C71  1  0.43394784  0.79704870  0.45534624  1  0.041957  0  -0.067839  -0.157961  0  3.913258  0
C  C72  1  0.94641519  0.54466353  0.41326831  1  -0.026038  0  -0.004868  -0.082431  0  3.695358  0
C  C73  1  0.48617631  0.15668286  0.49154500  1  0.006281  0  0.020467  0.117157  0  3.990742  0
C  C74  1  0.48135533  0.84231701  0.49859160  1  -0.007524  0  0.020543  0.116068  0  3.992028  0
C  C75  1  0.50082511  0.49846476  0.37042572  1  1.567103  0  0.220982  0.616482  0  4.13477  0
C  C76  1  0.54481445  0.19034100  0.53483925  1  -0.023428  0  -0.064279  -0.179906  0  3.884833  0
C  C77  1  0.53471776  0.80765324  0.54652704  1  -0.085833  0  -0.065095  -0.179901  0  3.884834  0
C  C78  1  0.55114382  0.26586854  0.53597541  1  0.449196  0  0.119949  0.175368  0  3.941997  0
C  C79  1  0.53903981  0.73198020  0.55039065  1  0.500723  0  0.121425  0.178839  0  3.934323  0
C  C80  1  0.49210986  0.03862704  0.55409222  1  -0.03227  0  -0.079218  -0.112977  0  3.973977  0
C  C81  1  0.49072557  0.96307514  0.55587346  1  -0.113362  0  -0.078719  -0.112398  0  3.971891  0
C  C82  1  0.47677670  0.92261235  0.49564937  1  0.051344  0  -0.002506  0.062658  0  3.994423  0
C  C83  1  0.16939085  0.50964338  0.48666025  1  -0.425783  0  -0.033682  -0.060999  0  4.070631  0
C  C84  1  0.47912269  0.07661376  0.49203917  1  -0.000432  0  -0.004022  0.060012  0  4.000756  0
C  C85  1  0.46121287  0.96052697  0.43392844  1  -0.026565  0  -0.08125  -0.117441  0  3.973038  0
C  C86  1  0.46219844  0.03647478  0.43215433  1  -0.027999  0  -0.0812  -0.117457  0  3.976394  0
C  C87  1  0.33518967  0.50270591  0.49724140  1  1.712065  0  0.219216  0.67273  0  4.235098  0
C  C88  1  0.95225842  0.42886104  0.48690375  1  -0.01357  0  -0.153125  -0.199696  0  3.863799  0
C  C89  1  0.94877152  0.55160546  0.54441202  1  -0.043359  0  -0.153542  -0.201597  0  3.853985  0
C  C90  1  0.04363025  0.53974698  0.55243693  1  -0.026741  0  -0.153472  -0.186276  0  3.841338  0
C  C91  1  0.04708657  0.43081418  0.47557134  1  -0.014806  0  -0.154626  -0.199635  0  3.877082  0
C  C92  1  0.24500597  0.50510302  0.49149653  1  0.030659  0  -0.051572  -0.19396  0  3.972215  0
C  C93  1  0.91487481  0.50718993  0.48254626  1  0.128677  0  0.018126  0.157574  0  3.835825  0
C  C94  1  0.82440847  0.50569046  0.48431808  1  -0.504207  0  -0.032226  -0.065839  0  4.053072  0
C  C95  1  0.07872010  0.51011257  0.48397767  1  0.179099  0  0.00478  0.142145  0  3.873727  0
C  C96  1  0.61700474  0.29975544  0.58106359  1  0.923199  0  0.109098  0.247323  0  3.89161  0
C  C97  1  0.59449600  0.69731687  0.60466189  1  0.982818  0  0.110671  0.249396  0  3.882169  0
C  C98  1  0.92240580  0.49250719  0.35451139  1  0.990887  0  0.106726  0.279573  0  3.915251  0
C  C99  1  0.89568682  0.61499115  0.40476359  1  0.950636  0  0.121556  0.292682  0  3.86185  0
C  C100  1  0.08755850  0.53549210  0.35556931  1  0.933609  0  0.100658  0.247681  0  3.929057  0
C  C101  1  0.06762408  0.63880591  0.42604519  1  0.990246  0  0.110847  0.284858  0  3.878401  0
C  C102  1  0.42376230  0.61492370  0.28123248  1  -0.014956  0  -0.166959  -0.203794  0  3.958178  0
C  C103  1  0.33345608  0.59051368  0.29271894  1  0.025433  0  -0.165927  -0.08659  0  3.946703  0
C  C104  1  0.27665408  0.65312017  0.31582085  1  -0.057087  0  -0.24783  -0.351515  0  3.974438  0
C  C105  1  0.74929830  0.50296995  0.49086462  1  0.196102  0  -0.038869  -0.17107  0  3.953946  0
C  C106  1  0.59695222  0.37658032  0.30306025  1  -0.034835  0  -0.168892  -0.205497  0  3.959155  0
C  C107  1  0.68732944  0.39367641  0.32479375  1  -0.009766  0  -0.168896  -0.086059  0  3.941886  0
C  C108  1  0.72822964  0.33131424  0.36559538  1  -0.043714  0  -0.249879  -0.345394  0  3.992669  0
C  C109  1  0.47855184  0.55469355  0.25307359  1  0.030501  0  -0.0038  0.121093  0  3.948087  0
C  C110  1  0.55568416  0.43842510  0.26323391  1  0.022885  0  -0.000837  0.124193  0  3.935547  0
C  C111  1  0.49155476  0.55344412  0.18247668  1  0.026244  0  -0.099623  -0.208837  0  3.97911  0
N  N112  1  0.50125492  0.30945439  0.49640106  1  -1.223025  0  -0.306109  -0.228643  0  3.468687  0
N  N113  1  0.49343736  0.68919464  0.50789118  1  -1.20355  0  -0.306888  -0.226205  0  3.465194  0
O  O114  1  0.51758280  0.43462203  0.60443157  1  -1.171601  0  -0.317911  -0.554983  0  2.359839  0
O  O115  1  0.63717968  0.73442608  0.64344251  1  -1.058224  0  -0.260254  -0.340887  0  2.083736  0
O  O116  1  0.85474046  0.49422379  0.32529014  1  -1.072729  0  -0.230992  -0.31917  0  2.171716  0
O  O117  1  0.91923955  0.67380321  0.42655847  1  -1.062664  0  -0.228775  -0.317976  0  2.162346  0
O  O118  1  0.05935706  0.55256446  0.29896458  1  -1.07574  0  -0.25139  -0.338486  0  2.132959  0
O  O119  1  0.10833550  0.66446618  0.47288717  1  -1.073745  0  -0.238364  -0.315059  0  2.162577  0
O  O120  1  0.48252737  0.55458289  0.60652875  1  -1.167253  0  -0.318637  -0.557047  0  2.345844  0
O  O121  1  0.62369669  0.44172271  0.48612602  1  -1.153447  0  -0.299164  -0.539344  0  2.301872  0
O  O122  1  0.62536865  0.56115632  0.51774434  1  -1.142547  0  -0.308298  -0.542035  0  2.289061  0
O  O123  1  0.47501527  0.44073839  0.39955233  1  -1.175854  0  -0.318979  -0.559558  0  2.351448  0
O  O124  1  0.51918397  0.55727741  0.40174423  1  -1.157613  0  -0.313179  -0.544573  0  2.319755  0
O  O125  1  0.36891222  0.44185628  0.51391051  1  -1.14229  0  -0.317535  -0.544152  0  2.242143  0
O  O126  1  0.37196140  0.56242246  0.48473433  1  -1.151201  0  -0.309414  -0.539256  0  2.276515  0
O  O127  1  0.65691321  0.26351791  0.62337258  1  -1.064137  0  -0.261967  -0.34363  0  2.0834  0
