# generated using pymatgen
data_CuH8C9IN2
_symmetry_space_group_name_H-M   'P 1'
_cell_length_a   4.12684303
_cell_length_b   9.85857471
_cell_length_c   11.64484218
_cell_angle_alpha   89.99942236
_cell_angle_beta   101.89187265
_cell_angle_gamma   90.00062849
_symmetry_Int_Tables_number   1
_chemical_formula_structural   CuH8C9IN2
_chemical_formula_sum   'Cu2 H16 C18 I2 N4'
_cell_volume   463.60006081
_cell_formula_units_Z   2
loop_
 _symmetry_equiv_pos_site_id
 _symmetry_equiv_pos_as_xyz
  1  'x, y, z'
loop_
 _atom_site_type_symbol
 _atom_site_label
 _atom_site_symmetry_multiplicity
 _atom_site_fract_x
 _atom_site_fract_y
 _atom_site_fract_z
 _atom_site_occupancy
 _atom_site_hle17_bader_spin_density
 _atom_site_hle17_ddec_charge
 _atom_site_hle17_ddec_spin_density
 _atom_site_hle17_ddec_sum_bond_order
 _atom_site_hle17_magmom
 _atom_site_hse06_10hf_bader_spin_density
 _atom_site_hse06_10hf_ddec_charge
 _atom_site_hse06_10hf_ddec_spin_density
 _atom_site_hse06_10hf_ddec_sum_bond_order
 _atom_site_hse06_10hf_magmom
 _atom_site_hse06_bader_spin_density
 _atom_site_hse06_ddec_charge
 _atom_site_hse06_ddec_spin_density
 _atom_site_hse06_ddec_sum_bond_order
 _atom_site_hse06_magmom
 _atom_site_pbe_bader_spin_density
 _atom_site_pbe_cm5_charge
 _atom_site_pbe_ddec_charge
 _atom_site_pbe_ddec_spin_density
 _atom_site_pbe_ddec_sum_bond_order
 _atom_site_pbe_magmom
Cu  Cu0  1  0.50327653  0.60316990  0.78615605  1  0  0.344979  0  1.944073  0  0  0.249947  0  2.412035  0  0  0.268173  0  2.358203  0  0  0.30161  0.237387  0  2.449893  0
Cu  Cu1  1  0.49671877  0.10316794  0.21384311  1  0  0.344937  0  1.944025  0  0  0.249909  0  2.41203  0  0  0.268165  0  2.35823  0  0  0.301585  0.237341  0  2.449886  0
H  H2  1  0.16575133  0.37292537  0.02048284  1  0  0.307916  0  0.936274  0  0  0.293919  0  0.999029  0  0  0.300272  0  0.995133  0  0  0.276498  0.289367  0  1.002013  0
H  H3  1  0.83424999  0.87292251  0.97951530  1  0  0.307864  0  0.936243  0  0  0.293899  0  0.998986  0  0  0.300253  0  0.995094  0  0  0.276484  0.289349  0  1.001972  0
H  H4  1  0.22670960  0.51805664  0.94270387  1  0  0.294131  0  0.946867  0  0  0.276038  0  1.023282  0  0  0.284304  0  1.014832  0  0  0.27753  0.270592  0  1.028454  0
H  H5  1  0.77329125  0.01805274  0.05729635  1  0  0.294172  0  0.946671  0  0  0.276042  0  1.023109  0  0  0.284309  0  1.014661  0  0  0.277516  0.270597  0  1.028281  0
H  H6  1  0.27885819  0.15184856  0.95894246  1  0  0.10069  0  0.973567  0  0  0.107937  0  1.043311  0  0  0.11302  0  1.039467  0  0  0.092375  0.103827  0  1.04708  0
H  H7  1  0.72114553  0.65184413  0.04105596  1  0  0.100732  0  0.973454  0  0  0.107947  0  1.043234  0  0  0.11303  0  1.039397  0  0  0.092392  0.103846  0  1.046977  0
H  H8  1  0.45917741  0.00966604  0.80644523  1  0  0.093338  0  0.964634  0  0  0.104084  0  1.0286  0  0  0.10671  0  1.026611  0  0  0.091356  0.101487  0  1.031472  0
H  H9  1  0.54081830  0.50966100  0.19355474  1  0  0.093361  0  0.964494  0  0  0.104112  0  1.028473  0  0  0.106741  0  1.026481  0  0  0.091362  0.101507  0  1.03135  0
H  H10  1  0.67755071  0.99861181  0.62180659  1  0  0.085807  0  0.974447  0  0  0.094627  0  1.04306  0  0  0.097064  0  1.042417  0  0  0.090362  0.092849  0  1.043541  0
H  H11  1  0.32244388  0.49860912  0.37819439  1  0  0.085791  0  0.974435  0  0  0.094619  0  1.043042  0  0  0.097056  0  1.042398  0  0  0.090346  0.09284  0  1.043518  0
H  H12  1  0.86514602  0.11781855  0.45780561  1  0  0.080907  0  0.977871  0  0  0.090532  0  1.046671  0  0  0.093925  0  1.044348  0  0  0.088594  0.088029  0  1.048836  0
H  H13  1  0.13485719  0.61781765  0.54219563  1  0  0.080837  0  0.97795  0  0  0.090454  0  1.046771  0  0  0.093845  0  1.044448  0  0  0.088561  0.08795  0  1.048938  0
H  H14  1  0.87546891  0.36962173  0.45311996  1  0  0.084004  0  0.964499  0  0  0.094665  0  1.027485  0  0  0.096948  0  1.026916  0  0  0.091076  0.093272  0  1.027536  0
H  H15  1  0.12453514  0.86962073  0.54688182  1  0  0.083998  0  0.964495  0  0  0.094649  0  1.027486  0  0  0.09692  0  1.026932  0  0  0.091092  0.093258  0  1.027539  0
H  H16  1  0.70301113  0.50391364  0.61121542  1  0  0.083697  0  0.999362  0  0  0.091894  0  1.073908  0  0  0.095868  0  1.07033  0  0  0.087164  0.088695  0  1.077212  0
H  H17  1  0.29699429  0.00391173  0.38878433  1  0  0.083601  0  0.999512  0  0  0.091821  0  1.074037  0  0  0.095795  0  1.07046  0  0  0.087134  0.088621  0  1.077339  0
C  C18  1  0.37992450  0.34183921  0.87849188  1  0  0.489881  0  3.819304  0  0  0.46123  0  4.075044  0  0  0.483381  0  4.086992  0  0  0.223521  0.446358  0  4.066347  0
C  C19  1  0.62008555  0.84183640  0.12150191  1  0  0.490076  0  3.819134  0  0  0.461232  0  4.075076  0  0  0.483408  0  4.087018  0  0  0.223528  0.446353  0  4.066393  0
C  C20  1  0.37194039  0.19742678  0.88670948  1  0  -0.228327  0  3.72895  0  0  -0.239331  0  3.979641  0  0  -0.251385  0  3.998648  0  0  -0.104349  -0.231397  0  3.967659  0
C  C21  1  0.62804581  0.69741701  0.11330122  1  0  -0.228309  0  3.729635  0  0  -0.239224  0  3.980345  0  0  -0.251267  0  3.999319  0  0  -0.104238  -0.231288  0  3.968364  0
C  C22  1  0.47069700  0.12012627  0.80276808  1  0  -0.02693  0  3.732067  0  0  -0.052162  0  3.97805  0  0  -0.044026  0  3.993475  0  0  -0.075593  -0.057706  0  3.969217  0
C  C23  1  0.52931257  0.62013026  0.19722151  1  0  -0.027039  0  3.732683  0  0  -0.052281  0  3.978619  0  0  -0.044144  0  3.994046  0  0  -0.075709  -0.057815  0  3.969778  0
C  C24  1  0.58298138  0.18343644  0.70858299  1  0  -0.003859  0  3.805873  0  0  0.015854  0  4.029734  0  0  0.009089  0  4.055623  0  0  -0.016328  0.020046  0  4.012259  0
C  C25  1  0.41701130  0.68342967  0.29142136  1  0  -0.0038  0  3.805584  0  0  0.015915  0  4.029479  0  0  0.009142  0  4.055369  0  0  -0.016312  0.020103  0  4.012003  0
C  C26  1  0.68337817  0.10920336  0.61817010  1  0  -0.09312  0  3.741117  0  0  -0.110825  0  3.98469  0  0  -0.111233  0  4.007031  0  0  -0.089719  -0.109824  0  3.969525  0
C  C27  1  0.31662453  0.60920215  0.38182775  1  0  -0.093177  0  3.741325  0  0  -0.110878  0  3.984886  0  0  -0.111284  0  4.007231  0  0  -0.089707  -0.10987  0  3.969711  0
C  C28  1  0.78673060  0.17523802  0.52739633  1  0  -0.089691  0  3.791383  0  0  -0.104781  0  4.0444  0  0  -0.109435  0  4.066918  0  0  -0.103832  -0.102305  0  4.030054  0
C  C29  1  0.21326916  0.67523323  0.47260681  1  0  -0.089639  0  3.791111  0  0  -0.104739  0  4.044124  0  0  -0.109388  0  4.066639  0  0  -0.103802  -0.10226  0  4.029779  0
C  C30  1  0.79332262  0.31812077  0.52492749  1  0  -0.039587  0  3.765454  0  0  -0.053119  0  4.013296  0  0  -0.052129  0  4.034778  0  0  -0.090004  -0.053745  0  3.99928  0
C  C31  1  0.20668484  0.81812201  0.47507063  1  0  -0.039482  0  3.765595  0  0  -0.052995  0  4.013429  0  0  -0.052003  0  4.034917  0  0  -0.089972  -0.053623  0  3.999415  0
C  C32  1  0.69772620  0.39319884  0.61267460  1  0  -0.160413  0  3.73042  0  0  -0.179043  0  3.980115  0  0  -0.184871  0  3.999989  0  0  -0.101781  -0.175233  0  3.967602  0
C  C33  1  0.30227110  0.89319445  0.38732828  1  0  -0.160536  0  3.730686  0  0  -0.179169  0  3.980384  0  0  -0.184995  0  4.000251  0  0  -0.101877  -0.175355  0  3.967868  0
C  C34  1  0.58947367  0.32811865  0.70594044  1  0  0.221467  0  3.766512  0  0  0.218863  0  3.995247  0  0  0.227039  0  4.018567  0  0  0.101047  0.213687  0  3.979313  0
C  C35  1  0.41052914  0.82811891  0.29405818  1  0  0.221638  0  3.766262  0  0  0.218968  0  3.995051  0  0  0.227167  0  4.018383  0  0  0.101099  0.213792  0  3.979118  0
I  I36  1  0.00241132  0.75405056  0.79217693  1  0  -0.432148  0  1.642901  0  0  -0.362446  0  2.099772  0  0  -0.381718  0  2.053745  0  0  -0.165015  -0.347271  0  2.134229  0
I  I37  1  0.99758722  0.25405098  0.20782032  1  0  -0.432135  0  1.642876  0  0  -0.362461  0  2.099784  0  0  -0.381749  0  2.053777  0  0  -0.165028  -0.347286  0  2.134235  0
N  N38  1  0.48924436  0.40501848  0.79141124  1  0  -0.451075  0  3.301987  0  0  -0.374632  0  3.591711  0  0  -0.396648  0  3.598555  0  0  -0.38676  -0.359815  0  3.586604  0
N  N39  1  0.51075096  0.90501515  0.20859400  1  0  -0.451293  0  3.30182  0  0  -0.374703  0  3.59156  0  0  -0.396781  0  3.598468  0  0  -0.386782  -0.359878  0  3.58645  0
N  N40  1  0.28252127  0.41882020  0.96184763  1  0  -0.66164  0  3.150746  0  0  -0.623214  0  3.377176  0  0  -0.644315  0  3.374289  0  0  -0.587742  -0.608271  0  3.378494  0
N  N41  1  0.71747189  0.91881579  0.03815737  1  0  -0.661624  0  3.151012  0  0  -0.623151  0  3.37756  0  0  -0.644252  0  3.374664  0  0  -0.587682  -0.608211  0  3.378886  0
