# generated using pymatgen
data_Zn2H25C32S2Br(N7O4)2
_symmetry_space_group_name_H-M   'P 1'
_cell_length_a   12.81572182
_cell_length_b   16.13763364
_cell_length_c   17.31285818
_cell_angle_alpha   95.31389312
_cell_angle_beta   90.30296797
_cell_angle_gamma   92.94483644
_symmetry_Int_Tables_number   1
_chemical_formula_structural   Zn2H25C32S2Br(N7O4)2
_chemical_formula_sum   'Zn2 H25 C32 S2 Br1 N14 O8'
_cell_volume   3560.28814442
_cell_formula_units_Z   1
loop_
 _symmetry_equiv_pos_site_id
 _symmetry_equiv_pos_as_xyz
  1  'x, y, z'
loop_
 _atom_site_type_symbol
 _atom_site_label
 _atom_site_symmetry_multiplicity
 _atom_site_fract_x
 _atom_site_fract_y
 _atom_site_fract_z
 _atom_site_occupancy
 _atom_site_pbe_bader_charge
 _atom_site_pbe_bader_spin_density
 _atom_site_pbe_cm5_charge
 _atom_site_pbe_ddec_charge
 _atom_site_pbe_ddec_spin_density
 _atom_site_pbe_ddec_sum_bond_order
 _atom_site_pbe_magmom
Zn  Zn0  1  0.49589157  0.40706999  0.49651069  1  1.288005  0  0.676627  0.849406  0  2.347469  0
Zn  Zn1  1  0.50053651  0.59004497  0.49968901  1  1.291544  0  0.674286  0.836985  0  2.373732  0
H  H2  1  0.39990406  0.71632259  0.42365083  1  0.113031  0  0.122833  0.103922  0  0.97838  0
H  H3  1  0.39339286  0.87277459  0.43038324  1  0.090001  0  0.110726  0.124013  0  1.014238  0
H  H4  1  0.35243991  0.10687353  0.40733559  1  0.091466  0  0.107608  0.132151  0  1.005302  0
H  H5  1  0.60762325  0.11942350  0.57165945  1  0.058419  0  0.098097  0.117844  0  1.043894  0
H  H6  1  0.50327996  0.61776977  0.26087367  1  0.094715  0  0.099179  0.109057  0  1.007725  0
H  H7  1  0.50811777  0.61594784  0.11564097  1  0.069383  0  0.099051  0.105517  0  1.027756  0
H  H8  1  0.52070167  0.65828922  0.89804693  1  0.090579  0  0.097897  0.112611  0  1.019082  0
H  H9  1  0.49509504  0.39158820  0.88964237  1  0.018219  0  0.091779  0.101673  0  1.05178  0
H  H10  1  0.86748372  0.63252508  0.49959348  1  0.1169  0  0.116444  0.141617  0  0.979066  0
H  H11  1  0.65883672  0.66261082  0.58462928  1  0.499144  0  0.30375  0.318143  0  0.973322  0
H  H12  1  0.66199822  0.74340254  0.65541821  1  0.444482  0  0.308148  0.302627  0  0.945092  0
H  H13  1  0.66035060  0.95840279  0.61105576  1  0.46636  0  0.307978  0.296758  0  0.961963  0
H  H14  1  0.72255119  0.86843135  0.62461317  1  0.452364  0  0.310787  0.300386  0  0.946586  0
H  H15  1  0.34011476  0.33198232  0.41801122  1  0.528444  0  0.30032  0.319289  0  0.987571  0
H  H16  1  0.29620854  0.23704930  0.37317280  1  0.453424  0  0.315826  0.313921  0  0.92112  0
H  H17  1  0.65143602  0.34291188  0.56689012  1  0.535209  0  0.298393  0.316859  0  1.000486  0
H  H18  1  0.68435884  0.25444843  0.60838501  1  0.441209  0  0.317702  0.315272  0  0.920468  0
H  H19  1  0.50520527  0.33464605  0.30454350  1  0.496418  0  0.290653  0.305097  0  0.999072  0
H  H20  1  0.53463331  0.28561398  0.21491730  1  0.425814  0  0.299551  0.288082  0  0.961073  0
H  H21  1  0.48837525  0.33641534  0.03182018  1  0.469883  0  0.295204  0.281553  0  0.989109  0
H  H22  1  0.44972171  0.28484341  0.10938904  1  0.429418  0  0.299254  0.286251  0  0.958068  0
H  H23  1  0.49805386  0.66373687  0.69093337  1  0.488772  0  0.290683  0.299717  0  1.012621  0
H  H24  1  0.49697903  0.71926897  0.78196595  1  0.424428  0  0.302837  0.296599  0  0.945041  0
H  H25  1  0.48477343  0.35772653  0.68062349  1  0.499512  0  0.293313  0.309863  0  1.013497  0
H  H26  1  0.47848939  0.31358555  0.77019776  1  0.431646  0  0.307365  0.30325  0  0.941817  0
C  C27  1  0.50198768  0.49110397  0.34742095  1  1.472355  0  0.213996  0.607037  0  4.137124  0
C  C28  1  0.29287039  0.49832107  0.49553989  1  1.622735  0  0.210683  0.618781  0  4.197951  0
C  C29  1  0.49661417  0.50929854  0.65130698  1  1.501519  0  0.208376  0.611118  0  4.130258  0
C  C30  1  0.70599226  0.50203064  0.50481659  1  1.586186  0  0.213277  0.607065  0  4.207899  0
C  C31  1  0.45078767  0.75757847  0.46241194  1  0.401247  0  0.026308  0.075075  0  4.002254  0
C  C32  1  0.44703548  0.84274627  0.46640029  1  0.037019  0  -0.099709  -0.218042  0  4.031973  0
C  C33  1  0.51634598  0.89219103  0.51761377  1  0.443874  0  0.083764  0.092611  0  4.056957  0
C  C34  1  0.58576032  0.85279498  0.56398430  1  0.530353  0  0.115393  0.127324  0  4.015033  0
C  C35  1  0.58400757  0.76352359  0.55631319  1  0.960394  0  0.228207  0.353012  0  4.025444  0
C  C36  1  0.41105206  0.14321666  0.44361930  1  0.05783  0  -0.114897  -0.351233  0  3.92294  0
C  C37  1  0.47847338  0.10319131  0.48960598  1  0.320486  0  0.085923  0.236191  0  4.140896  0
C  C38  1  0.55337624  0.14980473  0.53643908  1  0.020566  0  -0.135634  -0.388222  0  3.976336  0
C  C39  1  0.55842328  0.23674160  0.53597076  1  0.948944  0  0.222298  0.480243  0  4.093201  0
C  C40  1  0.41907736  0.23078060  0.44627587  1  0.904775  0  0.225178  0.475711  0  4.087307  0
C  C41  1  0.50063376  0.48461148  0.26126920  1  0.050069  0  -0.034597  -0.152062  0  3.957881  0
C  C42  1  0.50280363  0.55935994  0.22393523  1  -0.033982  0  -0.103796  -0.101211  0  4.066832  0
C  C43  1  0.50557515  0.55878023  0.14447114  1  -0.000946  0  -0.110618  -0.179011  0  4.057646  0
C  C44  1  0.50307849  0.48171508  0.09815090  1  0.428575  0  0.076013  0.080481  0  4.058811  0
C  C45  1  0.49910149  0.40619573  0.13342257  1  0.458474  0  0.098132  0.143033  0  4.002898  0
C  C46  1  0.49996619  0.40710209  0.21590820  1  0.396893  0  0.097545  0.201265  0  4.032309  0
C  C47  1  0.51323693  0.59835497  0.86327004  1  0.042511  0  -0.123732  -0.318794  0  3.965015  0
C  C48  1  0.50668890  0.52560017  0.90128841  1  0.303167  0  0.078256  0.216238  0  4.142122  0
C  C49  1  0.49879152  0.44763640  0.85905316  1  0.000911  0  -0.136753  -0.341633  0  3.993438  0
C  C50  1  0.49692811  0.44095944  0.77771122  1  0.443984  0  0.107691  0.342079  0  4.095169  0
C  C51  1  0.50211467  0.51510896  0.73671915  1  -0.027534  0  -0.048184  -0.288078  0  3.835613  0
C  C52  1  0.51079309  0.59437122  0.78200616  1  0.377392  0  0.099123  0.324874  0  4.07406  0
C  C53  1  0.10438734  0.43034859  0.50346878  1  -0.07291  0  -0.029132  0.051405  0  4.011981  0
C  C54  1  0.89180681  0.56922419  0.50197649  1  -0.020153  0  -0.09154  -0.135127  0  3.965307  0
C  C55  1  0.17758267  0.49613348  0.49904467  1  -0.135107  0  -0.02839  -0.163023  0  3.939957  0
C  C56  1  0.82096257  0.50205707  0.50506236  1  -0.161298  0  -0.02497  -0.111909  0  3.973224  0
C  C57  1  0.99554171  0.54326844  0.50168152  1  -0.091288  0  -0.023693  2.5e-05  0  4.072463  0
C  C58  1  0.00095395  0.45666365  0.50475996  1  -0.135534  0  -0.033966  -0.071697  0  4.10802  0
S  S59  1  0.11868002  0.59105324  0.49776135  1  0.276619  0  0.08193  0.129121  0  2.748334  0
S  S60  1  0.87926222  0.40719234  0.50759417  1  0.26462  0  0.06834  0.108802  0  2.81606  0
Br  Br61  1  0.13078689  0.31748216  0.51024644  1  -0.021592  0  0.032788  -0.033111  0  1.440035  0
N  N62  1  0.51737733  0.71842503  0.50710705  1  -1.242306  0  -0.333767  -0.305015  0  3.48478  0
N  N63  1  0.52773547  0.97923318  0.52410530  1  -0.585079  0  -0.150244  -0.121808  0  3.320845  0
N  N64  1  0.46368455  0.01515999  0.48382676  1  -0.451586  0  -0.147957  -0.132452  0  3.224485  0
N  N65  1  0.49131614  0.27720891  0.49220295  1  -1.224122  0  -0.343177  -0.430053  0  3.302318  0
N  N66  1  0.50070368  0.47189967  0.01719773  1  -0.606728  0  -0.158237  -0.126333  0  3.356887  0
N  N67  1  0.51015418  0.53848012  0.98332311  1  -0.457526  0  -0.158329  -0.145377  0  3.244659  0
N  N68  1  0.65702153  0.72564870  0.59743647  1  -1.232289  0  -0.588636  -0.632705  0  3.296734  0
N  N69  1  0.65450220  0.89598609  0.61569102  1  -1.233308  0  -0.582328  -0.575369  0  3.348318  0
N  N70  1  0.35549063  0.27139308  0.40116608  1  -1.280349  0  -0.580203  -0.628462  0  3.332258  0
N  N71  1  0.62946471  0.28456443  0.58147587  1  -1.286013  0  -0.584347  -0.634981  0  3.317721  0
N  N72  1  0.49544171  0.33060726  0.24573151  1  -1.25042  0  -0.605324  -0.614234  0  3.343307  0
N  N73  1  0.49819982  0.32985638  0.08937315  1  -1.235676  0  -0.600654  -0.602906  0  3.337747  0
N  N74  1  0.51930741  0.66876177  0.74812239  1  -1.248626  0  -0.605826  -0.63244  0  3.329345  0
N  N75  1  0.49161784  0.36315268  0.73941057  1  -1.245509  0  -0.601192  -0.625167  0  3.380057  0
O  O76  1  0.50877631  0.42383739  0.38138815  1  -1.173759  0  -0.318681  -0.557925  0  2.370452  0
O  O77  1  0.49685294  0.56337313  0.38350032  1  -1.170126  0  -0.318095  -0.542912  0  2.341682  0
O  O78  1  0.33882018  0.57044444  0.50174207  1  -1.156273  0  -0.3145  -0.536039  0  2.307393  0
O  O79  1  0.33645434  0.42873931  0.48646745  1  -1.171188  0  -0.316475  -0.560651  0  2.381983  0
O  O80  1  0.50308904  0.57670556  0.61662523  1  -1.183322  0  -0.321567  -0.565196  0  2.391189  0
O  O81  1  0.48548302  0.43709698  0.61298664  1  -1.175578  0  -0.318691  -0.551981  0  2.385779  0
O  O82  1  0.65750354  0.43105424  0.50759552  1  -1.180585  0  -0.314522  -0.556438  0  2.379368  0
O  O83  1  0.66380835  0.57113612  0.50133916  1  -1.169576  0  -0.307145  -0.538362  0  2.318602  0
