# generated using pymatgen
data_KH11C10(OF4)3
_symmetry_space_group_name_H-M   'P 1'
_cell_length_a   8.00385990
_cell_length_b   13.78911883
_cell_length_c   14.49041921
_cell_angle_alpha   89.99995942
_cell_angle_beta   89.99998036
_cell_angle_gamma   93.48720183
_symmetry_Int_Tables_number   1
_chemical_formula_structural   KH11C10(OF4)3
_chemical_formula_sum   'K4 H44 C40 O12 F48'
_cell_volume   1596.29098610
_cell_formula_units_Z   4
loop_
 _symmetry_equiv_pos_site_id
 _symmetry_equiv_pos_as_xyz
  1  'x, y, z'
loop_
 _atom_site_type_symbol
 _atom_site_label
 _atom_site_symmetry_multiplicity
 _atom_site_fract_x
 _atom_site_fract_y
 _atom_site_fract_z
 _atom_site_occupancy
 _atom_site_hle17_bader_spin_density
 _atom_site_hle17_ddec_charge
 _atom_site_hle17_ddec_spin_density
 _atom_site_hle17_ddec_sum_bond_order
 _atom_site_hle17_magmom
 _atom_site_hse06_10hf_bader_spin_density
 _atom_site_hse06_10hf_ddec_charge
 _atom_site_hse06_10hf_ddec_spin_density
 _atom_site_hse06_10hf_ddec_sum_bond_order
 _atom_site_hse06_10hf_magmom
 _atom_site_hse06_bader_spin_density
 _atom_site_hse06_ddec_charge
 _atom_site_hse06_ddec_spin_density
 _atom_site_hse06_ddec_sum_bond_order
 _atom_site_hse06_magmom
 _atom_site_pbe_bader_spin_density
 _atom_site_pbe_cm5_charge
 _atom_site_pbe_ddec_charge
 _atom_site_pbe_ddec_spin_density
 _atom_site_pbe_ddec_sum_bond_order
 _atom_site_pbe_magmom
K  K0  1  0.65553835  0.39559674  0.53492774  1  0  0.943625  0  0.42699  0  0  0.887497  0  0.60517  0  0  0.902658  0  0.58207  0  0  0.730784  0.876318  0  0.621499  0
K  K1  1  0.34446119  0.10440382  0.03492715  1  0  0.943618  0  0.426999  0  0  0.8875  0  0.605168  0  0  0.90266  0  0.582071  0  0  0.730789  0.876321  0  0.621495  0
K  K2  1  0.34445884  0.60440323  0.46507120  1  0  0.943624  0  0.426982  0  0  0.887696  0  0.605098  0  0  0.902668  0  0.582056  0  0  0.73078  0.876308  0  0.621516  0
K  K3  1  0.65553644  0.89560051  0.96507386  1  0  0.943629  0  0.426982  0  0  0.887483  0  0.60518  0  0  0.902647  0  0.582081  0  0  0.73078  0.876304  0  0.621506  0
H  H4  1  0.68837782  0.07143392  0.47146453  1  0  0.03578  0  0.938534  0  0  0.047807  0  1.009174  0  0  0.048079  0  1.008859  0  0  0.086681  0.047449  0  1.00959  0
H  H5  1  0.31162260  0.42856558  0.97146447  1  0  0.03575  0  0.938539  0  0  0.047799  0  1.009143  0  0  0.04805  0  1.008847  0  0  0.086675  0.047441  0  1.009559  0
H  H6  1  0.31162187  0.92856605  0.52853509  1  0  0.035805  0  0.938569  0  0  0.047834  0  1.009207  0  0  0.048105  0  1.008891  0  0  0.086698  0.047477  0  1.009619  0
H  H7  1  0.68837834  0.57143439  0.02853446  1  0  0.035746  0  0.938559  0  0  0.047788  0  1.009177  0  0  0.048045  0  1.008878  0  0  0.086662  0.047431  0  1.009591  0
H  H8  1  0.63279073  0.08874922  0.58933552  1  0  0.034472  0  0.92815  0  0  0.047893  0  0.994779  0  0  0.048815  0  0.993112  0  0  0.086538  0.047076  0  0.996142  0
H  H9  1  0.36720746  0.41125057  0.08933610  1  0  0.03449  0  0.928182  0  0  0.047916  0  0.994791  0  0  0.048829  0  0.99313  0  0  0.086537  0.047098  0  0.996153  0
H  H10  1  0.36721021  0.91125075  0.41066411  1  0  0.034471  0  0.928137  0  0  0.047893  0  0.994767  0  0  0.048818  0  0.993095  0  0  0.086531  0.047076  0  0.996129  0
H  H11  1  0.63279098  0.58874940  0.91066353  1  0  0.034483  0  0.92814  0  0  0.04789  0  0.994781  0  0  0.048816  0  0.993106  0  0  0.086525  0.047072  0  0.996143  0
H  H12  1  0.94454552  0.10992440  0.56417403  1  0  0.111839  0  0.940865  0  0  0.135705  0  0.996284  0  0  0.13677  0  0.996473  0  0  0.088198  0.134915  0  0.996195  0
H  H13  1  0.05545394  0.39007541  0.06417399  1  0  0.11184  0  0.940857  0  0  0.135709  0  0.99628  0  0  0.136773  0  0.996469  0  0  0.088205  0.134919  0  0.996191  0
H  H14  1  0.05545542  0.89007557  0.43582560  1  0  0.11184  0  0.940872  0  0  0.13571  0  0.996297  0  0  0.136774  0  0.996477  0  0  0.088195  0.13492  0  0.996199  0
H  H15  1  0.94454575  0.60992456  0.93582563  1  0  0.111842  0  0.940865  0  0  0.135713  0  0.996282  0  0  0.136776  0  0.99647  0  0  0.088205  0.134923  0  0.996191  0
H  H16  1  0.86548478  0.21872309  0.60548198  1  0  0.100314  0  0.965585  0  0  0.119131  0  1.031779  0  0  0.121009  0  1.030856  0  0  0.083344  0.11776  0  1.032427  0
H  H17  1  0.13451464  0.28127669  0.10548200  1  0  0.100332  0  0.965591  0  0  0.119155  0  1.031774  0  0  0.121034  0  1.030853  0  0  0.083355  0.117784  0  1.032423  0
H  H18  1  0.13451741  0.78127688  0.39451695  1  0  0.100366  0  0.965548  0  0  0.119177  0  1.031751  0  0  0.121053  0  1.030823  0  0  0.083342  0.117803  0  1.032393  0
H  H19  1  0.86548512  0.71872401  0.89451693  1  0  0.10037  0  0.965558  0  0  0.119162  0  1.031772  0  0  0.121041  0  1.030847  0  0  0.083345  0.11779  0  1.032419  0
H  H20  1  0.91468859  0.20679453  0.48612657  1  0  0.103733  0  0.954214  0  0  0.122806  0  1.019624  0  0  0.1246  0  1.018816  0  0  0.085887  0.121526  0  1.020119  0
H  H21  1  0.08531182  0.29320496  0.98612664  1  0  0.103714  0  0.954237  0  0  0.12279  0  1.019646  0  0  0.124585  0  1.018837  0  0  0.085882  0.12151  0  1.020142  0
H  H22  1  0.08531235  0.79320544  0.51387306  1  0  0.103736  0  0.954205  0  0  0.122878  0  1.019443  0  0  0.124605  0  1.018804  0  0  0.085891  0.121531  0  1.020108  0
H  H23  1  0.91468779  0.70679429  0.01387298  1  0  0.103735  0  0.954237  0  0  0.122814  0  1.019635  0  0  0.124609  0  1.018827  0  0  0.085887  0.121533  0  1.020132  0
H  H24  1  0.35146947  0.13288926  0.53113638  1  0  0.037648  0  0.931231  0  0  0.051942  0  0.99692  0  0  0.052819  0  0.99542  0  0  0.087037  0.051307  0  0.997834  0
H  H25  1  0.64853001  0.36711058  0.03113625  1  0  0.037662  0  0.931222  0  0  0.051952  0  0.996916  0  0  0.052829  0  0.995417  0  0  0.087046  0.051316  0  0.99783  0
H  H26  1  0.64853030  0.86711143  0.46886393  1  0  0.037699  0  0.931193  0  0  0.051956  0  0.996922  0  0  0.052832  0  0.995423  0  0  0.087045  0.051321  0  0.997834  0
H  H27  1  0.35146968  0.63288940  0.96886337  1  0  0.037667  0  0.931234  0  0  0.051958  0  0.996918  0  0  0.052834  0  0.99542  0  0  0.087038  0.051322  0  0.997832  0
H  H28  1  0.43216827  0.10820890  0.41930801  1  0  0.033701  0  0.930247  0  0  0.045  0  1.002267  0  0  0.045629  0  1.001132  0  0  0.086363  0.044419  0  1.003229  0
H  H29  1  0.56783226  0.39179136  0.91930793  1  0  0.033684  0  0.930259  0  0  0.044982  0  1.002281  0  0  0.045611  0  1.001144  0  0  0.086352  0.0444  0  1.003243  0
H  H30  1  0.56783274  0.89179180  0.58069230  1  0  0.03369  0  0.930244  0  0  0.044996  0  1.002257  0  0  0.045626  0  1.001118  0  0  0.086361  0.044415  0  1.003218  0
H  H31  1  0.43216743  0.60820861  0.08069238  1  0  0.033706  0  0.930264  0  0  0.044994  0  1.002284  0  0  0.045623  0  1.001148  0  0  0.086354  0.044413  0  1.003246  0
H  H32  1  0.19847903  0.22232951  0.41272986  1  0  0.103698  0  0.964895  0  0  0.123763  0  1.029192  0  0  0.12486  0  1.029077  0  0  0.083099  0.1229  0  1.029368  0
H  H33  1  0.80152142  0.27767004  0.91272981  1  0  0.103685  0  0.964915  0  0  0.123745  0  1.029213  0  0  0.124842  0  1.029098  0  0  0.083088  0.122881  0  1.029389  0
H  H34  1  0.80152191  0.77767047  0.58727046  1  0  0.103677  0  0.964914  0  0  0.123753  0  1.029175  0  0  0.124839  0  1.029086  0  0  0.083088  0.122878  0  1.029378  0
H  H35  1  0.19847951  0.72232993  0.08727051  1  0  0.103679  0  0.964905  0  0  0.123729  0  1.029217  0  0  0.124826  0  1.029103  0  0  0.08309  0.122872  0  1.029385  0
H  H36  1  0.38802811  0.27797091  0.36915068  1  0  0.106302  0  0.958207  0  0  0.122519  0  1.025659  0  0  0.12489  0  1.023949  0  0  0.083226  0.120726  0  1.027038  0
H  H37  1  0.61197238  0.22202867  0.86915071  1  0  0.106302  0  0.958201  0  0  0.122519  0  1.025652  0  0  0.12489  0  1.023943  0  0  0.083228  0.120726  0  1.027031  0
H  H38  1  0.61197158  0.72202906  0.63084894  1  0  0.10625  0  0.958245  0  0  0.122462  0  1.025716  0  0  0.124832  0  1.023997  0  0  0.083201  0.120667  0  1.027086  0
H  H39  1  0.38802863  0.77797203  0.13084892  1  0  0.106294  0  0.958196  0  0  0.122508  0  1.025652  0  0  0.12488  0  1.023942  0  0  0.083224  0.120715  0  1.027033  0
H  H40  1  0.31569040  0.30704528  0.48210669  1  0  0.09549  0  0.990232  0  0  0.113976  0  1.060871  0  0  0.116283  0  1.059545  0  0  0.082099  0.112371  0  1.061603  0
H  H41  1  0.68430883  0.19295494  0.98210741  1  0  0.095485  0  0.990236  0  0  0.113969  0  1.060875  0  0  0.116275  0  1.059554  0  0  0.082096  0.112364  0  1.061609  0
H  H42  1  0.68430936  0.69295542  0.51789224  1  0  0.095494  0  0.990217  0  0  0.113986  0  1.060855  0  0  0.116288  0  1.059533  0  0  0.082103  0.112377  0  1.061585  0
H  H43  1  0.31569093  0.80704576  0.01789221  1  0  0.095536  0  0.990158  0  0  0.114036  0  1.060775  0  0  0.116339  0  1.059458  0  0  0.082136  0.11243  0  1.061509  0
H  H44  1  0.12175816  0.41223406  0.55719077  1  0  0.389292  0  0.857977  0  0  0.363001  0  0.934585  0  0  0.375162  0  0.920668  0  0  0.298212  0.354538  0  0.94412  0
H  H45  1  0.87824013  0.08776649  0.05719078  1  0  0.389286  0  0.857965  0  0  0.362975  0  0.934615  0  0  0.37515  0  0.920666  0  0  0.298199  0.354528  0  0.944116  0
H  H46  1  0.87824028  0.58776591  0.44280885  1  0  0.389297  0  0.857947  0  0  0.36302  0  0.934499  0  0  0.375164  0  0.920641  0  0  0.298209  0.354543  0  0.944088  0
H  H47  1  0.12175956  0.91223348  0.94280953  1  0  0.389321  0  0.857896  0  0  0.363014  0  0.934531  0  0  0.375188  0  0.920583  0  0  0.298211  0.354566  0  0.944033  0
C  C48  1  0.27243573  0.44802131  0.67230128  1  0  -0.035689  0  3.826726  0  0  -0.055583  0  4.07835  0  0  -0.054713  0  4.092611  0  0  0.041743  -0.056144  0  4.068615  0
C  C49  1  0.72756497  0.05197915  0.17230204  1  0  -0.035761  0  3.826736  0  0  -0.055685  0  4.078502  0  0  -0.054763  0  4.092612  0  0  0.041744  -0.056188  0  4.068614  0
C  C50  1  0.72756396  0.55197866  0.32769834  1  0  -0.035615  0  3.826554  0  0  -0.055563  0  4.078359  0  0  -0.054641  0  4.09246  0  0  0.041778  -0.056071  0  4.068458  0
C  C51  1  0.27243861  0.94802228  0.82769690  1  0  -0.035709  0  3.826826  0  0  -0.055632  0  4.07857  0  0  -0.054711  0  4.092686  0  0  0.041776  -0.056137  0  4.068676  0
C  C52  1  0.32268571  0.34534231  0.70962045  1  0  0.73308  0  3.591167  0  0  0.653136  0  3.942609  0  0  0.683926  0  3.918  0  0  0.286722  0.632178  0  3.958971  0
C  C53  1  0.67731488  0.15465739  0.20962115  1  0  0.733231  0  3.590919  0  0  0.653265  0  3.942398  0  0  0.684059  0  3.9178  0  0  0.286728  0.63228  0  3.958793  0
C  C54  1  0.67731522  0.65465766  0.29037986  1  0  0.733189  0  3.590982  0  0  0.653225  0  3.942443  0  0  0.683997  0  3.917868  0  0  0.286776  0.632266  0  3.958815  0
C  C55  1  0.32268605  0.84534258  0.79037985  1  0  0.733116  0  3.591153  0  0  0.653154  0  3.94262  0  0  0.683941  0  3.918031  0  0  0.286751  0.632181  0  3.959013  0
C  C56  1  0.36760258  0.52930160  0.73185508  1  0  0.729742  0  3.624644  0  0  0.654275  0  3.972215  0  0  0.683838  0  3.948756  0  0  0.287959  0.63332  0  3.989092  0
C  C57  1  0.63239874  0.97069869  0.23185488  1  0  0.729809  0  3.624586  0  0  0.654308  0  3.972214  0  0  0.683888  0  3.94871  0  0  0.287962  0.633388  0  3.989024  0
C  C58  1  0.63239703  0.47069765  0.26814592  1  0  0.729703  0  3.624713  0  0  0.654218  0  3.972339  0  0  0.683804  0  3.948833  0  0  0.287915  0.633288  0  3.989158  0
C  C59  1  0.36760228  0.02930201  0.76814612  1  0  0.729574  0  3.624923  0  0  0.65409  0  3.972522  0  0  0.68367  0  3.949019  0  0  0.287878  0.633173  0  3.989324  0
C  C60  1  0.06313198  0.45404388  0.67498859  1  0  -0.065324  0  3.602283  0  0  -0.086371  0  3.858447  0  0  -0.087491  0  3.867465  0  0  0.047481  -0.085602  0  3.852712  0
C  C61  1  0.93686864  0.04595585  0.17498862  1  0  -0.065252  0  3.602404  0  0  -0.086422  0  3.858839  0  0  -0.087401  0  3.867514  0  0  0.047525  -0.085515  0  3.852755  0
C  C62  1  0.93686771  0.54595610  0.32501103  1  0  -0.065286  0  3.602271  0  0  -0.086469  0  3.858773  0  0  -0.087453  0  3.867449  0  0  0.047499  -0.085562  0  3.852689  0
C  C63  1  0.06313090  0.95404267  0.82501169  1  0  -0.065359  0  3.60233  0  0  -0.086538  0  3.858794  0  0  -0.087523  0  3.867473  0  0  0.047456  -0.085629  0  3.852708  0
C  C64  1  0.00478660  0.56062502  0.66686872  1  0  0.737266  0  3.609324  0  0  0.663511  0  3.950195  0  0  0.693732  0  3.926378  0  0  0.294517  0.641542  0  3.968253  0
C  C65  1  0.99521352  0.93937532  0.16686985  1  0  0.737062  0  3.609583  0  0  0.662788  0  3.951226  0  0  0.693547  0  3.92662  0  0  0.294474  0.64137  0  3.968471  0
C  C66  1  0.99521317  0.43937568  0.33313160  1  0  0.737211  0  3.609398  0  0  0.662919  0  3.951077  0  0  0.693673  0  3.926462  0  0  0.294466  0.641492  0  3.968326  0
C  C67  1  0.00478477  0.06062320  0.83313116  1  0  0.737075  0  3.609473  0  0  0.662784  0  3.951138  0  0  0.693544  0  3.926533  0  0  0.294444  0.641361  0  3.968391  0
C  C68  1  0.96474896  0.40321434  0.75661971  1  0  0.73855  0  3.64064  0  0  0.665347  0  3.983314  0  0  0.695263  0  3.959663  0  0  0.294729  0.64399  0  4.000534  0
C  C69  1  0.03525035  0.09678532  0.25661987  1  0  0.738573  0  3.640546  0  0  0.665369  0  3.983204  0  0  0.695285  0  3.959574  0  0  0.294738  0.644013  0  4.000447  0
C  C70  1  0.03524948  0.59678563  0.24337992  1  0  0.738514  0  3.640671  0  0  0.665311  0  3.983339  0  0  0.695224  0  3.959703  0  0  0.294718  0.643954  0  4.000568  0
C  C71  1  0.96474926  0.90321392  0.74337975  1  0  0.738589  0  3.640516  0  0  0.665377  0  3.983186  0  0  0.695302  0  3.959534  0  0  0.294711  0.64402  0  4.000427  0
C  C72  1  0.68709573  0.12562552  0.52752569  1  0  0.141448  0  3.680394  0  0  0.091072  0  3.955399  0  0  0.097999  0  3.963734  0  0  -0.079225  0.086467  0  3.949636  0
C  C73  1  0.31290250  0.37437432  0.02752562  1  0  0.141446  0  3.680403  0  0  0.091079  0  3.955373  0  0  0.098029  0  3.963704  0  0  -0.079205  0.086474  0  3.94961  0
C  C74  1  0.31290403  0.87437518  0.47247462  1  0  0.141434  0  3.680393  0  0  0.091049  0  3.955419  0  0  0.097973  0  3.963742  0  0  -0.079223  0.086441  0  3.949644  0
C  C75  1  0.68709719  0.62562565  0.97247331  1  0  0.141473  0  3.680402  0  0  0.091114  0  3.955367  0  0  0.098047  0  3.963708  0  0  -0.079167  0.086508  0  3.949604  0
C  C76  1  0.86234472  0.16822741  0.54688742  1  0  -0.327693  0  3.719841  0  0  -0.40502  0  3.964812  0  0  -0.408058  0  3.974525  0  0  -0.254869  -0.402605  0  3.957947  0
C  C77  1  0.13765467  0.33177169  0.04688741  1  0  -0.327678  0  3.719898  0  0  -0.405027  0  3.964872  0  0  -0.408062  0  3.974579  0  0  -0.254879  -0.402611  0  3.958004  0
C  C78  1  0.13765622  0.83177257  0.45311220  1  0  -0.327757  0  3.719854  0  0  -0.40505  0  3.964784  0  0  -0.408112  0  3.974548  0  0  -0.254871  -0.402658  0  3.957968  0
C  C79  1  0.86234502  0.66822828  0.95311222  1  0  -0.327754  0  3.719903  0  0  -0.405079  0  3.964895  0  0  -0.408115  0  3.974606  0  0  -0.254898  -0.402662  0  3.958027  0
C  C80  1  0.41936298  0.16577382  0.47141346  1  0  0.143713  0  3.674249  0  0  0.091323  0  3.952597  0  0  0.098545  0  3.960072  0  0  -0.080774  0.086558  0  3.947196  0
C  C81  1  0.58063626  0.33422641  0.97141272  1  0  0.143709  0  3.674247  0  0  0.091319  0  3.952603  0  0  0.098543  0  3.960075  0  0  -0.080781  0.086553  0  3.947201  0
C  C82  1  0.58063804  0.83422688  0.52858686  1  0  0.143658  0  3.674264  0  0  0.091277  0  3.952627  0  0  0.098499  0  3.960094  0  0  -0.080784  0.086511  0  3.947218  0
C  C83  1  0.41936342  0.66577357  0.02858690  1  0  0.143645  0  3.674374  0  0  0.091285  0  3.952671  0  0  0.098509  0  3.960146  0  0  -0.080792  0.086519  0  3.947271  0
C  C84  1  0.32619410  0.24838627  0.43152432  1  0  -0.335755  0  3.730926  0  0  -0.41417  0  3.980125  0  0  -0.417109  0  3.989056  0  0  -0.261024  -0.411725  0  3.973829  0
C  C85  1  0.67380634  0.25161326  0.93152432  1  0  -0.335731  0  3.73091  0  0  -0.414138  0  3.98011  0  0  -0.417078  0  3.989042  0  0  -0.261011  -0.411694  0  3.973819  0
C  C86  1  0.67380684  0.75161370  0.56847530  1  0  -0.335683  0  3.730924  0  0  -0.414074  0  3.98009  0  0  -0.417028  0  3.989033  0  0  -0.260996  -0.411636  0  3.973794  0
C  C87  1  0.32619460  0.74838671  0.06847531  1  0  -0.335758  0  3.730887  0  0  -0.414173  0  3.980083  0  0  -0.417107  0  3.989011  0  0  -0.261049  -0.411733  0  3.973788  0
O  O88  1  0.31671810  0.45395453  0.58299123  1  0  -0.717873  0  2.031996  0  0  -0.699136  0  2.279363  0  0  -0.719112  0  2.274493  0  0  -0.509151  -0.684162  0  2.281522  0
O  O89  1  0.68328149  0.04604672  0.08299200  1  0  -0.717851  0  2.031992  0  0  -0.699202  0  2.279524  0  0  -0.719085  0  2.274475  0  0  -0.509143  -0.684129  0  2.281479  0
O  O90  1  0.68328284  0.54604544  0.41700839  1  0  -0.717915  0  2.03192  0  0  -0.699281  0  2.279493  0  0  -0.719164  0  2.274431  0  0  -0.50917  -0.68421  0  2.281452  0
O  O91  1  0.31671702  0.95395398  0.91700901  1  0  -0.71784  0  2.031962  0  0  -0.699214  0  2.279529  0  0  -0.719083  0  2.27445  0  0  -0.509163  -0.684143  0  2.281485  0
O  O92  1  0.01203720  0.40759787  0.59324288  1  0  -0.528777  0  2.127488  0  0  -0.51283  0  2.370492  0  0  -0.524934  0  2.35787  0  0  -0.415477  -0.503791  0  2.378543  0
O  O93  1  0.98796224  0.09240192  0.09324286  1  0  -0.528778  0  2.127426  0  0  -0.512914  0  2.370626  0  0  -0.524953  0  2.35784  0  0  -0.41548  -0.503816  0  2.378514  0
O  O94  1  0.98796249  0.59240210  0.40675675  1  0  -0.528759  0  2.127392  0  0  -0.512733  0  2.37034  0  0  -0.524931  0  2.357809  0  0  -0.415467  -0.503787  0  2.378474  0
O  O95  1  0.01203738  0.90759733  0.90675676  1  0  -0.528746  0  2.127399  0  0  -0.51286  0  2.370579  0  0  -0.524901  0  2.357797  0  0  -0.41542  -0.503761  0  2.378465  0
O  O96  1  0.58351443  0.20218334  0.49992813  1  0  -0.390545  0  2.251282  0  0  -0.317208  0  2.508186  0  0  -0.333883  0  2.509026  0  0  -0.311014  -0.30534  0  2.507041  0
O  O97  1  0.41648604  0.29781686  0.99992814  1  0  -0.390537  0  2.251232  0  0  -0.317218  0  2.508141  0  0  -0.333891  0  2.508969  0  0  -0.311025  -0.305349  0  2.506996  0
O  O98  1  0.41648666  0.79781808  0.50007218  1  0  -0.390529  0  2.251289  0  0  -0.317169  0  2.508149  0  0  -0.333855  0  2.509019  0  0  -0.31101  -0.305309  0  2.507034  0
O  O99  1  0.58351490  0.70218311  0.00007148  1  0  -0.390522  0  2.251281  0  0  -0.317196  0  2.508167  0  0  -0.333871  0  2.509004  0  0  -0.31099  -0.305328  0  2.507022  0
F  F100  1  0.48948180  0.33353732  0.69366093  1  0  -0.268797  0  1.188932  0  0  -0.239351  0  1.372216  0  0  -0.247795  0  1.354443  0  0  -0.14491  -0.232731  0  1.384186  0
F  F101  1  0.51051756  0.16646239  0.19366303  1  0  -0.268849  0  1.188892  0  0  -0.239404  0  1.372187  0  0  -0.247846  0  1.354414  0  0  -0.144906  -0.232776  0  1.384162  0
F  F102  1  0.51051797  0.66646338  0.30633938  1  0  -0.268809  0  1.188884  0  0  -0.239373  0  1.372175  0  0  -0.247824  0  1.354417  0  0  -0.144918  -0.232753  0  1.384151  0
F  F103  1  0.48948212  0.83353758  0.80633935  1  0  -0.268805  0  1.188927  0  0  -0.23936  0  1.37222  0  0  -0.247806  0  1.354451  0  0  -0.144913  -0.232736  0  1.384195  0
F  F104  1  0.29915730  0.33084405  0.80159572  1  0  -0.245812  0  1.214494  0  0  -0.202385  0  1.383004  0  0  -0.211556  0  1.367033  0  0  -0.092059  -0.195339  0  1.39358  0
F  F105  1  0.70084449  0.16915558  0.30159709  1  0  -0.245821  0  1.214432  0  0  -0.202407  0  1.382969  0  0  -0.211578  0  1.367  0  0  -0.09205  -0.195351  0  1.393549  0
F  F106  1  0.70084114  0.66915592  0.19840322  1  0  -0.245834  0  1.214452  0  0  -0.202412  0  1.382971  0  0  -0.211587  0  1.367012  0  0  -0.092073  -0.195364  0  1.393549  0
F  F107  1  0.29915888  0.83084367  0.69840392  1  0  -0.245798  0  1.214485  0  0  -0.20237  0  1.382983  0  0  -0.21155  0  1.367044  0  0  -0.092072  -0.195328  0  1.393592  0
F  F108  1  0.23992452  0.27213539  0.66287788  1  0  -0.226754  0  1.210934  0  0  -0.17801  0  1.372004  0  0  -0.19463  0  1.363957  0  0  -0.086121  -0.170753  0  1.382208  0
F  F109  1  0.76007369  0.22786508  0.16287851  1  0  -0.226814  0  1.210859  0  0  -0.17805  0  1.371925  0  0  -0.194671  0  1.36388  0  0  -0.086147  -0.170784  0  1.382133  0
F  F110  1  0.76007774  0.72786531  0.33712105  1  0  -0.226851  0  1.210929  0  0  -0.178051  0  1.371955  0  0  -0.194615  0  1.363868  0  0  -0.086148  -0.170793  0  1.382161  0
F  F111  1  0.23992592  0.77213417  0.83712181  1  0  -0.226784  0  1.210923  0  0  -0.178018  0  1.371981  0  0  -0.194623  0  1.363922  0  0  -0.086137  -0.170757  0  1.382189  0
F  F112  1  0.53402123  0.51418277  0.73734283  1  0  -0.243981  0  1.2084  0  0  -0.214441  0  1.392319  0  0  -0.223401  0  1.374578  0  0  -0.100067  -0.208054  0  1.404641  0
F  F113  1  0.46598009  0.98581752  0.23734334  1  0  -0.244025  0  1.208378  0  0  -0.214481  0  1.392295  0  0  -0.223438  0  1.374559  0  0  -0.100079  -0.208098  0  1.404619  0
F  F114  1  0.46597986  0.48581866  0.26265610  1  0  -0.243986  0  1.208457  0  0  -0.214443  0  1.392376  0  0  -0.223404  0  1.374637  0  0  -0.100048  -0.208057  0  1.4047  0
F  F115  1  0.53401953  0.01418173  0.76265559  1  0  -0.243955  0  1.208459  0  0  -0.214414  0  1.392369  0  0  -0.223372  0  1.374632  0  0  -0.100059  -0.208032  0  1.404691  0
F  F116  1  0.35889973  0.61850779  0.69276715  1  0  -0.24802  0  1.224365  0  0  -0.212456  0  1.403124  0  0  -0.220946  0  1.38507  0  0  -0.097795  -0.20642  0  1.415432  0
F  F117  1  0.64109904  0.88149180  0.19276632  1  0  -0.248012  0  1.224325  0  0  -0.212687  0  1.403184  0  0  -0.220957  0  1.385055  0  0  -0.097791  -0.206438  0  1.415412  0
F  F118  1  0.64109871  0.38149218  0.30723316  1  0  -0.248015  0  1.224365  0  0  -0.212689  0  1.40322  0  0  -0.220962  0  1.385088  0  0  -0.097805  -0.206437  0  1.41545  0
F  F119  1  0.35890064  0.11850817  0.80723399  1  0  -0.247969  0  1.224382  0  0  -0.21265  0  1.403237  0  0  -0.22092  0  1.385105  0  0  -0.097793  -0.206402  0  1.415463  0
F  F120  1  0.31107722  0.53530750  0.82019207  1  0  -0.247541  0  1.200552  0  0  -0.222798  0  1.389478  0  0  -0.231956  0  1.37225  0  0  -0.100764  -0.216166  0  1.401231  0
F  F121  1  0.68892272  0.96469199  0.32019186  1  0  -0.247554  0  1.200551  0  0  -0.222801  0  1.389469  0  0  -0.231957  0  1.372249  0  0  -0.100761  -0.216172  0  1.401224  0
F  F122  1  0.68892365  0.46469174  0.17980755  1  0  -0.247528  0  1.200611  0  0  -0.222783  0  1.389529  0  0  -0.23194  0  1.372307  0  0  -0.100735  -0.216151  0  1.401285  0
F  F123  1  0.31107580  0.03530871  0.67980776  1  0  -0.247466  0  1.200651  0  0  -0.222719  0  1.38956  0  0  -0.231874  0  1.372341  0  0  -0.100705  -0.216091  0  1.401312  0
F  F124  1  0.84018590  0.55961190  0.64065338  1  0  -0.251048  0  1.188363  0  0  -0.215258  0  1.364641  0  0  -0.225179  0  1.348643  0  0  -0.106975  -0.208316  0  1.375975  0
F  F125  1  0.15981291  0.94038773  0.14065329  1  0  -0.250976  0  1.188442  0  0  -0.215428  0  1.364966  0  0  -0.225113  0  1.348719  0  0  -0.106948  -0.208253  0  1.376046  0
F  F126  1  0.15981254  0.44038807  0.35934762  1  0  -0.251033  0  1.188333  0  0  -0.215478  0  1.364861  0  0  -0.225166  0  1.348616  0  0  -0.106978  -0.208301  0  1.375944  0
F  F127  1  0.84018655  0.05961006  0.85934702  1  0  -0.251006  0  1.188418  0  0  -0.215451  0  1.364947  0  0  -0.225136  0  1.3487  0  0  -0.106972  -0.208275  0  1.376029  0
F  F128  1  0.08895682  0.61196206  0.59918328  1  0  -0.255557  0  1.224324  0  0  -0.212293  0  1.399023  0  0  -0.223387  0  1.384013  0  0  -0.119949  -0.202886  0  1.408196  0
F  F129  1  0.91104195  0.88803688  0.09918446  1  0  -0.255547  0  1.224311  0  0  -0.210144  0  1.39707  0  0  -0.223376  0  1.383984  0  0  -0.119954  -0.202877  0  1.408157  0
F  F130  1  0.91104162  0.38803791  0.40081634  1  0  -0.255542  0  1.22441  0  0  -0.210127  0  1.397171  0  0  -0.223343  0  1.38407  0  0  -0.119911  -0.202857  0  1.408258  0
F  F131  1  0.08895767  0.11196237  0.90081585  1  0  -0.255529  0  1.2243  0  0  -0.210125  0  1.397064  0  0  -0.223358  0  1.383979  0  0  -0.119939  -0.202857  0  1.408153  0
F  F132  1  0.01979091  0.61192139  0.74608518  1  0  -0.218894  0  1.216347  0  0  -0.191983  0  1.397181  0  0  -0.201289  0  1.380625  0  0  -0.086932  -0.185274  0  1.40863  0
F  F133  1  0.98021039  0.88807889  0.24608566  1  0  -0.218829  0  1.216426  0  0  -0.192134  0  1.39755  0  0  -0.201234  0  1.380708  0  0  -0.086927  -0.185223  0  1.408706  0
F  F134  1  0.98021252  0.38807859  0.25391583  1  0  -0.218895  0  1.216358  0  0  -0.192191  0  1.397482  0  0  -0.201292  0  1.380638  0  0  -0.086931  -0.185279  0  1.408641  0
F  F135  1  0.01978540  0.11191963  0.75391535  1  0  -0.218814  0  1.216379  0  0  -0.192106  0  1.397498  0  0  -0.201204  0  1.380652  0  0  -0.086903  -0.185194  0  1.408654  0
F  F136  1  0.79710480  0.41588336  0.74947983  1  0  -0.250192  0  1.207865  0  0  -0.217343  0  1.388172  0  0  -0.226882  0  1.371408  0  0  -0.104916  -0.210517  0  1.399895  0
F  F137  1  0.20289577  0.08411632  0.24947997  1  0  -0.250206  0  1.207775  0  0  -0.217357  0  1.388071  0  0  -0.226895  0  1.371313  0  0  -0.104936  -0.210531  0  1.399801  0
F  F138  1  0.20289489  0.58411662  0.25051980  1  0  -0.250188  0  1.20781  0  0  -0.217336  0  1.388109  0  0  -0.226875  0  1.37135  0  0  -0.104924  -0.210509  0  1.399834  0
F  F139  1  0.79710517  0.91588366  0.75052035  1  0  -0.250187  0  1.207836  0  0  -0.217335  0  1.388137  0  0  -0.226876  0  1.371377  0  0  -0.104904  -0.210508  0  1.399868  0
F  F140  1  0.01350469  0.43847600  0.84059458  1  0  -0.236765  0  1.181482  0  0  -0.205453  0  1.352797  0  0  -0.215522  0  1.337836  0  0  -0.095159  -0.198222  0  1.363235  0
F  F141  1  0.98649339  0.06152432  0.34059459  1  0  -0.236775  0  1.181474  0  0  -0.205467  0  1.352784  0  0  -0.215535  0  1.33783  0  0  -0.095173  -0.198235  0  1.363231  0
F  F142  1  0.98649500  0.56152397  0.15940504  1  0  -0.236784  0  1.181494  0  0  -0.205475  0  1.352804  0  0  -0.215544  0  1.337851  0  0  -0.095177  -0.198244  0  1.363251  0
F  F143  1  0.01350879  0.93847565  0.65940573  1  0  -0.236798  0  1.181478  0  0  -0.205489  0  1.352792  0  0  -0.21556  0  1.337836  0  0  -0.095183  -0.198258  0  1.363242  0
F  F144  1  0.97819173  0.30603259  0.75713387  1  0  -0.224683  0  1.239221  0  0  -0.198165  0  1.424566  0  0  -0.207048  0  1.407669  0  0  -0.087439  -0.191317  0  1.436183  0
F  F145  1  0.02180759  0.19396708  0.25713328  1  0  -0.22468  0  1.239188  0  0  -0.198162  0  1.424528  0  0  -0.207045  0  1.407635  0  0  -0.087427  -0.191315  0  1.43615  0
F  F146  1  0.02180789  0.69396666  0.24286575  1  0  -0.224651  0  1.239233  0  0  -0.198136  0  1.424577  0  0  -0.207024  0  1.407686  0  0  -0.08742  -0.191288  0  1.436196  0
F  F147  1  0.97819202  0.80603217  0.74286634  1  0  -0.22468  0  1.239145  0  0  -0.198151  0  1.424455  0  0  -0.207046  0  1.407585  0  0  -0.087418  -0.191311  0  1.436103  0
