# generated using pymatgen
data_ZnH30C23(NO)4
_symmetry_space_group_name_H-M   'P 1'
_cell_length_a   7.54507266
_cell_length_b   9.21187187
_cell_length_c   18.16631131
_cell_angle_alpha   87.59953705
_cell_angle_beta   84.06452788
_cell_angle_gamma   65.82136455
_symmetry_Int_Tables_number   1
_chemical_formula_structural   ZnH30C23(NO)4
_chemical_formula_sum   'Zn2 H60 C46 N8 O8'
_cell_volume   1145.69301170
_cell_formula_units_Z   2
loop_
 _symmetry_equiv_pos_site_id
 _symmetry_equiv_pos_as_xyz
  1  'x, y, z'
loop_
 _atom_site_type_symbol
 _atom_site_label
 _atom_site_symmetry_multiplicity
 _atom_site_fract_x
 _atom_site_fract_y
 _atom_site_fract_z
 _atom_site_occupancy
 _atom_site_hle17_bader_spin_density
 _atom_site_hle17_ddec_charge
 _atom_site_hle17_ddec_spin_density
 _atom_site_hle17_ddec_sum_bond_order
 _atom_site_hle17_magmom
 _atom_site_hse06_10hf_bader_spin_density
 _atom_site_hse06_10hf_ddec_charge
 _atom_site_hse06_10hf_ddec_spin_density
 _atom_site_hse06_10hf_ddec_sum_bond_order
 _atom_site_hse06_10hf_magmom
 _atom_site_hse06_bader_spin_density
 _atom_site_hse06_ddec_charge
 _atom_site_hse06_ddec_spin_density
 _atom_site_hse06_ddec_sum_bond_order
 _atom_site_hse06_magmom
 _atom_site_pbe_bader_spin_density
 _atom_site_pbe_cm5_charge
 _atom_site_pbe_ddec_charge
 _atom_site_pbe_ddec_spin_density
 _atom_site_pbe_ddec_sum_bond_order
 _atom_site_pbe_magmom
Zn  Zn0  1  0.17155500  0.65700596  0.75008975  1  0  0.977023  0  1.879692  0  0  0.769534  0  2.369032  0  0  0.817301  0  2.314285  0  0  0.694491  0.736384  0  2.406435  0
Zn  Zn1  1  0.82844353  0.34299499  0.24991075  1  0  0.976988  0  1.879768  0  0  0.769488  0  2.369117  0  0  0.81726  0  2.314373  0  0  0.694463  0.736339  0  2.406533  0
H  H2  1  0.22545116  0.32811401  0.98644932  1  0  0.110874  0  0.942273  0  0  0.121439  0  1.001747  0  0  0.125075  0  1.00041  0  0  0.109053  0.118767  0  1.002961  0
H  H3  1  0.44633684  0.32821806  0.51350489  1  0  0.110607  0  0.943516  0  0  0.121206  0  1.002883  0  0  0.124868  0  1.00145  0  0  0.10926  0.118672  0  1.003829  0
H  H4  1  0.77455366  0.67187980  0.01354832  1  0  0.110883  0  0.942204  0  0  0.121419  0  1.001724  0  0  0.125055  0  1.000387  0  0  0.109033  0.118784  0  1.0029  0
H  H5  1  0.55366179  0.67178527  0.48649776  1  0  0.110582  0  0.94349  0  0  0.121196  0  1.002852  0  0  0.124832  0  1.001446  0  0  0.109259  0.118662  0  1.003793  0
H  H6  1  0.57872493  0.52315395  0.79313170  1  0  0.094228  0  0.959346  0  0  0.101578  0  1.02272  0  0  0.104257  0  1.020089  0  0  0.119284  0.099233  0  1.025365  0
H  H7  1  0.89850660  0.52284438  0.70715897  1  0  0.09483  0  0.960011  0  0  0.101162  0  1.024477  0  0  0.103864  0  1.021774  0  0  0.11949  0.099078  0  1.026588  0
H  H8  1  0.42127687  0.47684581  0.20686815  1  0  0.094223  0  0.959299  0  0  0.101574  0  1.022685  0  0  0.104253  0  1.020053  0  0  0.119287  0.099231  0  1.025328  0
H  H9  1  0.10148794  0.47715657  0.29284169  1  0  0.094789  0  0.960067  0  0  0.101106  0  1.024534  0  0  0.103805  0  1.021838  0  0  0.119467  0.099026  0  1.026641  0
H  H10  1  0.81992793  0.05673225  0.89119345  1  0  0.07089  0  0.933345  0  0  0.090446  0  0.991481  0  0  0.090378  0  0.992804  0  0  0.106129  0.090416  0  0.990662  0
H  H11  1  0.12392110  0.05660589  0.60870830  1  0  0.071143  0  0.932525  0  0  0.090531  0  0.990649  0  0  0.090456  0  0.992051  0  0  0.10593  0.090398  0  0.9899  0
H  H12  1  0.18007252  0.94326751  0.10880755  1  0  0.070933  0  0.933348  0  0  0.090507  0  0.991421  0  0  0.090439  0  0.992741  0  0  0.10615  0.09048  0  0.990602  0
H  H13  1  0.87607938  0.94339388  0.39129105  1  0  0.071123  0  0.932501  0  0  0.090506  0  0.990637  0  0  0.09043  0  0.992041  0  0  0.105935  0.090376  0  0.989886  0
H  H14  1  0.81513316  0.92132362  0.96372565  1  0  0.033228  0  0.92672  0  0  0.046864  0  1.002663  0  0  0.048247  0  1.000557  0  0  0.085098  0.045795  0  1.004176  0
H  H15  1  0.26359798  0.92094843  0.53611256  1  0  0.033628  0  0.927457  0  0  0.046995  0  1.003225  0  0  0.048462  0  1.001001  0  0  0.085245  0.045949  0  1.004651  0
H  H16  1  0.18486803  0.07867733  0.03627530  1  0  0.033227  0  0.926772  0  0  0.046848  0  1.002702  0  0  0.048228  0  1.000599  0  0  0.085123  0.045782  0  1.00422  0
H  H17  1  0.73640116  0.07905134  0.46388684  1  0  0.033608  0  0.927444  0  0  0.046971  0  1.003215  0  0  0.048436  0  1.000993  0  0  0.085244  0.045928  0  1.004636  0
H  H18  1  0.76269491  0.35229616  0.89342016  1  0  0.126687  0  0.928684  0  0  0.135369  0  0.986639  0  0  0.139435  0  0.984632  0  0  0.116045  0.132338  0  0.98842  0
H  H19  1  0.88533538  0.35191508  0.60683286  1  0  0.126434  0  0.929504  0  0  0.135561  0  0.986742  0  0  0.139623  0  0.98473  0  0  0.116116  0.13255  0  0.988646  0
H  H20  1  0.23730764  0.64770480  0.10657908  1  0  0.126733  0  0.928643  0  0  0.135388  0  0.986625  0  0  0.139454  0  0.98462  0  0  0.116054  0.132351  0  0.988403  0
H  H21  1  0.11466569  0.64808349  0.39316704  1  0  0.126452  0  0.929504  0  0  0.135544  0  0.986769  0  0  0.139606  0  0.984758  0  0  0.116105  0.132536  0  0.988672  0
H  H22  1  0.84503891  0.98929347  0.09282333  1  0  0.045625  0  0.934465  0  0  0.062608  0  1.002358  0  0  0.063262  0  1.001761  0  0  0.092909  0.06214  0  1.002821  0
H  H23  1  0.16569514  0.98879855  0.40714206  1  0  0.045972  0  0.934537  0  0  0.063132  0  1.002404  0  0  0.063683  0  1.001865  0  0  0.093258  0.062616  0  1.002909  0
H  H24  1  0.15496154  0.01070630  0.90717712  1  0  0.045619  0  0.934488  0  0  0.062591  0  1.002373  0  0  0.063246  0  1.001776  0  0  0.0929  0.062118  0  1.002842  0
H  H25  1  0.83430282  0.01120359  0.59285733  1  0  0.046004  0  0.934611  0  0  0.063188  0  1.002433  0  0  0.063739  0  1.001894  0  0  0.093283  0.062671  0  1.002938  0
H  H26  1  0.86253118  0.17318457  0.10691085  1  0  0.06497  0  0.943026  0  0  0.080569  0  1.009778  0  0  0.080809  0  1.010101  0  0  0.102122  0.080264  0  1.00978  0
H  H27  1  0.96464653  0.17286163  0.39304883  1  0  0.065117  0  0.942631  0  0  0.080561  0  1.009875  0  0  0.08082  0  1.010152  0  0  0.102209  0.08071  0  1.008926  0
H  H28  1  0.13747060  0.82681519  0.89309009  1  0  0.064928  0  0.943051  0  0  0.080531  0  1.009779  0  0  0.080772  0  1.010104  0  0  0.102099  0.080226  0  1.009779  0
H  H29  1  0.03535141  0.82714051  0.60695112  1  0  0.065158  0  0.942618  0  0  0.080573  0  1.009899  0  0  0.080832  0  1.010176  0  0  0.102212  0.080722  0  1.00895  0
H  H30  1  0.54822888  0.19522808  0.68472739  1  0  0.083889  0  0.976594  0  0  0.103519  0  1.04422  0  0  0.10421  0  1.045373  0  0  0.075078  0.102667  0  1.044159  0
H  H31  1  0.25665523  0.19536417  0.81551397  1  0  0.084469  0  0.976611  0  0  0.103268  0  1.04534  0  0  0.103977  0  1.04644  0  0  0.075166  0.102857  0  1.044342  0
H  H32  1  0.45176966  0.80477288  0.31527256  1  0  0.083893  0  0.976585  0  0  0.103522  0  1.044216  0  0  0.104212  0  1.045369  0  0  0.075078  0.102668  0  1.044159  0
H  H33  1  0.74334658  0.80463560  0.18448532  1  0  0.084449  0  0.9766  0  0  0.103261  0  1.04532  0  0  0.103968  0  1.046421  0  0  0.075158  0.102843  0  1.044321  0
H  H34  1  0.76149482  0.04888247  0.72077990  1  0  0.114821  0  0.971981  0  0  0.133492  0  1.032111  0  0  0.136227  0  1.030255  0  0  0.085749  0.131511  0  1.033496  0
H  H35  1  0.18954178  0.04913410  0.77943233  1  0  0.114404  0  0.971868  0  0  0.133433  0  1.031595  0  0  0.136088  0  1.029792  0  0  0.085854  0.131523  0  1.032873  0
H  H36  1  0.23850566  0.95111729  0.27921944  1  0  0.114804  0  0.972014  0  0  0.133476  0  1.032144  0  0  0.136211  0  1.030287  0  0  0.085745  0.131494  0  1.033532  0
H  H37  1  0.81045677  0.95086685  0.22056706  1  0  0.114392  0  0.971812  0  0  0.133422  0  1.031549  0  0  0.136078  0  1.029744  0  0  0.08582  0.131508  0  1.032829  0
H  H38  1  0.58286374  0.19667188  0.77973741  1  0  0.087808  0  0.98561  0  0  0.107801  0  1.050952  0  0  0.108051  0  1.053555  0  0  0.076458  0.107597  0  1.0496  0
H  H39  1  0.22056183  0.19682027  0.72052720  1  0  0.087831  0  0.985943  0  0  0.107871  0  1.051363  0  0  0.10814  0  1.053875  0  0  0.076454  0.107735  0  1.049495  0
H  H40  1  0.41713658  0.80332550  0.22026309  1  0  0.087787  0  0.985613  0  0  0.107774  0  1.050965  0  0  0.108023  0  1.053569  0  0  0.076446  0.107572  0  1.049611  0
H  H41  1  0.77943939  0.80318068  0.27947209  1  0  0.087809  0  0.985921  0  0  0.107843  0  1.051356  0  0  0.108113  0  1.053867  0  0  0.076447  0.107702  0  1.049491  0
H  H42  1  0.45686022  0.98364055  0.63593654  1  0  0.094448  0  0.943872  0  0  0.108387  0  1.009885  0  0  0.110652  0  1.00917  0  0  0.094095  0.107018  0  1.010171  0
H  H43  1  0.55952874  0.98368551  0.86422006  1  0  0.093908  0  0.944056  0  0  0.107627  0  1.010116  0  0  0.10983  0  1.009461  0  0  0.093871  0.106317  0  1.010318  0
H  H44  1  0.54313819  0.01635802  0.36406291  1  0  0.09444  0  0.943794  0  0  0.108375  0  1.009817  0  0  0.110639  0  1.009102  0  0  0.094077  0.107007  0  1.010099  0
H  H45  1  0.44046832  0.01631307  0.13577999  1  0  0.093968  0  0.943975  0  0  0.107653  0  1.010069  0  0  0.109854  0  1.009415  0  0  0.093894  0.106344  0  1.010267  0
H  H46  1  0.68515370  0.85118861  0.66402354  1  0  0.095162  0  0.965446  0  0  0.106826  0  1.033455  0  0  0.108424  0  1.033998  0  0  0.093705  0.105806  0  1.032972  0
H  H47  1  0.46341876  0.85137798  0.83613388  1  0  0.094454  0  0.96581  0  0  0.106078  0  1.033828  0  0  0.107638  0  1.034417  0  0  0.093251  0.105045  0  1.033397  0
H  H48  1  0.31484605  0.14880997  0.33597531  1  0  0.095149  0  0.965468  0  0  0.1068  0  1.03349  0  0  0.108397  0  1.034033  0  0  0.0937  0.105776  0  1.033011  0
H  H49  1  0.53657832  0.14862060  0.16386507  1  0  0.094493  0  0.965801  0  0  0.106115  0  1.033804  0  0  0.107674  0  1.034393  0  0  0.093268  0.105081  0  1.033371  0
H  H50  1  0.05936657  0.50510944  0.88253114  1  0  0.092096  0  0.977143  0  0  0.09927  0  1.040705  0  0  0.103158  0  1.036572  0  0  0.115756  0.096341  0  1.04386  0
H  H51  1  0.43554700  0.50512224  0.61753614  1  0  0.092299  0  0.977183  0  0  0.099217  0  1.041075  0  0  0.102956  0  1.037129  0  0  0.115625  0.096295  0  1.044155  0
H  H52  1  0.94063631  0.49488557  0.11746710  1  0  0.092068  0  0.977148  0  0  0.099224  0  1.040727  0  0  0.103139  0  1.036562  0  0  0.115745  0.096296  0  1.043878  0
H  H53  1  0.56444512  0.49488348  0.38246617  1  0  0.092245  0  0.977245  0  0  0.099187  0  1.041106  0  0  0.102922  0  1.037171  0  0  0.115618  0.096269  0  1.044183  0
H  H54  1  0.57101413  0.29741329  0.05959912  1  0  0.082961  0  0.938247  0  0  0.0999  0  1.000532  0  0  0.099744  0  1.002166  0  0  0.111989  0.100068  0  0.999287  0
H  H55  1  0.13184563  0.29723739  0.44044297  1  0  0.083089  0  0.937687  0  0  0.100786  0  0.999631  0  0  0.100599  0  1.00125  0  0  0.111846  0.10032  0  0.998788  0
H  H56  1  0.42898709  0.70258766  0.94040017  1  0  0.082976  0  0.938228  0  0  0.099927  0  1.000496  0  0  0.099772  0  1.00213  0  0  0.11201  0.100096  0  0.999254  0
H  H57  1  0.86815362  0.70276475  0.55955858  1  0  0.083137  0  0.937643  0  0  0.100814  0  0.999582  0  0  0.100627  0  1.001201  0  0  0.111837  0.10035  0  0.99874  0
H  H58  1  0.53733647  0.13599713  0.02461082  1  0  0.048462  0  0.930573  0  0  0.060998  0  1.006108  0  0  0.062388  0  1.0041  0  0  0.093871  0.060135  0  1.007256  0
H  H59  1  0.32695446  0.13589133  0.47541706  1  0  0.047895  0  0.930354  0  0  0.060797  0  1.005775  0  0  0.062129  0  1.003774  0  0  0.093253  0.059433  0  1.007652  0
H  H60  1  0.46266473  0.86400382  0.97538902  1  0  0.048445  0  0.930567  0  0  0.060975  0  1.006111  0  0  0.062363  0  1.00411  0  0  0.093853  0.060116  0  1.007255  0
H  H61  1  0.67304615  0.86411081  0.52458279  1  0  0.047903  0  0.930351  0  0  0.060785  0  1.00577  0  0  0.062118  0  1.003768  0  0  0.093246  0.059426  0  1.007645  0
C  C62  1  0.49420071  0.01163147  0.75009011  1  0  0.258271  0  3.538435  0  0  0.292561  0  3.759848  0  0  0.294762  0  3.779321  0  0  -0.013999  0.291401  0  3.746226  0
C  C63  1  0.50579842  0.98836829  0.24990984  1  0  0.25824  0  3.538466  0  0  0.292544  0  3.759834  0  0  0.294744  0  3.779307  0  0  -0.01399  0.291384  0  3.746209  0
C  C64  1  0.30873710  0.36924632  0.94453186  1  0  -0.170661  0  3.708473  0  0  -0.186521  0  3.953777  0  0  -0.195762  0  3.97552  0  0  -0.083393  -0.180433  0  3.939179  0
C  C65  1  0.32205512  0.36922898  0.55550719  1  0  -0.170386  0  3.709023  0  0  -0.186336  0  3.9542  0  0  -0.195501  0  3.975713  0  0  -0.08318  -0.180356  0  3.93935  0
C  C66  1  0.69126725  0.63075107  0.05546628  1  0  -0.170711  0  3.708416  0  0  -0.18656  0  3.953759  0  0  -0.1958  0  3.975502  0  0  -0.083402  -0.180503  0  3.939144  0
C  C67  1  0.67794341  0.63077197  0.44449331  1  0  -0.170339  0  3.709057  0  0  -0.18628  0  3.95425  0  0  -0.195421  0  3.975773  0  0  -0.083157  -0.180304  0  3.939397  0
C  C68  1  0.50935456  0.32372373  0.94777514  1  0  0.14265  0  3.704313  0  0  0.15294  0  3.946883  0  0  0.158909  0  3.968747  0  0  0.019008  0.148992  0  3.931894  0
C  C69  1  0.16702879  0.32357673  0.55230695  1  0  0.143229  0  3.702769  0  0  0.153942  0  3.945504  0  0  0.159985  0  3.967263  0  0  0.018671  0.150325  0  3.930245  0
C  C70  1  0.49064858  0.67627604  0.05222410  1  0  0.142702  0  3.7042  0  0  0.152982  0  3.946778  0  0  0.158953  0  3.968642  0  0  0.019031  0.149028  0  3.931801  0
C  C71  1  0.83296901  0.67642304  0.44769360  1  0  0.143174  0  3.702864  0  0  0.153811  0  3.945645  0  0  0.159855  0  3.9674  0  0  0.018643  0.150205  0  3.930381  0
C  C72  1  0.45745402  0.77261425  0.68965914  1  0  0.696534  0  3.853044  0  0  0.649351  0  4.153476  0  0  0.682083  0  4.147582  0  0  0.202249  0.62717  0  4.156314  0
C  C73  1  0.76979104  0.77256169  0.81046630  1  0  0.69705  0  3.852704  0  0  0.649741  0  4.15276  0  0  0.682431  0  4.146957  0  0  0.202965  0.627527  0  4.156004  0
C  C74  1  0.54254318  0.22738670  0.31034087  1  0  0.696581  0  3.852982  0  0  0.649372  0  4.153444  0  0  0.68209  0  4.147569  0  0  0.202281  0.627204  0  4.156266  0
C  C75  1  0.23020616  0.22743926  0.18953425  1  0  0.697061  0  3.852848  0  0  0.649775  0  4.152859  0  0  0.682467  0  4.147054  0  0  0.203007  0.62755  0  4.156124  0
C  C76  1  0.50569669  0.47738764  0.83690759  1  0  0.138085  0  3.687638  0  0  0.105123  0  3.941175  0  0  0.114254  0  3.956315  0  0  0.052371  0.098651  0  3.931724  0
C  C77  1  0.01717789  0.47715343  0.66329272  1  0  0.136995  0  3.689471  0  0  0.104585  0  3.943434  0  0  0.113764  0  3.958441  0  0  0.052363  0.098674  0  3.933434  0
C  C78  1  0.49430512  0.52261212  0.16309170  1  0  0.138239  0  3.687593  0  0  0.105273  0  3.941124  0  0  0.114405  0  3.956261  0  0  0.05242  0.0988  0  3.93167  0
C  C79  1  0.98282064  0.52284753  0.33670778  1  0  0.13709  0  3.689449  0  0  0.104683  0  3.943393  0  0  0.113862  0  3.958399  0  0  0.052443  0.098768  0  3.933397  0
C  C80  1  0.87677121  0.00907730  0.94440591  1  0  -0.015239  0  3.690608  0  0  -0.073725  0  3.956975  0  0  -0.070523  0  3.968847  0  0  -0.069848  -0.075815  0  3.948727  0
C  C81  1  0.11438169  0.00894498  0.55553010  1  0  -0.017002  0  3.692824  0  0  -0.074582  0  3.958081  0  0  -0.071466  0  3.970116  0  0  -0.06994  -0.076472  0  3.949656  0
C  C82  1  0.12323058  0.99092247  0.05559448  1  0  -0.015382  0  3.690698  0  0  -0.073795  0  3.95698  0  0  -0.070584  0  3.968838  0  0  -0.069889  -0.075895  0  3.948751  0
C  C83  1  0.88562011  0.99105478  0.44446975  1  0  -0.016941  0  3.692767  0  0  -0.074507  0  3.958019  0  0  -0.07139  0  3.97005  0  0  -0.06993  -0.0764  0  3.94959  0
C  C84  1  0.60769223  0.38136714  0.89283093  1  0  -0.154805  0  3.678616  0  0  -0.174407  0  3.930657  0  0  -0.182444  0  3.949245  0  0  -0.076731  -0.169347  0  3.918481  0
C  C85  1  0.01116748  0.38111184  0.60734305  1  0  -0.15491  0  3.678431  0  0  -0.174732  0  3.929842  0  0  -0.182759  0  3.948395  0  0  -0.076847  -0.170073  0  3.917985  0
C  C86  1  0.39231284  0.61863144  0.10716825  1  0  -0.15498  0  3.678587  0  0  -0.174552  0  3.930658  0  0  -0.18259  0  3.949245  0  0  -0.076795  -0.169481  0  3.918469  0
C  C87  1  0.98882912  0.61889031  0.39265750  1  0  -0.154917  0  3.678497  0  0  -0.17468  0  3.92991  0  0  -0.182706  0  3.948463  0  0  -0.076837  -0.170019  0  3.918052  0
C  C88  1  0.90264869  0.07495921  0.06758011  1  0  -0.014666  0  3.684192  0  0  -0.071837  0  3.946984  0  0  -0.068114  0  3.958282  0  0  -0.069452  -0.074213  0  3.939099  0
C  C89  1  0.02253007  0.07472889  0.43239559  1  0  -0.014333  0  3.684508  0  0  -0.072022  0  3.947755  0  0  -0.068181  0  3.959078  0  0  -0.069787  -0.074391  0  3.939274  0
C  C90  1  0.09735250  0.92504175  0.93242029  1  0  -0.014672  0  3.6843  0  0  -0.071759  0  3.946991  0  0  -0.06804  0  3.958297  0  0  -0.06939  -0.074132  0  3.939098  0
C  C91  1  0.97746848  0.92527206  0.56760381  1  0  -0.014424  0  3.684543  0  0  -0.072117  0  3.947829  0  0  -0.068274  0  3.959148  0  0  -0.069823  -0.074482  0  3.939343  0
C  C92  1  0.60443189  0.11876305  0.73248081  1  0  -0.34725  0  3.663485  0  0  -0.424464  0  3.895387  0  0  -0.427802  0  3.905289  0  0  -0.254821  -0.422216  0  3.889142  0
C  C93  1  0.27682887  0.11890681  0.76774423  1  0  -0.348027  0  3.663581  0  0  -0.425138  0  3.895933  0  0  -0.428311  0  3.90563  0  0  -0.255355  -0.42268  0  3.888803  0
C  C94  1  0.39556650  0.88123552  0.26751919  1  0  -0.347232  0  3.6635  0  0  -0.424444  0  3.895402  0  0  -0.42778  0  3.905304  0  0  -0.254834  -0.422195  0  3.889162  0
C  C95  1  0.72317027  0.88109296  0.23225517  1  0  -0.347942  0  3.663485  0  0  -0.425069  0  3.895856  0  0  -0.42824  0  3.905555  0  0  -0.255301  -0.422603  0  3.888723  0
C  C96  1  0.52849784  0.90602807  0.68153138  1  0  -0.326319  0  3.621289  0  0  -0.36211  0  3.848898  0  0  -0.369788  0  3.858966  0  0  -0.167944  -0.356764  0  3.841593  0
C  C97  1  0.56537810  0.90605640  0.81861830  1  0  -0.325  0  3.62087  0  0  -0.360274  0  3.847878  0  0  -0.367836  0  3.857794  0  0  -0.167308  -0.355401  0  3.841205  0
C  C98  1  0.47150131  0.09397169  0.31846802  1  0  -0.326301  0  3.621296  0  0  -0.36207  0  3.848905  0  0  -0.369742  0  3.858975  0  0  -0.167923  -0.356727  0  3.841598  0
C  C99  1  0.43461971  0.09394336  0.18138115  1  0  -0.325086  0  3.620825  0  0  -0.360315  0  3.847787  0  0  -0.367875  0  3.857699  0  0  -0.167352  -0.355444  0  3.841115  0
C  C100  1  0.21521919  0.46669765  0.88776763  1  0  0.125407  0  3.707646  0  0  0.094884  0  3.954209  0  0  0.102486  0  3.971743  0  0  0.044217  0.090037  0  3.942213  0
C  C101  1  0.31815432  0.46666589  0.61231762  1  0  0.124463  0  3.707568  0  0  0.093997  0  3.954655  0  0  0.101683  0  3.97218  0  0  0.043586  0.089399  0  3.942378  0
C  C102  1  0.78478502  0.53329735  0.11223056  1  0  0.125438  0  3.707625  0  0  0.094943  0  3.954182  0  0  0.102527  0  3.971702  0  0  0.044214  0.090094  0  3.9422  0
C  C103  1  0.68184034  0.53333745  0.38768409  1  0  0.124582  0  3.707526  0  0  0.094085  0  3.954627  0  0  0.101773  0  3.972145  0  0  0.043585  0.08949  0  3.942352  0
C  C104  1  0.60741121  0.22031348  0.01056895  1  0  -0.053729  0  3.727429  0  0  -0.108269  0  3.975123  0  0  -0.10577  0  3.986969  0  0  -0.059052  -0.109959  0  3.966731  0
C  C105  1  0.17249389  0.22016300  0.48945276  1  0  -0.052133  0  3.727103  0  0  -0.108612  0  3.976729  0  0  -0.106106  0  3.988711  0  0  -0.057982  -0.109949  0  3.968406  0
C  C106  1  0.39259059  0.77968628  0.98943089  1  0  -0.053737  0  3.727385  0  0  -0.108273  0  3.975069  0  0  -0.10578  0  3.986922  0  0  -0.059053  -0.109968  0  3.966682  0
C  C107  1  0.82750598  0.77983796  0.51054768  1  0  -0.052224  0  3.727112  0  0  -0.108625  0  3.976696  0  0  -0.106119  0  3.988678  0  0  -0.057965  -0.109975  0  3.968391  0
N  N108  1  0.31284563  0.51930005  0.83412826  1  0  -0.350895  0  3.322724  0  0  -0.265161  0  3.611514  0  0  -0.285715  0  3.624775  0  0  -0.339117  -0.251373  0  3.602463  0
N  N109  1  0.16804178  0.51916077  0.66603351  1  0  -0.35043  0  3.323763  0  0  -0.264769  0  3.612552  0  0  -0.285282  0  3.625738  0  0  -0.338936  -0.251244  0  3.603012  0
N  N110  1  0.68715545  0.48069852  0.16587053  1  0  -0.350935  0  3.322767  0  0  -0.265204  0  3.611557  0  0  -0.28576  0  3.624829  0  0  -0.339095  -0.251419  0  3.602512  0
N  N111  1  0.83195541  0.48084019  0.33396760  1  0  -0.350548  0  3.323603  0  0  -0.264853  0  3.612389  0  0  -0.285367  0  3.625573  0  0  -0.338968  -0.251327  0  3.602855  0
N  N112  1  0.81817870  0.13843483  0.99799238  1  0  -0.237191  0  3.237695  0  0  -0.164858  0  3.504722  0  0  -0.179254  0  3.52349  0  0  -0.347003  -0.154482  0  3.490942  0
N  N113  1  0.04367149  0.13825204  0.50197628  1  0  -0.237526  0  3.239612  0  0  -0.164446  0  3.506368  0  0  -0.179013  0  3.525283  0  0  -0.346933  -0.154537  0  3.49294  0
N  N114  1  0.18182308  0.86156494  0.00200857  1  0  -0.237113  0  3.237671  0  0  -0.164818  0  3.504681  0  0  -0.17921  0  3.523436  0  0  -0.347002  -0.154434  0  3.490894  0
N  N115  1  0.95632765  0.86174773  0.49802312  1  0  -0.237499  0  3.239598  0  0  -0.164444  0  3.506362  0  0  -0.179006  0  3.525266  0  0  -0.346964  -0.154537  0  3.492943  0
O  O116  1  0.27990939  0.81291879  0.71940442  1  0  -0.653258  0  2.051316  0  0  -0.565228  0  2.320779  0  0  -0.59411  0  2.305668  0  0  -0.335509  -0.544906  0  2.330348  0
O  O117  1  0.90705614  0.81276176  0.78069142  1  0  -0.654147  0  2.051464  0  0  -0.565201  0  2.319941  0  0  -0.594139  0  2.304877  0  0  -0.33573  -0.545098  0  2.329662  0
O  O118  1  0.72008916  0.18708216  0.28059498  1  0  -0.653307  0  2.051234  0  0  -0.565251  0  2.320694  0  0  -0.594133  0  2.30559  0  0  -0.335549  -0.544933  0  2.330261  0
O  O119  1  0.09294165  0.18723800  0.21930914  1  0  -0.654138  0  2.051453  0  0  -0.56522  0  2.319938  0  0  -0.594162  0  2.304875  0  0  -0.335749  -0.545113  0  2.329669  0
O  O120  1  0.56852263  0.63496480  0.66764371  1  0  -0.642036  0  1.902327  0  0  -0.59556  0  2.126054  0  0  -0.618541  0  2.117542  0  0  -0.332341  -0.57909  0  2.13173  0
O  O121  1  0.79635901  0.63497184  0.83251463  1  0  -0.641939  0  1.902925  0  0  -0.595685  0  2.127064  0  0  -0.61868  0  2.118447  0  0  -0.332869  -0.579347  0  2.132402  0
O  O122  1  0.43147650  0.36503497  0.33235624  1  0  -0.642023  0  1.90237  0  0  -0.595554  0  2.126114  0  0  -0.618527  0  2.117606  0  0  -0.332335  -0.579093  0  2.131789  0
O  O123  1  0.20363935  0.36502674  0.16748757  1  0  -0.641921  0  1.903039  0  0  -0.595675  0  2.12717  0  0  -0.618675  0  2.118556  0  0  -0.332888  -0.579329  0  2.13251  0
