# generated using pymatgen
data_AlH18C27(NO2)3
_symmetry_space_group_name_H-M   'P 1'
_cell_length_a   4.01037777
_cell_length_b   27.74700118
_cell_length_c   27.80943393
_cell_angle_alpha   60.06549799
_cell_angle_beta   90.58915956
_cell_angle_gamma   90.00552794
_symmetry_Int_Tables_number   1
_chemical_formula_structural   AlH18C27(NO2)3
_chemical_formula_sum   'Al3 H54 C81 N9 O18'
_cell_volume   2681.51409346
_cell_formula_units_Z   3
loop_
 _symmetry_equiv_pos_site_id
 _symmetry_equiv_pos_as_xyz
  1  'x, y, z'
loop_
 _atom_site_type_symbol
 _atom_site_label
 _atom_site_symmetry_multiplicity
 _atom_site_fract_x
 _atom_site_fract_y
 _atom_site_fract_z
 _atom_site_occupancy
 _atom_site_pbe_bader_charge
 _atom_site_pbe_bader_spin_density
 _atom_site_pbe_cm5_charge
 _atom_site_pbe_ddec_charge
 _atom_site_pbe_ddec_spin_density
 _atom_site_pbe_ddec_sum_bond_order
 _atom_site_pbe_magmom
Al  Al0  1  0.99146834  0.49841232  0.50061526  1  2.504651  0  0.426438  1.598157  0  2.56789  0
Al  Al1  1  0.96069613  0.83307703  0.83316378  1  2.502603  0  0.428392  1.590512  0  2.582439  0
Al  Al2  1  0.05159995  0.16639547  0.16637291  1  2.500996  0  0.428781  1.594431  0  2.577685  0
H  H3  1  0.52551315  0.07667977  0.92214506  1  0.050755  0  0.096051  0.092473  0  1.033463  0
H  H4  1  0.51591671  0.25534568  0.83461632  1  0.046706  0  0.096521  0.093475  0  1.032051  0
H  H5  1  0.49134779  0.16740889  0.74380163  1  0.04398  0  0.096602  0.093338  0  1.031849  0
H  H6  1  0.78028066  0.92917864  0.90439433  1  0.074271  0  0.10536  0.110453  0  0.984511  0
H  H7  1  0.80587496  0.01745783  0.90594086  1  0.082108  0  0.097084  0.101143  0  1.014662  0
H  H8  1  0.16926391  0.09468334  0.76050749  1  0.034808  0  0.099551  0.108858  0  1.012553  0
H  H9  1  0.23503836  0.09270535  0.98012750  1  0.024752  0  0.099622  0.109118  0  1.012298  0
H  H10  1  0.85354285  0.23807378  0.99746429  1  0.078873  0  0.105517  0.110476  0  0.985278  0
H  H11  1  0.85229374  0.23898433  0.90797885  1  0.065091  0  0.097399  0.101417  0  1.01378  0
H  H12  1  0.81092269  0.31241414  0.76198331  1  0.049412  0  0.098195  0.107554  0  1.015498  0
H  H13  1  0.18536147  0.33320269  0.59822751  1  0.055302  0  0.10771  0.11268  0  0.988929  0
H  H14  1  0.18366860  0.24239099  0.68567094  1  0.028166  0  0.095839  0.099989  0  1.016935  0
H  H15  1  0.49954514  0.49907165  0.07822605  1  0.048679  0  0.095991  0.092515  0  1.033295  0
H  H16  1  0.51305896  0.59010296  0.16584508  1  0.031023  0  0.096332  0.092832  0  1.031825  0
H  H17  1  0.52693851  0.41127757  0.25661397  1  0.056164  0  0.096807  0.094158  0  1.030192  0
H  H18  1  0.23364462  0.33479169  0.09511700  1  0.046992  0  0.105434  0.110205  0  0.984536  0
H  H19  1  0.21135854  0.42425586  0.09432608  1  0.044031  0  0.097305  0.10158  0  1.014753  0
H  H20  1  0.84709764  0.35457047  0.23989847  1  0.040213  0  0.099378  0.108869  0  1.012181  0
H  H21  1  0.79509921  0.57332712  0.02025572  1  0.046224  0  0.099449  0.108758  0  1.012397  0
H  H22  1  0.16995601  0.73550228  0.00280927  1  0.068807  0  0.105106  0.109531  0  0.985141  0
H  H23  1  0.17547245  0.64712083  0.09243964  1  0.057514  0  0.096891  0.101152  0  1.014564  0
H  H24  1  0.20802516  0.57436837  0.23792834  1  0.045418  0  0.098449  0.107811  0  1.015041  0
H  H25  1  0.81720336  0.43048111  0.40333447  1  0.079142  0  0.107994  0.112827  0  0.987849  0
H  H26  1  0.83638321  0.42820770  0.31536613  1  0.050501  0  0.096094  0.100872  0  1.015124  0
H  H27  1  0.51244355  0.92177051  0.50106656  1  0.046613  0  0.096529  0.093533  0  1.031922  0
H  H28  1  0.49301259  0.83439661  0.40988010  1  0.034934  0  0.096366  0.092615  0  1.032515  0
H  H29  1  0.47086785  0.74313374  0.58821065  1  0.061775  0  0.09656  0.093694  0  1.031774  0
H  H30  1  0.77121971  0.90400130  0.66567343  1  0.086259  0  0.105323  0.110744  0  0.984443  0
H  H31  1  0.79040297  0.90506510  0.57635366  1  0.070697  0  0.097534  0.101553  0  1.014963  0
H  H32  1  0.16252595  0.76001054  0.64455238  1  0.04904  0  0.0994  0.108994  0  1.012799  0
H  H33  1  0.22281537  0.98154260  0.42543578  1  0.054509  0  0.099714  0.109212  0  1.011578  0
H  H34  1  0.85137423  0.99543502  0.26649669  1  0.093216  0  0.105262  0.110245  0  0.983984  0
H  H35  1  0.83999725  0.90586390  0.35487299  1  0.060231  0  0.09687  0.100648  0  1.015307  0
H  H36  1  0.78574088  0.76136996  0.42574655  1  0.060397  0  0.098542  0.108312  0  1.014761  0
H  H37  1  0.17617741  0.59753089  0.56750079  1  0.094124  0  0.105662  0.109969  0  0.992382  0
H  H38  1  0.16595295  0.68514341  0.57077727  1  0.023381  0  0.095799  0.100754  0  1.015581  0
H  H39  1  0.99768747  0.96933362  0.76023576  1  0.467252  0  0.293001  0.296299  0  0.98493  0
H  H40  1  0.94863816  0.03819079  0.72783286  1  0.425301  0  0.300648  0.297148  0  0.941393  0
H  H41  1  0.09995370  0.09279461  0.10564934  1  0.45304  0  0.293794  0.297175  0  0.984179  0
H  H42  1  0.04598933  0.05958402  0.07014504  1  0.435482  0  0.300623  0.296158  0  0.941677  0
H  H43  1  0.89648776  0.44404405  0.63778774  1  0.495357  0  0.303589  0.315096  0  0.970875  0
H  H44  1  0.02033337  0.40225141  0.70579384  1  0.439284  0  0.304417  0.301583  0  0.943628  0
H  H45  1  0.01817728  0.22991145  0.23883760  1  0.454933  0  0.292175  0.294821  0  0.988655  0
H  H46  1  0.06123151  0.26510127  0.27261001  1  0.420032  0  0.30133  0.297518  0  0.939511  0
H  H47  1  0.93039465  0.69869714  0.89513220  1  0.468248  0  0.292382  0.29546  0  0.990449  0
H  H48  1  0.97987817  0.62989433  0.93015220  1  0.427982  0  0.300618  0.296955  0  0.940031  0
H  H49  1  0.09313071  0.57947063  0.36256041  1  0.489907  0  0.300037  0.309558  0  0.979504  0
H  H50  1  0.98375644  0.60695649  0.29388597  1  0.437147  0  0.303969  0.301689  0  0.942289  0
H  H51  1  0.00035484  0.76037959  0.76943311  1  0.463905  0  0.292455  0.294921  0  0.987374  0
H  H52  1  0.95415101  0.72710574  0.73380506  1  0.429563  0  0.301094  0.297524  0  0.940484  0
H  H53  1  0.09224815  0.10665039  0.29981014  1  0.466202  0  0.291692  0.294472  0  0.992724  0
H  H54  1  0.04515817  0.07248179  0.36828856  1  0.4279  0  0.300754  0.29745  0  0.939567  0
H  H55  1  0.88580187  0.63679255  0.41918529  1  0.483466  0  0.300126  0.309178  0  0.979989  0
H  H56  1  0.00118500  0.70502684  0.39274147  1  0.434813  0  0.303859  0.302468  0  0.941901  0
C  C57  1  0.48864000  0.57483989  0.49797751  1  1.500711  0  0.263175  0.653422  0  4.056075  0
C  C58  1  0.49475177  0.42581398  0.57587831  1  1.495341  0  0.267532  0.656254  0  4.052827  0
C  C59  1  0.49085266  0.49940754  0.42570159  1  1.529327  0  0.266403  0.656313  0  4.053577  0
C  C60  1  0.45923668  0.90815178  0.83194321  1  1.570924  0  0.287513  0.696898  0  4.009584  0
C  C61  1  0.46888602  0.75849288  0.90775871  1  1.556163  0  0.287251  0.696782  0  4.007832  0
C  C62  1  0.45628371  0.83181826  0.75903977  1  1.541905  0  0.285751  0.695417  0  4.009614  0
C  C63  1  0.54800489  0.16603582  0.09228454  1  1.547361  0  0.287115  0.695209  0  4.011927  0
C  C64  1  0.55277372  0.24073088  0.16721554  1  1.547147  0  0.28637  0.69715  0  4.00914  0
C  C65  1  0.55159227  0.09193046  0.24159510  1  1.55429  0  0.286995  0.69735  0  4.004209  0
C  C66  1  0.53100982  0.16601810  0.88443699  1  0.013786  0  -0.00662  0.082208  0  4.01415  0
C  C67  1  0.52051244  0.11617216  0.88320886  1  -0.049643  0  -0.089281  -0.174032  0  3.927493  0
C  C68  1  0.50083799  0.11587451  0.83302135  1  -0.033804  0  -0.005937  0.083156  0  4.010609  0
C  C69  1  0.49371322  0.16693978  0.78324553  1  -0.011198  0  -0.088616  -0.173186  0  3.92594  0
C  C70  1  0.50413180  0.21754962  0.78304899  1  0.022346  0  -0.006273  0.079765  0  4.010239  0
C  C71  1  0.52134711  0.21635536  0.83402527  1  -0.060928  0  -0.08882  -0.173999  0  3.927649  0
C  C72  1  0.64181749  0.96551734  0.87344999  1  -0.042899  0  -0.089146  -0.081804  0  4.036487  0
C  C73  1  0.65411703  0.01506039  0.87451409  1  -0.044016  0  -0.107708  -0.166304  0  4.022674  0
C  C74  1  0.48988451  0.06267891  0.83288045  1  -0.021128  0  -0.009203  0.084658  0  4.034314  0
C  C75  1  0.31227183  0.05883903  0.79135395  1  -0.019909  0  -0.106333  -0.256346  0  3.952345  0
C  C76  1  0.28996566  0.00888606  0.79030972  1  0.41101  0  0.09376  0.278827  0  4.103127  0
C  C77  1  0.46272582  0.96195407  0.83196311  1  -0.029628  0  -0.030162  -0.172732  0  3.957939  0
C  C78  1  0.38001159  0.12387222  0.98411008  1  0.004554  0  -0.107038  -0.257518  0  3.956336  0
C  C79  1  0.37341751  0.12308134  0.03491558  1  0.419257  0  0.093238  0.277175  0  4.104713  0
C  C80  1  0.54500982  0.16545370  0.03888684  1  -0.003042  0  -0.029196  -0.169531  0  3.954384  0
C  C81  1  0.71305153  0.20681613  0.99303368  1  -0.030965  0  -0.089419  -0.082274  0  4.036058  0
C  C82  1  0.71071342  0.20749287  0.94266306  1  -0.072644  0  -0.107958  -0.166646  0  4.022709  0
C  C83  1  0.54239570  0.16569093  0.93774136  1  -0.018485  0  -0.008357  0.086851  0  4.034564  0
C  C84  1  0.66676627  0.31688333  0.72645335  1  0.041045  0  -0.109674  -0.268928  0  3.949462  0
C  C85  1  0.67685028  0.36846152  0.67688026  1  0.436929  0  0.106983  0.30605  0  4.07938  0
C  C86  1  0.49996368  0.37384478  0.62969893  1  -0.018238  0  -0.031223  -0.183177  0  3.941818  0
C  C87  1  0.32561022  0.32765762  0.63442120  1  -0.015384  0  -0.081256  -0.058992  0  4.015896  0
C  C88  1  0.32798123  0.27685383  0.68306474  1  0.022168  0  -0.11177  -0.178758  0  4.026214  0
C  C89  1  0.49943924  0.27104844  0.73027391  1  -0.112767  0  -0.003147  0.100775  0  4.024584  0
C  C90  1  0.49703349  0.55069514  0.11595020  1  0.001497  0  -0.007096  0.082194  0  4.012706  0
C  C91  1  0.50459986  0.49958819  0.11718254  1  -0.048121  0  -0.08867  -0.17287  0  3.924982  0
C  C92  1  0.52062630  0.44902906  0.16737948  1  0.005901  0  -0.00612  0.081995  0  4.009786  0
C  C93  1  0.52757935  0.45027672  0.21717912  1  -0.054084  0  -0.088884  -0.174282  0  3.923499  0
C  C94  1  0.51985093  0.50069375  0.21739988  1  -0.029893  0  -0.005839  0.081837  0  4.006869  0
C  C95  1  0.50627436  0.55053330  0.16640422  1  -0.018938  0  -0.089053  -0.174603  0  3.926988  0
C  C96  1  0.37296528  0.33976092  0.12624764  1  0.003614  0  -0.089349  -0.080688  0  4.036345  0
C  C97  1  0.36226249  0.39017143  0.12562959  1  -0.009497  0  -0.108366  -0.167951  0  4.025196  0
C  C98  1  0.52747423  0.39571608  0.16743270  1  -0.037014  0  -0.009022  0.085623  0  4.034456  0
C  C99  1  0.70350498  0.35001329  0.20883225  1  -0.019183  0  -0.106343  -0.256819  0  3.952675  0
C  C100  1  0.72401795  0.29918961  0.20947569  1  0.432798  0  0.094127  0.279514  0  4.102267  0
C  C101  1  0.55126667  0.29441657  0.16751302  1  -0.037516  0  -0.029881  -0.173637  0  3.956948  0
C  C102  1  0.64879435  0.60836613  0.01625508  1  -0.013518  0  -0.106768  -0.257504  0  3.955757  0
C  C103  1  0.65338962  0.65832679  0.96533721  1  0.357017  0  0.093657  0.278723  0  4.102032  0
C  C104  1  0.47854749  0.70450465  0.96124188  1  0.004755  0  -0.029209  -0.171478  0  3.952215  0
C  C105  1  0.31206667  0.69996260  0.00724130  1  -0.022612  0  -0.089221  -0.080578  0  4.03456  0
C  C106  1  0.31694759  0.65036656  0.05772406  1  -0.094382  0  -0.107993  -0.16794  0  4.023337  0
C  C107  1  0.48624203  0.60371590  0.06264934  1  0.050691  0  -0.008113  0.087203  0  4.034184  0
C  C108  1  0.34874915  0.54310651  0.27384014  1  0.009234  0  -0.109803  -0.268647  0  3.95151  0
C  C109  1  0.32862625  0.54446049  0.32365042  1  0.42615  0  0.106751  0.305302  0  4.077397  0
C  C110  1  0.49938578  0.50227029  0.37139406  1  0.005047  0  -0.032214  -0.18416  0  3.940711  0
C  C111  1  0.68033501  0.46130273  0.36677187  1  -0.02465  0  -0.081708  -0.058163  0  4.014473  0
C  C112  1  0.68773076  0.45974582  0.31783423  1  -0.036113  0  -0.110362  -0.178198  0  4.025848  0
C  C113  1  0.51977834  0.50127088  0.27024025  1  -0.058729  0  -0.003464  0.099011  0  4.026726  0
C  C114  1  0.51330247  0.88406685  0.44948903  1  0.007561  0  -0.006954  0.082553  0  4.013478  0
C  C115  1  0.50442291  0.88278401  0.50048330  1  -0.044477  0  -0.088153  -0.172699  0  3.922526  0
C  C116  1  0.48388626  0.83250747  0.55080374  1  0.016539  0  -0.006596  0.082316  0  4.00934  0
C  C117  1  0.47332392  0.78270924  0.54936486  1  -0.058715  0  -0.088666  -0.174299  0  3.924765  0
C  C118  1  0.48159131  0.78257001  0.49903875  1  -0.046306  0  -0.006373  0.080596  0  4.009669  0
C  C119  1  0.49965678  0.83365259  0.44945303  1  -0.019147  0  -0.08916  -0.174171  0  3.929087  0
C  C120  1  0.63311251  0.87302592  0.66043787  1  -0.041961  0  -0.088368  -0.079642  0  4.032178  0
C  C121  1  0.64180191  0.87381774  0.61005721  1  -0.054411  0  -0.107701  -0.166772  0  4.022561  0
C  C122  1  0.47774210  0.83229011  0.60408196  1  -0.006512  0  -0.008999  0.084998  0  4.034285  0
C  C123  1  0.30526236  0.79087367  0.64940063  1  0.005863  0  -0.106795  -0.257895  0  3.953977  0
C  C124  1  0.28733893  0.78999351  0.70021469  1  0.368866  0  0.093411  0.278696  0  4.103029  0
C  C125  1  0.45801995  0.83179442  0.70534503  1  -0.005667  0  -0.029825  -0.171664  0  3.955185  0
C  C126  1  0.37082274  0.98476069  0.39121446  1  -0.042582  0  -0.10611  -0.257015  0  3.955984  0
C  C127  1  0.36968653  0.03569176  0.34124821  1  0.399426  0  0.092579  0.278815  0  4.099486  0
C  C128  1  0.54517293  0.03881250  0.29592980  1  -0.032364  0  -0.029039  -0.171105  0  3.949685  0
C  C129  1  0.70948037  0.99187435  0.30137312  1  -0.061164  0  -0.088678  -0.079905  0  4.033034  0
C  C130  1  0.70117628  0.94141153  0.35095946  1  -0.008033  0  -0.107873  -0.16663  0  4.021167  0
C  C131  1  0.53016822  0.93741484  0.39668365  1  -0.025578  0  -0.007817  0.086507  0  4.035679  0
C  C132  1  0.64452784  0.72584151  0.45648770  1  -0.031982  0  -0.108623  -0.267409  0  3.950577  0
C  C133  1  0.65934334  0.67616037  0.45455948  1  0.389073  0  0.105524  0.304826  0  4.077639  0
C  C134  1  0.48801497  0.62885608  0.49606418  1  -0.004004  0  -0.031991  -0.18333  0  3.942187  0
C  C135  1  0.31339213  0.63371673  0.53714124  1  -0.009704  0  -0.08367  -0.060767  0  4.020142  0
C  C136  1  0.31076932  0.68249253  0.53923820  1  -0.013737  0  -0.110323  -0.177235  0  4.024715  0
C  C137  1  0.47787999  0.72975612  0.49819067  1  0.005113  0  -0.003504  0.099028  0  4.02592  0
N  N138  1  0.11362282  0.00633284  0.74830032  1  -1.224777  0  -0.607695  -0.62656  0  3.266091  0
N  N139  1  0.21167422  0.08074233  0.08047279  1  -1.225697  0  -0.608649  -0.626698  0  3.266271  0
N  N140  1  0.84111140  0.41224286  0.67628985  1  -1.260331  0  -0.600576  -0.624844  0  3.309523  0
N  N141  1  0.89913968  0.25429243  0.25130144  1  -1.198063  0  -0.607009  -0.623985  0  3.267105  0
N  N142  1  0.81589926  0.66159611  0.91984675  1  -1.227963  0  -0.608437  -0.625858  0  3.267198  0
N  N143  1  0.15929164  0.58737803  0.32407165  1  -1.248533  0  -0.602422  -0.62461  0  3.307324  0
N  N144  1  0.11698296  0.74808004  0.74482648  1  -1.219144  0  -0.607334  -0.624556  0  3.269089  0
N  N145  1  0.20858363  0.08206619  0.33711605  1  -1.223108  0  -0.609  -0.627552  0  3.266304  0
N  N146  1  0.82421427  0.67553153  0.41172506  1  -1.248979  0  -0.601904  -0.62492  0  3.307991  0
O  O147  1  0.71982024  0.47200572  0.46148431  1  -1.268085  0  -0.244278  -0.601873  0  2.355918  0
O  O148  1  0.72160069  0.56495268  0.47226635  1  -1.259065  0  -0.246267  -0.61536  0  2.392987  0
O  O149  1  0.72776109  0.46163143  0.56589279  1  -1.257131  0  -0.241969  -0.612012  0  2.392274  0
O  O150  1  0.25131600  0.52487507  0.43478195  1  -1.271809  0  -0.244232  -0.616673  0  2.402408  0
O  O151  1  0.26001513  0.43334840  0.54123535  1  -1.25384  0  -0.242338  -0.601835  0  2.362363  0
O  O152  1  0.25832468  0.54004330  0.52501631  1  -1.261039  0  -0.247062  -0.607013  0  2.366707  0
O  O153  1  0.69364306  0.80620667  0.79385050  1  -1.260261  0  -0.234563  -0.606885  0  2.369241  0
O  O154  1  0.69252529  0.89899066  0.80634359  1  -1.25821  0  -0.23246  -0.602123  0  2.358412  0
O  O155  1  0.70113019  0.79330974  0.89861851  1  -1.255131  0  -0.235093  -0.596814  0  2.338769  0
O  O156  1  0.21931988  0.85716232  0.76753349  1  -1.253244  0  -0.234458  -0.596878  0  2.347708  0
O  O157  1  0.22787875  0.76706639  0.87379134  1  -1.259495  0  -0.231991  -0.603068  0  2.375635  0
O  O158  1  0.22490335  0.87409457  0.85745367  1  -1.25912  0  -0.233258  -0.596212  0  2.344322  0
O  O159  1  0.79021183  0.12596943  0.23253317  1  -1.252161  0  -0.23195  -0.603087  0  2.375811  0
O  O160  1  0.78600452  0.14036529  0.12686775  1  -1.259903  0  -0.232318  -0.60394  0  2.370483  0
O  O161  1  0.78629432  0.23194582  0.14175750  1  -1.253011  0  -0.233682  -0.595798  0  2.340426  0
O  O162  1  0.31658154  0.10069594  0.20685332  1  -1.252101  0  -0.237278  -0.601515  0  2.345526  0
O  O163  1  0.31778802  0.20622812  0.19264418  1  -1.260225  0  -0.23316  -0.606862  0  2.37307  0
O  O164  1  0.31315353  0.19160206  0.10094847  1  -1.249883  0  -0.233332  -0.595116  0  2.335262  0
