# generated using pymatgen
data_NiH10C4(NCl)2
_symmetry_space_group_name_H-M   'P 1'
_cell_length_a   6.19305273
_cell_length_b   7.87760504
_cell_length_c   7.87759142
_cell_angle_alpha   107.88301392
_cell_angle_beta   90.78229281
_cell_angle_gamma   90.78244503
_symmetry_Int_Tables_number   1
_chemical_formula_structural   NiH10C4(NCl)2
_chemical_formula_sum   'Ni2 H20 C8 N4 Cl4'
_cell_volume   365.65287236
_cell_formula_units_Z   2
loop_
 _symmetry_equiv_pos_site_id
 _symmetry_equiv_pos_as_xyz
  1  'x, y, z'
loop_
 _atom_site_type_symbol
 _atom_site_label
 _atom_site_symmetry_multiplicity
 _atom_site_fract_x
 _atom_site_fract_y
 _atom_site_fract_z
 _atom_site_occupancy
 _atom_site_pbe_bader_charge
 _atom_site_pbe_bader_spin_density
 _atom_site_pbe_cm5_charge
 _atom_site_pbe_ddec_charge
 _atom_site_pbe_ddec_spin_density
 _atom_site_pbe_ddec_sum_bond_order
 _atom_site_pbe_magmom
Ni  Ni0  1  0.75000032  0.07343828  0.92656247  1  0.950107  1.462181  0.44532  0.565883  1.684405  2.498301  1.451
Ni  Ni1  1  0.25000193  0.92656493  0.07343663  1  0.950142  1.46218  0.44533  0.565876  1.684399  2.498303  1.451
H  H2  1  0.06925935  0.26812332  0.00353963  1  0.444267  0.000215  0.265798  0.230733  0.00011  1.009909  0.0
H  H3  1  0.43074725  0.99645411  0.73187862  1  0.444775  0.000215  0.265879  0.23085  0.000111  1.009854  0.0
H  H4  1  0.93074459  0.73188123  0.99645738  1  0.44425  0.000215  0.265772  0.23067  0.000111  1.009952  0.0
H  H5  1  0.56925821  0.00354906  0.26812432  1  0.444304  0.000214  0.265778  0.230706  0.00011  1.009812  0.0
H  H6  1  0.70519405  0.51273327  0.09192266  1  0.063179  0.001805  0.093368  0.079404  0.001028  1.020427  0.001
H  H7  1  0.79481049  0.90807834  0.48726983  1  0.063137  0.001805  0.093357  0.079399  0.001028  1.020463  0.001
H  H8  1  0.29481140  0.48726859  0.90807480  1  0.06316  0.001805  0.093375  0.079431  0.001028  1.020369  0.001
H  H9  1  0.20518167  0.09191292  0.51272793  1  0.063117  0.001806  0.093301  0.079291  0.001028  1.020383  0.001
H  H10  1  0.83207789  0.40928831  0.23788743  1  0.073251  0.002855  0.096438  0.096339  0.001232  0.995716  0.002
H  H11  1  0.66792635  0.76210842  0.59071167  1  0.073227  0.002854  0.096458  0.096405  0.001232  0.995654  0.002
H  H12  1  0.16792758  0.59071356  0.76210749  1  0.073191  0.002855  0.096473  0.096452  0.001232  0.995643  0.002
H  H13  1  0.33206107  0.23788685  0.40929108  1  0.073259  0.002854  0.096463  0.0964  0.001232  0.995697  0.002
H  H14  1  0.02430785  0.27712814  0.70727785  1  0.069449  0.002695  0.103795  0.090984  0.000959  0.99988  0.001
H  H15  1  0.47568004  0.29271587  0.72287761  1  0.069244  0.002695  0.103788  0.090926  0.000959  0.999902  0.001
H  H16  1  0.97569607  0.72287640  0.29272043  1  0.06944  0.002696  0.103801  0.090945  0.000959  0.999904  0.001
H  H17  1  0.52431393  0.70728073  0.27711930  1  0.069293  0.002695  0.103777  0.090965  0.000959  0.999894  0.001
H  H18  1  0.81975580  0.43844773  0.78328166  1  0.056954  0.001376  0.102584  0.085873  0.000688  0.997236  0.001
H  H19  1  0.68023148  0.21671587  0.56155446  1  0.057126  0.001377  0.102627  0.085893  0.000688  0.997264  0.001
H  H20  1  0.18024965  0.56155414  0.21671580  1  0.057078  0.001377  0.102581  0.085855  0.000688  0.997254  0.001
H  H21  1  0.31975594  0.78327811  0.43844154  1  0.057237  0.001376  0.102604  0.085889  0.000688  0.997243  0.001
C  C22  1  0.85908540  0.46324921  0.12697769  1  0.227341  0.00937  -0.084469  -0.064845  0.00648  3.885949  0.006
C  C23  1  0.64092178  0.87302266  0.53675012  1  0.227487  0.009363  -0.084363  -0.06482  0.006479  3.886003  0.006
C  C24  1  0.14091856  0.53675666  0.87302227  1  0.227115  0.009369  -0.084442  -0.064945  0.00648  3.885992  0.006
C  C25  1  0.35908357  0.12697522  0.46324229  1  0.227725  0.009367  -0.084363  -0.064755  0.006481  3.885951  0.006
C  C26  1  0.97068169  0.38679553  0.82127381  1  0.256018  0.007977  -0.075608  -0.051363  0.005205  3.863273  0.005
C  C27  1  0.52931385  0.17872202  0.61320762  1  0.255948  0.007982  -0.075626  -0.051258  0.005206  3.863194  0.005
C  C28  1  0.02932217  0.61320766  0.17872658  1  0.255968  0.007978  -0.075532  -0.051203  0.005206  3.863216  0.005
C  C29  1  0.47068959  0.82126915  0.38679282  1  0.255556  0.007981  -0.075603  -0.051368  0.005205  3.863188  0.005
N  N30  1  0.92529018  0.31572431  0.97043635  1  -1.049884  0.089438  -0.489385  -0.300437  0.052477  3.507081  0.078
N  N31  1  0.57470337  0.02956136  0.68428325  1  -1.050106  0.089437  -0.489537  -0.300692  0.052476  3.507078  0.078
N  N32  1  0.07471205  0.68427888  0.02956656  1  -1.049597  0.089441  -0.48938  -0.300455  0.052479  3.507085  0.078
N  N33  1  0.42527925  0.97043658  0.31572661  1  -1.049843  0.089436  -0.489386  -0.300415  0.052476  3.506948  0.078
Cl  Cl34  1  0.07004957  0.92447804  0.78742252  1  -0.615754  0.153178  -0.235236  -0.449649  0.089618  1.486036  0.119
Cl  Cl35  1  0.42995360  0.21258337  0.07552717  1  -0.615735  0.153179  -0.235256  -0.449664  0.089619  1.486031  0.119
Cl  Cl36  1  0.92995275  0.07552783  0.21257995  1  -0.615684  0.153181  -0.235242  -0.449654  0.08962  1.486036  0.119
Cl  Cl37  1  0.57005196  0.78742378  0.92447956  1  -0.615743  0.153177  -0.23524  -0.449647  0.089618  1.486065  0.119
