# generated using pymatgen
data_CdH20C17S(N2O3)2
_symmetry_space_group_name_H-M   'P 1'
_cell_length_a   8.62747562
_cell_length_b   8.62748549
_cell_length_c   14.21349752
_cell_angle_alpha   90.00012491
_cell_angle_beta   90.00005086
_cell_angle_gamma   114.30517261
_symmetry_Int_Tables_number   1
_chemical_formula_structural   CdH20C17S(N2O3)2
_chemical_formula_sum   'Cd2 H40 C34 S2 N8 O12'
_cell_volume   964.18821105
_cell_formula_units_Z   2
loop_
 _symmetry_equiv_pos_site_id
 _symmetry_equiv_pos_as_xyz
  1  'x, y, z'
loop_
 _atom_site_type_symbol
 _atom_site_label
 _atom_site_symmetry_multiplicity
 _atom_site_fract_x
 _atom_site_fract_y
 _atom_site_fract_z
 _atom_site_occupancy
 _atom_site_hle17_bader_spin_density
 _atom_site_hle17_ddec_charge
 _atom_site_hle17_ddec_spin_density
 _atom_site_hle17_ddec_sum_bond_order
 _atom_site_hle17_magmom
 _atom_site_hse06_10hf_bader_spin_density
 _atom_site_hse06_10hf_ddec_charge
 _atom_site_hse06_10hf_ddec_spin_density
 _atom_site_hse06_10hf_ddec_sum_bond_order
 _atom_site_hse06_10hf_magmom
 _atom_site_hse06_bader_spin_density
 _atom_site_hse06_ddec_charge
 _atom_site_hse06_ddec_spin_density
 _atom_site_hse06_ddec_sum_bond_order
 _atom_site_hse06_magmom
 _atom_site_pbe_bader_spin_density
 _atom_site_pbe_cm5_charge
 _atom_site_pbe_ddec_charge
 _atom_site_pbe_ddec_spin_density
 _atom_site_pbe_ddec_sum_bond_order
 _atom_site_pbe_magmom
Cd  Cd0  1  0.56501081  0.56500823  0.54198254  1  0  1.131227  0  1.645456  0  0  0.931135  0  2.095821  0  0  0.986598  0  2.046011  0  0  0.808702  0.89178  0  2.129821  0
Cd  Cd1  1  0.43499162  0.43498892  0.04198233  1  0  1.131239  0  1.645477  0  0  0.93114  0  2.095849  0  0  0.986601  0  2.046038  0  0  0.808703  0.891788  0  2.129849  0
H  H2  1  0.27212884  0.44657198  0.70360481  1  0  0.302316  0  0.919357  0  0  0.281123  0  0.986651  0  0  0.288751  0  0.980055  0  0  0.32041  0.27572  0  0.991442  0
H  H3  1  0.72787061  0.55342857  0.20360491  1  0  0.302343  0  0.919301  0  0  0.28115  0  0.986601  0  0  0.288776  0  0.980006  0  0  0.320398  0.275747  0  0.991393  0
H  H4  1  0.44657520  0.27213050  0.70360263  1  0  0.302366  0  0.9193  0  0  0.281164  0  0.986604  0  0  0.288788  0  0.98001  0  0  0.320435  0.275766  0  0.991385  0
H  H5  1  0.55342896  0.72786746  0.20360287  1  0  0.302309  0  0.919378  0  0  0.281118  0  0.986671  0  0  0.288744  0  0.980076  0  0  0.320412  0.275714  0  0.991463  0
H  H6  1  0.44242815  0.44242694  0.33284882  1  0  0.389973  0  0.907943  0  0  0.356239  0  0.989258  0  0  0.369891  0  0.975274  0  0  0.297783  0.346693  0  0.998885  0
H  H7  1  0.55757061  0.55757429  0.83284901  1  0  0.3901  0  0.907712  0  0  0.356333  0  0.989071  0  0  0.369984  0  0.975086  0  0  0.297802  0.346785  0  0.998707  0
H  H8  1  0.37753374  0.88329239  0.45873507  1  0  0.122928  0  0.95083  0  0  0.141772  0  1.013851  0  0  0.1433  0  1.014374  0  0  0.092975  0.140693  0  1.013494  0
H  H9  1  0.62246778  0.11670945  0.95873331  1  0  0.122976  0  0.950839  0  0  0.141787  0  1.01389  0  0  0.143315  0  1.014413  0  0  0.092964  0.140707  0  1.013535  0
H  H10  1  0.88328785  0.37753101  0.45873487  1  0  0.122957  0  0.950824  0  0  0.14174  0  1.013908  0  0  0.143269  0  1.01443  0  0  0.092955  0.140662  0  1.01355  0
H  H11  1  0.11671029  0.62246831  0.95873421  1  0  0.123008  0  0.950805  0  0  0.141814  0  1.013853  0  0  0.143343  0  1.014375  0  0  0.09298  0.140735  0  1.013497  0
H  H12  1  0.16688567  0.77096811  0.41548942  1  0  0.11372  0  0.97077  0  0  0.133176  0  1.032949  0  0  0.133876  0  1.034226  0  0  0.090108  0.132618  0  1.032113  0
H  H13  1  0.83311623  0.22903479  0.91548792  1  0  0.113706  0  0.970779  0  0  0.133181  0  1.032934  0  0  0.133878  0  1.034209  0  0  0.090122  0.132623  0  1.032098  0
H  H14  1  0.77097071  0.16688554  0.41548426  1  0  0.113703  0  0.970729  0  0  0.133161  0  1.032889  0  0  0.133865  0  1.034161  0  0  0.090093  0.132603  0  1.032052  0
H  H15  1  0.22903128  0.83311480  0.91548816  1  0  0.113697  0  0.970811  0  0  0.133158  0  1.032975  0  0  0.133855  0  1.034248  0  0  0.090093  0.132597  0  1.032142  0
H  H16  1  0.32636766  0.69262213  0.39534870  1  0  0.125159  0  0.94642  0  0  0.143821  0  1.006717  0  0  0.146208  0  1.00542  0  0  0.092621  0.142078  0  1.00768  0
H  H17  1  0.67363310  0.30737812  0.89534862  1  0  0.125177  0  0.946423  0  0  0.14384  0  1.006715  0  0  0.146227  0  1.005418  0  0  0.092631  0.142097  0  1.007679  0
H  H18  1  0.69262358  0.32636588  0.39534644  1  0  0.125139  0  0.946427  0  0  0.143797  0  1.006719  0  0  0.146184  0  1.00542  0  0  0.092612  0.142049  0  1.007687  0
H  H19  1  0.30737549  0.67363310  0.89534525  1  0  0.125171  0  0.946392  0  0  0.143815  0  1.006702  0  0  0.146202  0  1.005405  0  0  0.092618  0.14207  0  1.007667  0
H  H20  1  0.97494265  0.66612133  0.56998216  1  0  0.147171  0  0.98505  0  0  0.152986  0  1.051394  0  0  0.156475  0  1.050553  0  0  0.10318  0.150483  0  1.052174  0
H  H21  1  0.02505633  0.33387855  0.06998300  1  0  0.147194  0  0.985085  0  0  0.153037  0  1.051397  0  0  0.156527  0  1.050555  0  0  0.103195  0.150531  0  1.052177  0
H  H22  1  0.66610674  0.97493403  0.56997735  1  0  0.147205  0  0.985171  0  0  0.15305  0  1.05147  0  0  0.15654  0  1.050626  0  0  0.103214  0.150546  0  1.052253  0
H  H23  1  0.33389233  0.02506330  0.06997866  1  0  0.147093  0  0.985177  0  0  0.152985  0  1.051441  0  0  0.156474  0  1.0506  0  0  0.103196  0.15048  0  1.052226  0
H  H24  1  0.99443749  0.36926051  0.78604420  1  0  0.122251  0  0.965374  0  0  0.138865  0  1.030586  0  0  0.140891  0  1.029708  0  0  0.095047  0.137344  0  1.031287  0
H  H25  1  0.00555791  0.63073285  0.28604754  1  0  0.122258  0  0.965479  0  0  0.138863  0  1.030684  0  0  0.140887  0  1.02981  0  0  0.095049  0.137346  0  1.031389  0
H  H26  1  0.36926316  0.99444290  0.78604374  1  0  0.122291  0  0.965486  0  0  0.138906  0  1.030674  0  0  0.140931  0  1.029798  0  0  0.09507  0.137388  0  1.031379  0
H  H27  1  0.63074112  0.00556059  0.28604448  1  0  0.122349  0  0.965454  0  0  0.138953  0  1.030655  0  0  0.140977  0  1.029782  0  0  0.095097  0.137434  0  1.031357  0
H  H28  1  0.83125504  0.39535701  0.71988452  1  0  0.125977  0  0.960977  0  0  0.141452  0  1.026557  0  0  0.142998  0  1.02738  0  0  0.095605  0.140345  0  1.02599  0
H  H29  1  0.16874518  0.60463979  0.21988721  1  0  0.125976  0  0.960942  0  0  0.141452  0  1.026512  0  0  0.143  0  1.027335  0  0  0.095628  0.140348  0  1.025944  0
H  H30  1  0.39535268  0.83124994  0.71988540  1  0  0.12598  0  0.960922  0  0  0.141442  0  1.026531  0  0  0.142991  0  1.027351  0  0  0.095593  0.140337  0  1.025964  0
H  H31  1  0.60464816  0.16874558  0.21988563  1  0  0.126007  0  0.960924  0  0  0.141469  0  1.026531  0  0  0.143015  0  1.027353  0  0  0.095608  0.140365  0  1.025962  0
H  H32  1  0.96636901  0.56067178  0.79430829  1  0  0.120935  0  0.939775  0  0  0.143274  0  0.995927  0  0  0.144332  0  0.996774  0  0  0.096227  0.142487  0  0.995369  0
H  H33  1  0.03362509  0.43932674  0.29430858  1  0  0.120921  0  0.939808  0  0  0.143233  0  0.995993  0  0  0.14429  0  0.996842  0  0  0.096215  0.142446  0  0.995437  0
H  H34  1  0.56066863  0.96637452  0.79430775  1  0  0.120975  0  0.939786  0  0  0.143301  0  0.995948  0  0  0.14436  0  0.996794  0  0  0.096226  0.142507  0  0.995397  0
H  H35  1  0.43933461  0.03362646  0.29430631  1  0  0.120906  0  0.939876  0  0  0.143255  0  0.996014  0  0  0.144318  0  0.996856  0  0  0.096212  0.142463  0  0.995461  0
H  H36  1  0.23009858  0.23009996  0.54804829  1  0  0.116119  0  0.95106  0  0  0.122573  0  1.015574  0  0  0.126584  0  1.013831  0  0  0.106195  0.119753  0  1.016957  0
H  H37  1  0.76989953  0.76990620  0.04805082  1  0  0.116213  0  0.950898  0  0  0.122664  0  1.01541  0  0  0.126677  0  1.013664  0  0  0.106245  0.119818  0  1.016826  0
H  H38  1  0.96547142  0.96547327  0.53502684  1  0  0.11514  0  0.944043  0  0  0.125074  0  1.004332  0  0  0.128865  0  1.000662  0  0  0.113373  0.122266  0  1.007066  0
H  H39  1  0.03452779  0.03453282  0.03502730  1  0  0.115086  0  0.944081  0  0  0.125044  0  1.004347  0  0  0.128834  0  1.000679  0  0  0.113381  0.122238  0  1.007082  0
H  H40  1  0.99938288  0.99938286  0.23180735  1  0  0.120525  0  0.93154  0  0  0.129598  0  0.991848  0  0  0.13369  0  0.988061  0  0  0.112927  0.126618  0  0.994558  0
H  H41  1  0.00061508  0.00061402  0.73180721  1  0  0.120542  0  0.931565  0  0  0.129608  0  0.991879  0  0  0.133703  0  0.988092  0  0  0.112927  0.126628  0  0.994589  0
C  C42  1  0.27649690  0.75625839  0.44607797  1  0  -0.35859  0  3.705357  0  0  -0.434892  0  3.938044  0  0  -0.43837  0  3.944641  0  0  -0.24312  -0.432252  0  3.93335  0
C  C43  1  0.72350519  0.24374210  0.94607714  1  0  -0.358626  0  3.705359  0  0  -0.434919  0  3.938038  0  0  -0.438391  0  3.944629  0  0  -0.243117  -0.432278  0  3.933348  0
C  C44  1  0.75625628  0.27649389  0.44607427  1  0  -0.358522  0  3.70507  0  0  -0.434753  0  3.937764  0  0  -0.438223  0  3.944371  0  0  -0.243026  -0.432109  0  3.933073  0
C  C45  1  0.24374528  0.72350533  0.94607662  1  0  -0.35869  0  3.705362  0  0  -0.434931  0  3.938033  0  0  -0.438406  0  3.944621  0  0  -0.243103  -0.432286  0  3.933345  0
C  C46  1  0.22376915  0.65882227  0.53554145  1  0  0.288047  0  3.762777  0  0  0.287317  0  4.023688  0  0  0.299081  0  4.042006  0  0  0.099468  0.279603  0  4.010987  0
C  C47  1  0.77623139  0.34117870  0.03554059  1  0  0.288032  0  3.762711  0  0  0.287301  0  4.023626  0  0  0.299069  0  4.041938  0  0  0.099468  0.279587  0  4.010928  0
C  C48  1  0.65881582  0.22376609  0.53553776  1  0  0.288029  0  3.762428  0  0  0.287271  0  4.023395  0  0  0.299  0  4.041766  0  0  0.099455  0.279558  0  4.01069  0
C  C49  1  0.34118420  0.77623360  0.03553865  1  0  0.288121  0  3.762649  0  0  0.287359  0  4.023612  0  0  0.299133  0  4.041915  0  0  0.099476  0.279645  0  4.010912  0
C  C50  1  0.07522715  0.62659731  0.58778257  1  0  -0.342066  0  3.691291  0  0  -0.364129  0  3.938169  0  0  -0.376472  0  3.957319  0  0  -0.124967  -0.356087  0  3.925305  0
C  C51  1  0.92477252  0.37340138  0.08778536  1  0  -0.342063  0  3.691342  0  0  -0.364162  0  3.938213  0  0  -0.376506  0  3.957362  0  0  -0.124995  -0.356113  0  3.925346  0
C  C52  1  0.62659307  0.07522022  0.58777743  1  0  -0.34211  0  3.691108  0  0  -0.364215  0  3.937983  0  0  -0.376548  0  3.957142  0  0  -0.124977  -0.356173  0  3.925119  0
C  C53  1  0.37341183  0.92477714  0.08777995  1  0  -0.34195  0  3.6913  0  0  -0.36409  0  3.938137  0  0  -0.376437  0  3.957284  0  0  -0.124985  -0.356046  0  3.925274  0
C  C54  1  0.08178268  0.53195413  0.66581749  1  0  0.287071  0  3.74239  0  0  0.281938  0  4.000165  0  0  0.293317  0  4.017629  0  0  0.104898  0.274587  0  3.988041  0
C  C55  1  0.91821673  0.46804368  0.16581970  1  0  0.287024  0  3.742444  0  0  0.281909  0  4.000181  0  0  0.293286  0  4.017647  0  0  0.104918  0.274559  0  3.98806  0
C  C56  1  0.53194995  0.08177777  0.66581591  1  0  0.287076  0  3.74221  0  0  0.281996  0  3.999924  0  0  0.293372  0  4.017388  0  0  0.104937  0.274647  0  3.987802  0
C  C57  1  0.46805354  0.91821872  0.16581636  1  0  0.286979  0  3.74258  0  0  0.2819  0  4.000286  0  0  0.293277  0  4.017755  0  0  0.104935  0.274549  0  3.988163  0
C  C58  1  0.96215017  0.45990963  0.74568261  1  0  -0.35619  0  3.697742  0  0  -0.428637  0  3.928248  0  0  -0.432064  0  3.935067  0  0  -0.234312  -0.426028  0  3.923404  0
C  C59  1  0.03784499  0.54008607  0.24568726  1  0  -0.35615  0  3.697822  0  0  -0.428569  0  3.928339  0  0  -0.431997  0  3.935162  0  0  -0.234339  -0.425968  0  3.923501  0
C  C60  1  0.45990953  0.96215333  0.74568422  1  0  -0.356279  0  3.697883  0  0  -0.428727  0  3.928386  0  0  -0.432158  0  3.935207  0  0  -0.234351  -0.426118  0  3.923552  0
C  C61  1  0.54009585  0.03784739  0.24568424  1  0  -0.356268  0  3.697972  0  0  -0.428737  0  3.928467  0  0  -0.432168  0  3.935286  0  0  -0.234364  -0.426126  0  3.923628  0
C  C62  1  0.29033574  0.29033717  0.22189499  1  0  0.653291  0  3.889362  0  0  0.602292  0  4.178888  0  0  0.637915  0  4.172175  0  0  0.20523  0.578203  0  4.182699  0
C  C63  1  0.70966263  0.70966349  0.72189617  1  0  0.653263  0  3.889372  0  0  0.602246  0  4.178905  0  0  0.637868  0  4.172195  0  0  0.205186  0.578158  0  4.182716  0
C  C64  1  0.19901708  0.19901969  0.30740447  1  0  -0.217601  0  3.76405  0  0  -0.194625  0  4.003386  0  0  -0.209974  0  4.025668  0  0  -0.035929  -0.184793  0  3.98856  0
C  C65  1  0.80098035  0.80098396  0.80740722  1  0  -0.21761  0  3.764044  0  0  -0.194616  0  4.003347  0  0  -0.209962  0  4.02563  0  0  -0.03591  -0.184786  0  3.988522  0
C  C66  1  0.26410236  0.26410228  0.39772361  1  0  0.358284  0  3.774055  0  0  0.33773  0  4.032527  0  0  0.355042  0  4.046281  0  0  0.099438  0.326069  0  4.023064  0
C  C67  1  0.73589841  0.73589798  0.89772483  1  0  0.358265  0  3.774061  0  0  0.337716  0  4.032503  0  0  0.355024  0  4.046261  0  0  0.099462  0.326058  0  4.023034  0
C  C68  1  0.17902735  0.17903187  0.47924041  1  0  -0.178549  0  3.693054  0  0  -0.195841  0  3.948618  0  0  -0.204403  0  3.966692  0  0  -0.097243  -0.190405  0  3.93652  0
C  C69  1  0.82096945  0.82097523  0.97924250  1  0  -0.178731  0  3.692964  0  0  -0.196032  0  3.948538  0  0  -0.204595  0  3.966616  0  0  -0.097351  -0.190574  0  3.936452  0
C  C70  1  0.03156996  0.03157291  0.47171503  1  0  -0.009786  0  3.713655  0  0  -0.035871  0  3.961549  0  0  -0.029543  0  3.977107  0  0  -0.068542  -0.039636  0  3.950835  0
C  C71  1  0.96842921  0.96843157  0.97171669  1  0  -0.00961  0  3.713646  0  0  -0.035714  0  3.96154  0  0  -0.029387  0  3.977099  0  0  -0.068508  -0.039475  0  3.950811  0
C  C72  1  0.96719679  0.96719939  0.38224812  1  0  -0.164694  0  3.791398  0  0  -0.141354  0  4.053226  0  0  -0.152618  0  4.075258  0  0  -0.033392  -0.134229  0  4.03851  0
C  C73  1  0.03280259  0.03280590  0.88224945  1  0  -0.164788  0  3.791506  0  0  -0.141444  0  4.053359  0  0  -0.152708  0  4.075391  0  0  -0.033396  -0.134319  0  4.038647  0
C  C74  1  0.04962588  0.04962807  0.30090065  1  0  -0.028306  0  3.734226  0  0  -0.068235  0  3.986767  0  0  -0.060742  0  4.002909  0  0  -0.072768  -0.07282  0  3.975782  0
C  C75  1  0.95037277  0.95037299  0.80090298  1  0  -0.028293  0  3.734283  0  0  -0.068221  0  3.986819  0  0  -0.06073  0  4.002954  0  0  -0.072768  -0.07281  0  3.975844  0
S  S76  1  0.77854261  0.77854331  0.37628601  1  0  1.281638  0  5.649423  0  0  1.179178  0  6.165323  0  0  1.226918  0  6.143487  0  0  0.501983  1.146266  0  6.179508  0
S  S77  1  0.22145524  0.22145559  0.87628769  1  0  1.281807  0  5.64939  0  0  1.179353  0  6.165264  0  0  1.227096  0  6.143422  0  0  0.502034  1.146441  0  6.179453  0
N  N78  1  0.31828204  0.58860428  0.57972900  1  0  -0.3456  0  3.12366  0  0  -0.291395  0  3.410087  0  0  -0.310943  0  3.427863  0  0  -0.269401  -0.278023  0  3.397758  0
N  N79  1  0.68172035  0.41139817  0.07972819  1  0  -0.345526  0  3.123621  0  0  -0.29131  0  3.41005  0  0  -0.310858  0  3.427824  0  0  -0.269375  -0.277935  0  3.397722  0
N  N80  1  0.58860153  0.31827805  0.57972538  1  0  -0.345548  0  3.123593  0  0  -0.291324  0  3.410054  0  0  -0.310857  0  3.427825  0  0  -0.269465  -0.277949  0  3.397728  0
N  N81  1  0.41139926  0.68172058  0.07972619  1  0  -0.345672  0  3.123565  0  0  -0.291467  0  3.410031  0  0  -0.311011  0  3.427789  0  0  -0.269468  -0.278094  0  3.397704  0
N  N82  1  0.22935746  0.51297404  0.65835982  1  0  -0.222399  0  3.487185  0  0  -0.171993  0  3.726387  0  0  -0.183993  0  3.743987  0  0  -0.295867  -0.164121  0  3.71455  0
N  N83  1  0.77064192  0.48702373  0.15836127  1  0  -0.222492  0  3.487102  0  0  -0.172106  0  3.72632  0  0  -0.184106  0  3.743921  0  0  -0.295882  -0.164234  0  3.714486  0
N  N84  1  0.51297691  0.22935796  0.65835830  1  0  -0.222506  0  3.487144  0  0  -0.172135  0  3.726409  0  0  -0.184124  0  3.743999  0  0  -0.295898  -0.16427  0  3.71458  0
N  N85  1  0.48702816  0.77064232  0.15835857  1  0  -0.22233  0  3.487248  0  0  -0.17195  0  3.72644  0  0  -0.183949  0  3.744043  0  0  -0.29584  -0.164075  0  3.714603  0
O  O86  1  0.23545612  0.23545934  0.14022820  1  0  -0.616183  0  1.997266  0  0  -0.549294  0  2.241778  0  0  -0.577543  0  2.231162  0  0  -0.311938  -0.529508  0  2.248206  0
O  O87  1  0.76454134  0.76454219  0.64022877  1  0  -0.616172  0  1.997288  0  0  -0.549262  0  2.241789  0  0  -0.577513  0  2.231176  0  0  -0.311906  -0.529463  0  2.248186  0
O  O88  1  0.42727012  0.42727139  0.23453240  1  0  -0.634142  0  2.032792  0  0  -0.579292  0  2.272608  0  0  -0.604821  0  2.261852  0  0  -0.322211  -0.561503  0  2.279298  0
O  O89  1  0.57272891  0.57272805  0.73453262  1  0  -0.634121  0  2.032726  0  0  -0.579294  0  2.272618  0  0  -0.604823  0  2.261866  0  0  -0.322186  -0.561498  0  2.279288  0
O  O90  1  0.40768776  0.40768828  0.40454753  1  0  -0.565508  0  2.221503  0  0  -0.497837  0  2.468508  0  0  -0.522997  0  2.457856  0  0  -0.343881  -0.479911  0  2.475094  0
O  O91  1  0.59230841  0.59231205  0.90454850  1  0  -0.565585  0  2.221306  0  0  -0.497882  0  2.468306  0  0  -0.523038  0  2.457655  0  0  -0.343901  -0.479955  0  2.474888  0
O  O92  1  0.64505887  0.81164957  0.42634897  1  0  -0.671657  0  1.985623  0  0  -0.608066  0  2.245348  0  0  -0.631641  0  2.23308  0  0  -0.334634  -0.59144  0  2.253223  0
O  O93  1  0.35493915  0.18834958  0.92634998  1  0  -0.67168  0  1.985559  0  0  -0.608091  0  2.245288  0  0  -0.631665  0  2.233016  0  0  -0.334661  -0.591464  0  2.253163  0
O  O94  1  0.81164976  0.64506208  0.42635031  1  0  -0.671629  0  1.985628  0  0  -0.60802  0  2.245325  0  0  -0.631595  0  2.233056  0  0  -0.33464  -0.591394  0  2.2532  0
O  O95  1  0.18834996  0.35493833  0.92635215  1  0  -0.671701  0  1.98563  0  0  -0.608099  0  2.245333  0  0  -0.631674  0  2.233059  0  0  -0.334682  -0.591472  0  2.253206  0
O  O96  1  0.74230293  0.74230028  0.27531224  1  0  -0.669641  0  2.006591  0  0  -0.614741  0  2.254146  0  0  -0.634403  0  2.239154  0  0  -0.336211  -0.60092  0  2.264028  0
O  O97  1  0.25770025  0.25770061  0.77531469  1  0  -0.669699  0  2.006601  0  0  -0.614784  0  2.254135  0  0  -0.634458  0  2.239159  0  0  -0.336207  -0.600965  0  2.264019  0
