# generated using pymatgen
data_BaH3C3O7
_symmetry_space_group_name_H-M   'P 1'
_cell_length_a   5.70870073
_cell_length_b   6.67430502
_cell_length_c   18.19246097
_cell_angle_alpha   90.00031625
_cell_angle_beta   90.00010290
_cell_angle_gamma   98.02286904
_symmetry_Int_Tables_number   1
_chemical_formula_structural   BaH3C3O7
_chemical_formula_sum   'Ba4 H12 C12 O28'
_cell_volume   686.37768731
_cell_formula_units_Z   4
loop_
 _symmetry_equiv_pos_site_id
 _symmetry_equiv_pos_as_xyz
  1  'x, y, z'
loop_
 _atom_site_type_symbol
 _atom_site_label
 _atom_site_symmetry_multiplicity
 _atom_site_fract_x
 _atom_site_fract_y
 _atom_site_fract_z
 _atom_site_occupancy
 _atom_site_hle17_bader_spin_density
 _atom_site_hle17_ddec_charge
 _atom_site_hle17_ddec_spin_density
 _atom_site_hle17_ddec_sum_bond_order
 _atom_site_hle17_magmom
 _atom_site_hse06_10hf_bader_spin_density
 _atom_site_hse06_10hf_ddec_charge
 _atom_site_hse06_10hf_ddec_spin_density
 _atom_site_hse06_10hf_ddec_sum_bond_order
 _atom_site_hse06_10hf_magmom
 _atom_site_hse06_bader_spin_density
 _atom_site_hse06_ddec_charge
 _atom_site_hse06_ddec_spin_density
 _atom_site_hse06_ddec_sum_bond_order
 _atom_site_hse06_magmom
 _atom_site_pbe_bader_spin_density
 _atom_site_pbe_cm5_charge
 _atom_site_pbe_ddec_charge
 _atom_site_pbe_ddec_spin_density
 _atom_site_pbe_ddec_sum_bond_order
 _atom_site_pbe_magmom
Ba  Ba0  1  0.77269112  0.62001554  0.91601160  1  0  1.635939  0  1.137447  0  0  1.483408  0  1.535344  0  0  1.52511  0  1.4907  0  0  0.958537  1.452696  0  1.567072  0
Ba  Ba1  1  0.72730550  0.87998703  0.41600968  1  0  1.635961  0  1.137399  0  0  1.483422  0  1.535299  0  0  1.525121  0  1.490657  0  0  0.958531  1.452683  0  1.567023  0
Ba  Ba2  1  0.22730544  0.37998404  0.08398908  1  0  1.635921  0  1.137507  0  0  1.483376  0  1.535428  0  0  1.525078  0  1.490784  0  0  0.958525  1.452663  0  1.56716  0
Ba  Ba3  1  0.27269632  0.12001256  0.58399101  1  0  1.635943  0  1.137419  0  0  1.48341  0  1.535305  0  0  1.525108  0  1.490663  0  0  0.958518  1.452666  0  1.567027  0
H  H4  1  0.02175857  0.35351036  0.74925414  1  0  0.407981  0  0.880381  0  0  0.375987  0  0.958437  0  0  0.389971  0  0.94405  0  0  0.31086  0.366199  0  0.968449  0
H  H5  1  0.47823908  0.14648739  0.24924803  1  0  0.407968  0  0.880442  0  0  0.37595  0  0.958526  0  0  0.389946  0  0.944117  0  0  0.310814  0.366158  0  0.968534  0
H  H6  1  0.97824174  0.64649074  0.25074545  1  0  0.407976  0  0.88039  0  0  0.375984  0  0.958447  0  0  0.389968  0  0.944059  0  0  0.310861  0.366196  0  0.968459  0
H  H7  1  0.52176273  0.85351220  0.75075210  1  0  0.407961  0  0.880469  0  0  0.375931  0  0.958575  0  0  0.389938  0  0.944141  0  0  0.310815  0.366142  0  0.968586  0
H  H8  1  0.20045637  0.34228856  0.89466056  1  0  0.433544  0  0.864748  0  0  0.404255  0  0.924769  0  0  0.415537  0  0.908255  0  0  0.307752  0.396249  0  0.93647  0
H  H9  1  0.29953700  0.15771001  0.39465933  1  0  0.433509  0  0.864796  0  0  0.404214  0  0.924825  0  0  0.415497  0  0.908309  0  0  0.307736  0.396206  0  0.93653  0
H  H10  1  0.79954019  0.65771103  0.10533903  1  0  0.43353  0  0.864761  0  0  0.404241  0  0.924784  0  0  0.415525  0  0.908267  0  0  0.307751  0.396235  0  0.936485  0
H  H11  1  0.70046106  0.84228807  0.60534081  1  0  0.433501  0  0.864807  0  0  0.404207  0  0.924834  0  0  0.41549  0  0.90832  0  0  0.307739  0.3962  0  0.936538  0
H  H12  1  0.97153237  0.20879320  0.93164519  1  0  0.424617  0  0.883183  0  0  0.392688  0  0.948367  0  0  0.404991  0  0.930432  0  0  0.30161  0.383967  0  0.961032  0
H  H13  1  0.52846525  0.29120555  0.43164463  1  0  0.424625  0  0.883166  0  0  0.3927  0  0.948347  0  0  0.405  0  0.930416  0  0  0.30162  0.383979  0  0.961014  0
H  H14  1  0.02846419  0.79120639  0.06835495  1  0  0.424624  0  0.883164  0  0  0.392696  0  0.948354  0  0  0.404996  0  0.93042  0  0  0.30162  0.383976  0  0.961019  0
H  H15  1  0.47153657  0.70879404  0.56835606  1  0  0.424638  0  0.883145  0  0  0.392712  0  0.948329  0  0  0.405011  0  0.930398  0  0  0.301622  0.383991  0  0.960997  0
C  C16  1  0.43342617  0.35130883  0.76406972  1  0  0.568918  0  3.900836  0  0  0.518885  0  4.20352  0  0  0.549051  0  4.195367  0  0  0.235171  0.49844  0  4.208551  0
C  C17  1  0.06657112  0.14868613  0.26407054  1  0  0.568937  0  3.901005  0  0  0.518894  0  4.203613  0  0  0.549055  0  4.195469  0  0  0.235199  0.498429  0  4.208644  0
C  C18  1  0.56657414  0.64869227  0.23592931  1  0  0.568838  0  3.900832  0  0  0.518757  0  4.203509  0  0  0.548935  0  4.195333  0  0  0.235067  0.498314  0  4.208536  0
C  C19  1  0.93343094  0.85131498  0.73593014  1  0  0.568858  0  3.901168  0  0  0.518841  0  4.203705  0  0  0.549004  0  4.195555  0  0  0.235152  0.498379  0  4.208739  0
C  C20  1  0.67696681  0.33607381  0.72695770  1  0  0.562495  0  3.793496  0  0  0.51614  0  4.096515  0  0  0.545524  0  4.086583  0  0  0.249351  0.495916  0  4.103157  0
C  C21  1  0.82302338  0.16390803  0.22696144  1  0  0.562413  0  3.793823  0  0  0.516186  0  4.09664  0  0  0.545575  0  4.086708  0  0  0.24932  0.496004  0  4.103229  0
C  C22  1  0.32303375  0.66392881  0.27304134  1  0  0.562386  0  3.793744  0  0  0.516193  0  4.096516  0  0  0.545575  0  4.086585  0  0  0.249403  0.495962  0  4.103167  0
C  C23  1  0.17697995  0.83609005  0.77303869  1  0  0.562352  0  3.794  0  0  0.516165  0  4.096723  0  0  0.545554  0  4.086791  0  0  0.249276  0.495976  0  4.103329  0
C  C24  1  0.40285839  0.91761723  0.01635177  1  0  0.570089  0  3.893937  0  0  0.524835  0  4.189654  0  0  0.555374  0  4.180508  0  0  0.238366  0.504074  0  4.195214  0
C  C25  1  0.09714718  0.58238236  0.51635242  1  0  0.570171  0  3.893665  0  0  0.524814  0  4.189446  0  0  0.555341  0  4.180316  0  0  0.238411  0.504049  0  4.195014  0
C  C26  1  0.59714517  0.08238236  0.98364782  1  0  0.570281  0  3.893509  0  0  0.524781  0  4.189528  0  0  0.555307  0  4.1804  0  0  0.238372  0.504021  0  4.195085  0
C  C27  1  0.90285989  0.41761724  0.48364827  1  0  0.570099  0  3.893942  0  0  0.524815  0  4.189653  0  0  0.555355  0  4.180507  0  0  0.23835  0.50405  0  4.19522  0
O  O28  1  0.43157455  0.38752386  0.83172911  1  0  -0.610582  0  2.047219  0  0  -0.555358  0  2.279159  0  0  -0.579217  0  2.270225  0  0  -0.322334  -0.538761  0  2.285028  0
O  O29  1  0.06842580  0.11247672  0.33172601  1  0  -0.610484  0  2.047365  0  0  -0.555268  0  2.279306  0  0  -0.579124  0  2.270371  0  0  -0.322264  -0.538646  0  2.28516  0
O  O30  1  0.56842527  0.61247421  0.16827048  1  0  -0.61047  0  2.047155  0  0  -0.555241  0  2.2791  0  0  -0.579104  0  2.270158  0  0  -0.322246  -0.538637  0  2.284965  0
O  O31  1  0.93157777  0.88752287  0.66827468  1  0  -0.610445  0  2.047423  0  0  -0.555247  0  2.27935  0  0  -0.579104  0  2.270415  0  0  -0.322253  -0.538628  0  2.285204  0
O  O32  1  0.85674361  0.37568876  0.77261187  1  0  -0.554228  0  2.167312  0  0  -0.502567  0  2.396489  0  0  -0.526968  0  2.383825  0  0  -0.308906  -0.485573  0  2.404913  0
O  O33  1  0.64324594  0.12429836  0.27260828  1  0  -0.554179  0  2.167761  0  0  -0.502532  0  2.396902  0  0  -0.526938  0  2.38422  0  0  -0.30878  -0.48553  0  2.405297  0
O  O34  1  0.14325645  0.62431083  0.22738772  1  0  -0.554191  0  2.16737  0  0  -0.502593  0  2.39648  0  0  -0.526994  0  2.383817  0  0  -0.308926  -0.485592  0  2.404907  0
O  O35  1  0.35675612  0.87570275  0.72739185  1  0  -0.554136  0  2.167887  0  0  -0.502486  0  2.397001  0  0  -0.526899  0  2.384305  0  0  -0.308746  -0.485483  0  2.405401  0
O  O36  1  0.08307206  0.33938628  0.93489642  1  0  -0.937487  0  1.844957  0  0  -0.876104  0  2.036527  0  0  -0.898755  0  2.003247  0  0  -0.654056  -0.859861  0  2.059819  0
O  O37  1  0.41692541  0.16061445  0.43489526  1  0  -0.937456  0  1.844961  0  0  -0.876076  0  2.036534  0  0  -0.898719  0  2.003252  0  0  -0.654048  -0.859842  0  2.059832  0
O  O38  1  0.91692625  0.66061331  0.06510316  1  0  -0.937468  0  1.844934  0  0  -0.876086  0  2.036484  0  0  -0.898731  0  2.003209  0  0  -0.654066  -0.85984  0  2.059776  0
O  O39  1  0.58307490  0.83938665  0.56510487  1  0  -0.93746  0  1.844971  0  0  -0.876082  0  2.036544  0  0  -0.898725  0  2.003262  0  0  -0.654055  -0.859852  0  2.059841  0
O  O40  1  0.25522090  0.32220221  0.72125631  1  0  -0.625852  0  2.082218  0  0  -0.572444  0  2.317182  0  0  -0.598858  0  2.308965  0  0  -0.324249  -0.554042  0  2.322355  0
O  O41  1  0.24478626  0.17780115  0.22125289  1  0  -0.625883  0  2.082028  0  0  -0.572482  0  2.316997  0  0  -0.598902  0  2.308778  0  0  -0.324321  -0.554089  0  2.322187  0
O  O42  1  0.74477892  0.67779587  0.27874328  1  0  -0.625833  0  2.082197  0  0  -0.572426  0  2.317169  0  0  -0.598844  0  2.308947  0  0  -0.324242  -0.554022  0  2.32234  0
O  O43  1  0.75521731  0.82219844  0.77874725  1  0  -0.625834  0  2.082105  0  0  -0.572448  0  2.317082  0  0  -0.598876  0  2.308853  0  0  -0.324299  -0.55406  0  2.322274  0
O  O44  1  0.41729117  0.73379930  0.00247001  1  0  -0.687417  0  2.024356  0  0  -0.625858  0  2.267183  0  0  -0.652611  0  2.259473  0  0  -0.372181  -0.60698  0  2.271936  0
O  O45  1  0.08270976  0.76620461  0.50246883  1  0  -0.687404  0  2.023988  0  0  -0.625835  0  2.266854  0  0  -0.652588  0  2.259153  0  0  -0.372199  -0.606962  0  2.27161  0
O  O46  1  0.58270763  0.26620332  0.99753122  1  0  -0.687454  0  2.024035  0  0  -0.625827  0  2.266978  0  0  -0.652577  0  2.259276  0  0  -0.372158  -0.606934  0  2.271696  0
O  O47  1  0.91729128  0.23380104  0.49753021  1  0  -0.687367  0  2.024369  0  0  -0.625812  0  2.267204  0  0  -0.652566  0  2.259496  0  0  -0.372152  -0.606938  0  2.271957  0
O  O48  1  0.69139437  0.28874837  0.66180704  1  0  -0.545619  0  1.966114  0  0  -0.50037  0  2.183609  0  0  -0.520114  0  2.176529  0  0  -0.281737  -0.486677  0  2.188358  0
O  O49  1  0.80859624  0.21123847  0.16179988  1  0  -0.545604  0  1.965707  0  0  -0.500428  0  2.18316  0  0  -0.520187  0  2.176104  0  0  -0.281764  -0.486756  0  2.187904  0
O  O50  1  0.30860419  0.71125273  0.33819254  1  0  -0.545586  0  1.966232  0  0  -0.500385  0  2.183629  0  0  -0.520131  0  2.176553  0  0  -0.281751  -0.486685  0  2.18838  0
O  O51  1  0.19140732  0.78876112  0.83820026  1  0  -0.545597  0  1.965755  0  0  -0.500447  0  2.183196  0  0  -0.520202  0  2.176129  0  0  -0.281754  -0.486776  0  2.187947  0
O  O52  1  0.24219811  0.98101358  0.05460335  1  0  -0.642501  0  2.036918  0  0  -0.583528  0  2.265588  0  0  -0.60906  0  2.255468  0  0  -0.338195  -0.565666  0  2.272109  0
O  O53  1  0.25780302  0.51898965  0.55460341  1  0  -0.64251  0  2.036912  0  0  -0.583529  0  2.265629  0  0  -0.609056  0  2.255517  0  0  -0.338212  -0.565675  0  2.272152  0
O  O54  1  0.75779894  0.01898903  0.94539734  1  0  -0.642518  0  2.03684  0  0  -0.58348  0  2.265615  0  0  -0.609006  0  2.255506  0  0  -0.338229  -0.565618  0  2.272131  0
O  O55  1  0.74219554  0.48101145  0.44539618  1  0  -0.642512  0  2.036824  0  0  -0.583551  0  2.265509  0  0  -0.609083  0  2.255393  0  0  -0.338227  -0.565698  0  2.272035  0
