# generated using pymatgen
data_CdH6C2(N5Cl)2
_symmetry_space_group_name_H-M   'P 1'
_cell_length_a   3.78709331
_cell_length_b   7.82718350
_cell_length_c   16.64037768
_cell_angle_alpha   89.99992765
_cell_angle_beta   89.99994311
_cell_angle_gamma   96.75714819
_symmetry_Int_Tables_number   1
_chemical_formula_structural   CdH6C2(N5Cl)2
_chemical_formula_sum   'Cd2 H12 C4 N20 Cl4'
_cell_volume   489.83235917
_cell_formula_units_Z   2
loop_
 _symmetry_equiv_pos_site_id
 _symmetry_equiv_pos_as_xyz
  1  'x, y, z'
loop_
 _atom_site_type_symbol
 _atom_site_label
 _atom_site_symmetry_multiplicity
 _atom_site_fract_x
 _atom_site_fract_y
 _atom_site_fract_z
 _atom_site_occupancy
 _atom_site_hle17_bader_spin_density
 _atom_site_hle17_ddec_charge
 _atom_site_hle17_ddec_spin_density
 _atom_site_hle17_ddec_sum_bond_order
 _atom_site_hle17_magmom
 _atom_site_hse06_10hf_bader_spin_density
 _atom_site_hse06_10hf_ddec_charge
 _atom_site_hse06_10hf_ddec_spin_density
 _atom_site_hse06_10hf_ddec_sum_bond_order
 _atom_site_hse06_10hf_magmom
 _atom_site_hse06_bader_spin_density
 _atom_site_hse06_ddec_charge
 _atom_site_hse06_ddec_spin_density
 _atom_site_hse06_ddec_sum_bond_order
 _atom_site_hse06_magmom
 _atom_site_pbe_bader_spin_density
 _atom_site_pbe_cm5_charge
 _atom_site_pbe_ddec_charge
 _atom_site_pbe_ddec_spin_density
 _atom_site_pbe_ddec_sum_bond_order
 _atom_site_pbe_magmom
Cd  Cd0  1  0.00000000  0.00000000  0.00000000  1  0  0.950481  0  1.956382  0  0  0.785316  0  2.417354  0  0  0.830434  0  2.378052  0  0  0.598509  0.753055  0  2.444744  0
Cd  Cd1  1  0.50000141  0.49999973  0.49999986  1  0  0.950477  0  1.956409  0  0  0.785314  0  2.417382  0  0  0.830422  0  2.378087  0  0  0.598515  0.75305  0  2.444774  0
H  H2  1  0.72545861  0.37704512  0.05302384  1  0  0.34015  0  0.915652  0  0  0.322021  0  0.980333  0  0  0.329804  0  0.973537  0  0  0.282169  0.316512  0  0.985125  0
H  H3  1  0.77453840  0.12295500  0.55302518  1  0  0.340118  0  0.91571  0  0  0.321998  0  0.980383  0  0  0.32978  0  0.973589  0  0  0.282174  0.31649  0  0.985174  0
H  H4  1  0.27454157  0.62295431  0.94697588  1  0  0.340076  0  0.915681  0  0  0.321937  0  0.980385  0  0  0.32972  0  0.973591  0  0  0.282138  0.316428  0  0.985175  0
H  H5  1  0.22546178  0.87704443  0.44697454  1  0  0.340119  0  0.915723  0  0  0.321997  0  0.980395  0  0  0.329779  0  0.9736  0  0  0.28217  0.316489  0  0.985186  0
H  H6  1  0.70146640  0.50911013  0.13891308  1  0  0.336083  0  0.924948  0  0  0.304963  0  1.014865  0  0  0.31285  0  1.007736  0  0  0.294987  0.299342  0  1.019962  0
H  H7  1  0.79853163  0.99089005  0.63891359  1  0  0.336065  0  0.924958  0  0  0.304955  0  1.014856  0  0  0.312838  0  1.007733  0  0  0.294992  0.299334  0  1.019952  0
H  H8  1  0.29853378  0.49088931  0.86108664  1  0  0.336075  0  0.924999  0  0  0.304994  0  1.014852  0  0  0.312881  0  1.007722  0  0  0.295014  0.299372  0  1.019949  0
H  H9  1  0.20146855  0.00910938  0.36108613  1  0  0.33606  0  0.924959  0  0  0.304953  0  1.014856  0  0  0.312837  0  1.007732  0  0  0.294988  0.299331  0  1.019952  0
H  H10  1  0.85463779  0.36629780  0.27878372  1  0  0.301442  0  0.933643  0  0  0.261701  0  1.030191  0  0  0.271619  0  1.021843  0  0  0.317111  0.254672  0  1.036136  0
H  H11  1  0.64536078  0.13370168  0.77878449  1  0  0.301432  0  0.933657  0  0  0.261691  0  1.030209  0  0  0.271608  0  1.021857  0  0  0.31711  0.254661  0  1.036157  0
H  H12  1  0.14536266  0.63370292  0.72121600  1  0  0.301455  0  0.933616  0  0  0.261713  0  1.030169  0  0  0.271632  0  1.021819  0  0  0.31712  0.254685  0  1.036114  0
H  H13  1  0.35463676  0.86629773  0.22121583  1  0  0.301432  0  0.933661  0  0  0.261677  0  1.030234  0  0  0.271595  0  1.021881  0  0  0.317113  0.254647  0  1.036181  0
C  C14  1  0.90977853  0.28254971  0.15564591  1  0  0.586493  0  3.810627  0  0  0.529683  0  4.092861  0  0  0.554036  0  4.10245  0  0  0.34673  0.513348  0  4.086002  0
C  C15  1  0.59020820  0.21745388  0.65564604  1  0  0.58644  0  3.810554  0  0  0.529616  0  4.092834  0  0  0.55397  0  4.102424  0  0  0.346681  0.513281  0  4.085974  0
C  C16  1  0.09022192  0.71745101  0.84435381  1  0  0.586406  0  3.810677  0  0  0.529583  0  4.092915  0  0  0.553938  0  4.102504  0  0  0.346701  0.513249  0  4.086053  0
C  C17  1  0.40978960  0.78254681  0.34435428  1  0  0.586483  0  3.810517  0  0  0.529643  0  4.092816  0  0  0.553998  0  4.102405  0  0  0.346707  0.513307  0  4.085953  0
N  N18  1  0.79391029  0.40630306  0.11137346  1  0  -0.68063  0  3.112151  0  0  -0.643763  0  3.352743  0  0  -0.664581  0  3.347935  0  0  -0.575729  -0.629273  0  3.355856  0
N  N19  1  0.70609621  0.09369312  0.61137243  1  0  -0.680576  0  3.111994  0  0  -0.643735  0  3.352609  0  0  -0.664555  0  3.347811  0  0  -0.575748  -0.629244  0  3.355722  0
N  N20  1  0.20609254  0.59369639  0.88862626  1  0  -0.680509  0  3.112148  0  0  -0.643661  0  3.352681  0  0  -0.664481  0  3.347879  0  0  -0.575719  -0.629171  0  3.355792  0
N  N21  1  0.29390397  0.90630631  0.38862789  1  0  -0.680602  0  3.112037  0  0  -0.643751  0  3.352649  0  0  -0.664572  0  3.347849  0  0  -0.575755  -0.629261  0  3.35576  0
N  N22  1  0.94300392  0.28109711  0.23698841  1  0  -0.304921  0  3.362779  0  0  -0.243451  0  3.616611  0  0  -0.261518  0  3.627351  0  0  -0.264044  -0.231564  0  3.609614  0
N  N23  1  0.55699722  0.21890123  0.73698735  1  0  -0.304849  0  3.362834  0  0  -0.243369  0  3.616652  0  0  -0.261436  0  3.627397  0  0  -0.264007  -0.23148  0  3.609654  0
N  N24  1  0.05699626  0.71890233  0.76301191  1  0  -0.304873  0  3.362802  0  0  -0.243408  0  3.616634  0  0  -0.261478  0  3.627373  0  0  -0.264045  -0.231523  0  3.609639  0
N  N25  1  0.44300031  0.78109818  0.26301297  1  0  -0.304862  0  3.362772  0  0  -0.243366  0  3.616601  0  0  -0.261431  0  3.627347  0  0  -0.264004  -0.231478  0  3.609602  0
N  N26  1  0.08026906  0.13640497  0.25917496  1  0  -0.053051  0  2.954614  0  0  -0.051009  0  3.247055  0  0  -0.048167  0  3.255716  0  0  -0.082752  -0.052691  0  3.241233  0
N  N27  1  0.41973614  0.36359275  0.75917552  1  0  -0.053007  0  2.954637  0  0  -0.05096  0  3.247061  0  0  -0.048118  0  3.255724  0  0  -0.082719  -0.052644  0  3.241241  0
N  N28  1  0.91973112  0.86359446  0.74082476  1  0  -0.053059  0  2.954831  0  0  -0.051004  0  3.247268  0  0  -0.048161  0  3.255933  0  0  -0.082738  -0.052686  0  3.241448  0
N  N29  1  0.58026669  0.63640670  0.24082420  1  0  -0.053015  0  2.954642  0  0  -0.050977  0  3.247079  0  0  -0.048138  0  3.255745  0  0  -0.082726  -0.052662  0  3.241258  0
N  N30  1  0.12911470  0.05253509  0.19397814  1  0  -0.055758  0  3.092013  0  0  -0.045067  0  3.395462  0  0  -0.041776  0  3.405569  0  0  -0.081182  -0.046897  0  3.388425  0
N  N31  1  0.37088049  0.44746402  0.69397806  1  0  -0.055909  0  3.092092  0  0  -0.045229  0  3.395548  0  0  -0.041939  0  3.405659  0  0  -0.081267  -0.047058  0  3.388511  0
N  N32  1  0.87088548  0.94746434  0.80602098  1  0  -0.055872  0  3.092181  0  0  -0.045215  0  3.395667  0  0  -0.041923  0  3.405775  0  0  -0.081269  -0.047044  0  3.388629  0
N  N33  1  0.62911731  0.55253667  0.30602166  1  0  -0.055887  0  3.092136  0  0  -0.045201  0  3.395588  0  0  -0.041909  0  3.405701  0  0  -0.081244  -0.047029  0  3.388549  0
N  N34  1  0.02815084  0.13656914  0.12841651  1  0  -0.399789  0  3.063554  0  0  -0.344514  0  3.359609  0  0  -0.366823  0  3.373346  0  0  -0.245204  -0.329456  0  3.350035  0
N  N35  1  0.47185579  0.36343282  0.62841586  1  0  -0.399724  0  3.063653  0  0  -0.344428  0  3.35969  0  0  -0.366735  0  3.373427  0  0  -0.245149  -0.329372  0  3.350117  0
N  N36  1  0.97184934  0.86343029  0.87158381  1  0  -0.399677  0  3.063541  0  0  -0.344389  0  3.359589  0  0  -0.366698  0  3.373325  0  0  -0.245114  -0.329331  0  3.350013  0
N  N37  1  0.52814704  0.63656663  0.37158446  1  0  -0.399733  0  3.06357  0  0  -0.34444  0  3.359618  0  0  -0.366746  0  3.373353  0  0  -0.245174  -0.329383  0  3.350041  0
Cl  Cl38  1  0.55367656  0.21109959  0.94702886  1  0  -0.545258  0  1.007797  0  0  -0.483215  0  1.287337  0  0  -0.500657  0  1.266765  0  0  -0.291334  -0.470514  0  1.30174  0
Cl  Cl39  1  0.94632384  0.28889942  0.44702932  1  0  -0.545235  0  1.007766  0  0  -0.483198  0  1.287314  0  0  -0.500631  0  1.266731  0  0  -0.291333  -0.470497  0  1.301717  0
Cl  Cl40  1  0.44632362  0.78889984  0.05297147  1  0  -0.545252  0  1.007786  0  0  -0.483206  0  1.287327  0  0  -0.500644  0  1.266747  0  0  -0.291339  -0.470504  0  1.30173  0
Cl  Cl41  1  0.05367661  0.71110130  0.55297100  1  0  -0.545238  0  1.007778  0  0  -0.483196  0  1.287321  0  0  -0.500626  0  1.266727  0  0  -0.291334  -0.470495  0  1.301724  0
