# generated using pymatgen
data_LaH21(C9O2)3
_symmetry_space_group_name_H-M   'P 1'
_cell_length_a   7.82845710
_cell_length_b   13.36919083
_cell_length_c   13.36918707
_cell_angle_alpha   116.29292227
_cell_angle_beta   101.25560119
_cell_angle_gamma   101.25535740
_symmetry_Int_Tables_number   1
_chemical_formula_structural   LaH21(C9O2)3
_chemical_formula_sum   'La2 H42 C54 O12'
_cell_volume   1165.51122393
_cell_formula_units_Z   2
loop_
 _symmetry_equiv_pos_site_id
 _symmetry_equiv_pos_as_xyz
  1  'x, y, z'
loop_
 _atom_site_type_symbol
 _atom_site_label
 _atom_site_symmetry_multiplicity
 _atom_site_fract_x
 _atom_site_fract_y
 _atom_site_fract_z
 _atom_site_occupancy
 _atom_site_hle17_bader_spin_density
 _atom_site_hle17_ddec_charge
 _atom_site_hle17_ddec_spin_density
 _atom_site_hle17_ddec_sum_bond_order
 _atom_site_hle17_magmom
 _atom_site_hse06_10hf_bader_spin_density
 _atom_site_hse06_10hf_ddec_charge
 _atom_site_hse06_10hf_ddec_spin_density
 _atom_site_hse06_10hf_ddec_sum_bond_order
 _atom_site_hse06_10hf_magmom
 _atom_site_hse06_bader_spin_density
 _atom_site_hse06_ddec_charge
 _atom_site_hse06_ddec_spin_density
 _atom_site_hse06_ddec_sum_bond_order
 _atom_site_hse06_magmom
 _atom_site_pbe_bader_spin_density
 _atom_site_pbe_cm5_charge
 _atom_site_pbe_ddec_charge
 _atom_site_pbe_ddec_spin_density
 _atom_site_pbe_ddec_sum_bond_order
 _atom_site_pbe_magmom
La  La0  1  0.00623026  0.00000289  0.99995986  1  0  1.990871  0  1.904092  0  0  1.871583  0  2.416591  0  0  1.973433  0  2.326747  0  0  1.425092  1.79607  0  2.477584  0
La  La1  1  0.50623113  0.99995923  0.00000466  1  0  1.990845  0  1.904091  0  0  1.871585  0  2.416571  0  0  1.973433  0  2.326729  0  0  1.425109  1.796082  0  2.477551  0
H  H2  1  0.43563893  0.64704969  0.82320871  1  0  0.116296  0  0.974308  0  0  0.124582  0  1.038563  0  0  0.128049  0  1.038202  0  0  0.10566  0.122111  0  1.039071  0
H  H3  1  0.78867749  0.17614155  0.35291937  1  0  0.115646  0  0.974891  0  0  0.123932  0  1.039062  0  0  0.127432  0  1.038629  0  0  0.105572  0.121459  0  1.039556  0
H  H4  1  0.61247716  0.17694509  0.82393692  1  0  0.116222  0  0.973768  0  0  0.124123  0  1.038384  0  0  0.127594  0  1.037957  0  0  0.105636  0.121648  0  1.038941  0
H  H5  1  0.11247913  0.82393645  0.17694592  1  0  0.116206  0  0.973754  0  0  0.124099  0  1.038381  0  0  0.127572  0  1.03795  0  0  0.105596  0.121626  0  1.038937  0
H  H6  1  0.93564336  0.82320811  0.64705365  1  0  0.116284  0  0.974313  0  0  0.124622  0  1.038517  0  0  0.12809  0  1.038152  0  0  0.105671  0.122151  0  1.039024  0
H  H7  1  0.28867403  0.35291936  0.17614116  1  0  0.11565  0  0.974866  0  0  0.123934  0  1.039051  0  0  0.127431  0  1.038627  0  0  0.105566  0.121454  0  1.039553  0
H  H8  1  0.75779221  0.61271228  0.96442928  1  0  0.097319  0  0.938779  0  0  0.109003  0  0.99828  0  0  0.111729  0  0.996672  0  0  0.107771  0.106964  0  0.999559  0
H  H9  1  0.14519417  0.35165805  0.38724890  1  0  0.097327  0  0.938467  0  0  0.109066  0  0.997942  0  0  0.111807  0  0.996286  0  0  0.10829  0.107021  0  0.999269  0
H  H10  1  0.79333479  0.03563305  0.64836678  1  0  0.098101  0  0.939206  0  0  0.109907  0  0.998639  0  0  0.112641  0  0.996975  0  0  0.108423  0.107848  0  0.999971  0
H  H11  1  0.29333824  0.64836683  0.03563432  1  0  0.098128  0  0.939215  0  0  0.109931  0  0.998642  0  0  0.112666  0  0.996977  0  0  0.108439  0.107873  0  0.999971  0
H  H12  1  0.25779190  0.96443079  0.61271429  1  0  0.097408  0  0.938716  0  0  0.10905  0  0.998265  0  0  0.111769  0  0.99666  0  0  0.107784  0.107011  0  0.999544  0
H  H13  1  0.64519314  0.38724960  0.35165821  1  0  0.097347  0  0.93846  0  0  0.109085  0  0.997933  0  0  0.111824  0  0.996276  0  0  0.108286  0.107039  0  0.999261  0
H  H14  1  0.27076682  0.45535923  0.74185925  1  0  0.084611  0  0.994655  0  0  0.093838  0  1.060832  0  0  0.095353  0  1.062521  0  0  0.096429  0.092759  0  1.059667  0
H  H15  1  0.81551031  0.28656501  0.54464987  1  0  0.085449  0  0.993926  0  0  0.095028  0  1.059526  0  0  0.096483  0  1.061296  0  0  0.097041  0.093924  0  1.058412  0
H  H16  1  0.52877218  0.25817340  0.71346997  1  0  0.085693  0  0.99418  0  0  0.09517  0  1.060117  0  0  0.096606  0  1.061871  0  0  0.096779  0.094117  0  1.058964  0
H  H17  1  0.02877285  0.71346954  0.25817435  1  0  0.085711  0  0.994176  0  0  0.095191  0  1.060101  0  0  0.096628  0  1.061854  0  0  0.096794  0.094137  0  1.058948  0
H  H18  1  0.77076690  0.74186014  0.45536018  1  0  0.084595  0  0.994672  0  0  0.093796  0  1.060878  0  0  0.095304  0  1.062584  0  0  0.096421  0.092716  0  1.059712  0
H  H19  1  0.31550971  0.54465065  0.28656438  1  0  0.085448  0  0.993905  0  0  0.095044  0  1.059497  0  0  0.096488  0  1.061277  0  0  0.097049  0.093963  0  1.058361  0
H  H20  1  0.07313528  0.26714537  0.70661712  1  0  0.087859  0  0.956413  0  0  0.099506  0  1.014564  0  0  0.101779  0  1.014757  0  0  0.098302  0.097897  0  1.01447  0
H  H21  1  0.80611943  0.43959877  0.73284935  1  0  0.087752  0  0.956741  0  0  0.099864  0  1.01435  0  0  0.102139  0  1.014588  0  0  0.098766  0.098251  0  1.014237  0
H  H22  1  0.36659529  0.29337915  0.56039782  1  0  0.08646  0  0.956305  0  0  0.098463  0  1.013985  0  0  0.100765  0  1.014127  0  0  0.098142  0.096831  0  1.01389  0
H  H23  1  0.86659647  0.56039652  0.29337908  1  0  0.086489  0  0.956294  0  0  0.09849  0  1.013974  0  0  0.100792  0  1.014115  0  0  0.098153  0.096857  0  1.013879  0
H  H24  1  0.57313857  0.70662011  0.26714737  1  0  0.087879  0  0.956414  0  0  0.099513  0  1.01458  0  0  0.101787  0  1.014771  0  0  0.09832  0.097903  0  1.014489  0
H  H25  1  0.30611410  0.73284990  0.43959690  1  0  0.087712  0  0.956681  0  0  0.099814  0  1.014316  0  0  0.102088  0  1.014547  0  0  0.098755  0.098203  0  1.014199  0
H  H26  1  0.17896166  0.17670490  0.82527492  1  0  0.104967  0  0.951634  0  0  0.113041  0  1.014482  0  0  0.116125  0  1.01343  0  0  0.1062  0.110781  0  1.01536  0
H  H27  1  0.00227055  0.64873544  0.82321875  1  0  0.103577  0  0.952924  0  0  0.111874  0  1.015531  0  0  0.114964  0  1.014482  0  0  0.105471  0.109594  0  1.016444  0
H  H28  1  0.35382489  0.17458543  0.35131708  1  0  0.10429  0  0.953022  0  0  0.112387  0  1.01574  0  0  0.115438  0  1.014725  0  0  0.106055  0.110164  0  1.016577  0
H  H29  1  0.85382121  0.35131449  0.17458152  1  0  0.10428  0  0.953043  0  0  0.112376  0  1.015764  0  0  0.115428  0  1.014749  0  0  0.106054  0.110154  0  1.016599  0
H  H30  1  0.67896445  0.82527664  0.17670682  1  0  0.104954  0  0.951608  0  0  0.113029  0  1.014461  0  0  0.116115  0  1.013405  0  0  0.1062  0.110769  0  1.015339  0
H  H31  1  0.50226945  0.82322157  0.64873409  1  0  0.10365  0  0.952857  0  0  0.111934  0  1.015481  0  0  0.11503  0  1.014408  0  0  0.105491  0.109653  0  1.016393  0
H  H32  1  0.48784769  0.27721184  0.97856107  1  0  0.092683  0  0.965285  0  0  0.103233  0  1.025101  0  0  0.10555  0  1.024499  0  0  0.105538  0.101486  0  1.025751  0
H  H33  1  0.21061011  0.70145958  0.72266801  1  0  0.093402  0  0.965364  0  0  0.10406  0  1.024997  0  0  0.106386  0  1.024407  0  0  0.10551  0.102345  0  1.025587  0
H  H34  1  0.50936365  0.02125726  0.29861337  1  0  0.093482  0  0.964229  0  0  0.103968  0  1.024112  0  0  0.106342  0  1.02344  0  0  0.105373  0.102223  0  1.024753  0
H  H35  1  0.00935848  0.29861509  0.02125417  1  0  0.093527  0  0.964242  0  0  0.104041  0  1.024066  0  0  0.106417  0  1.02339  0  0  0.10539  0.102295  0  1.024708  0
H  H36  1  0.98785176  0.97856308  0.27721359  1  0  0.092667  0  0.965328  0  0  0.103245  0  1.025108  0  0  0.105565  0  1.024503  0  0  0.105552  0.101498  0  1.025759  0
H  H37  1  0.71061022  0.72267161  0.70145752  1  0  0.093403  0  0.965364  0  0  0.10407  0  1.024981  0  0  0.106396  0  1.02439  0  0  0.105518  0.102355  0  1.025572  0
H  H38  1  0.68814578  0.46510835  0.01316354  1  0  0.087795  0  0.99141  0  0  0.096843  0  1.057073  0  0  0.098311  0  1.059175  0  0  0.095651  0.09573  0  1.05573  0
H  H39  1  0.22309796  0.54809648  0.53484050  1  0  0.086468  0  0.991425  0  0  0.095734  0  1.056907  0  0  0.097206  0  1.05902  0  0  0.095319  0.094621  0  1.055534  0
H  H40  1  0.67516929  0.98686958  0.45205530  1  0  0.085787  0  0.990842  0  0  0.094832  0  1.056732  0  0  0.096353  0  1.058797  0  0  0.094293  0.093698  0  1.055388  0
H  H41  1  0.17516961  0.45205622  0.98686955  1  0  0.085832  0  0.9909  0  0  0.094868  0  1.056791  0  0  0.096388  0  1.058857  0  0  0.094304  0.093734  0  1.055445  0
H  H42  1  0.18814582  0.01316591  0.46511228  1  0  0.087818  0  0.99135  0  0  0.096871  0  1.05701  0  0  0.098339  0  1.059109  0  0  0.095665  0.09575  0  1.055673  0
H  H43  1  0.72309872  0.53484486  0.54809706  1  0  0.086469  0  0.991472  0  0  0.095702  0  1.056989  0  0  0.097183  0  1.059093  0  0  0.09531  0.094587  0  1.055618  0
C  C44  1  0.71140356  0.77518697  0.91436073  1  0  0.694592  0  3.894061  0  0  0.6567  0  4.179323  0  0  0.693824  0  4.172322  0  0  0.207163  0.631229  0  4.183173  0
C  C45  1  0.93635180  0.13914602  0.22477777  1  0  0.693245  0  3.893644  0  0  0.65545  0  4.178951  0  0  0.692581  0  4.171934  0  0  0.206565  0.629974  0  4.182808  0
C  C46  1  0.79684428  0.08559794  0.86081465  1  0  0.69104  0  3.893306  0  0  0.653244  0  4.178581  0  0  0.690347  0  4.171554  0  0  0.204659  0.627783  0  4.182442  0
C  C47  1  0.29684467  0.86081439  0.08560067  1  0  0.691029  0  3.893306  0  0  0.65324  0  4.178546  0  0  0.690344  0  4.171518  0  0  0.204698  0.627778  0  4.182407  0
C  C48  1  0.21140918  0.91436087  0.77518920  1  0  0.694694  0  3.894223  0  0  0.65686  0  4.179408  0  0  0.693989  0  4.172406  0  0  0.207233  0.631387  0  4.183262  0
C  C49  1  0.43634955  0.22477780  0.13914715  1  0  0.693186  0  3.893707  0  0  0.655419  0  4.178975  0  0  0.692551  0  4.171958  0  0  0.206529  0.629942  0  4.182831  0
C  C50  1  0.57391053  0.66244037  0.87465459  1  0  -0.232976  0  3.674557  0  0  -0.249626  0  3.929773  0  0  -0.261728  0  3.944817  0  0  -0.095849  -0.241813  0  3.919909  0
C  C51  1  0.91160883  0.21216793  0.33756307  1  0  -0.230916  0  3.671496  0  0  -0.24722  0  3.926614  0  0  -0.259306  0  3.941656  0  0  -0.094839  -0.239404  0  3.916751  0
C  C52  1  0.69924602  0.12546627  0.78785739  1  0  -0.232021  0  3.673121  0  0  -0.248192  0  3.928831  0  0  -0.260244  0  3.943832  0  0  -0.095762  -0.240401  0  3.918969  0
C  C53  1  0.19924407  0.78785602  0.12546617  1  0  -0.231978  0  3.673091  0  0  -0.248133  0  3.928766  0  0  -0.260183  0  3.943762  0  0  -0.09573  -0.240342  0  3.918904  0
C  C54  1  0.07391474  0.87465490  0.66244359  1  0  -0.232952  0  3.674696  0  0  -0.249654  0  3.929867  0  0  -0.261759  0  3.94491  0  0  -0.095829  -0.24184  0  3.920004  0
C  C55  1  0.41161065  0.33756289  0.21216822  1  0  -0.230928  0  3.671507  0  0  -0.24725  0  3.926631  0  0  -0.25934  0  3.941672  0  0  -0.094867  -0.23943  0  3.916771  0
C  C56  1  0.61690330  0.58631722  0.90785850  1  0  -0.018955  0  3.704279  0  0  -0.041742  0  3.947263  0  0  -0.035647  0  3.962945  0  0  -0.063078  -0.045601  0  3.936597  0
C  C57  1  0.03073139  0.32151711  0.41366724  1  0  -0.019844  0  3.703057  0  0  -0.043019  0  3.946587  0  0  -0.036924  0  3.962279  0  0  -0.063636  -0.046919  0  3.935949  0
C  C58  1  0.70912813  0.09227044  0.67854250  1  0  -0.019692  0  3.705855  0  0  -0.04321  0  3.948848  0  0  -0.03709  0  3.9645  0  0  -0.063889  -0.047076  0  3.938174  0
C  C59  1  0.20912847  0.67854270  0.09227087  1  0  -0.0198  0  3.70587  0  0  -0.043321  0  3.948842  0  0  -0.037202  0  3.96449  0  0  -0.063922  -0.047189  0  3.938167  0
C  C60  1  0.11690727  0.90786067  0.58632076  1  0  -0.019119  0  3.704286  0  0  -0.041897  0  3.947332  0  0  -0.035797  0  3.963011  0  0  -0.063149  -0.045755  0  3.936665  0
C  C61  1  0.53073234  0.41366775  0.32151818  1  0  -0.019859  0  3.70306  0  0  -0.043028  0  3.946584  0  0  -0.036927  0  3.962271  0  0  -0.063601  -0.046925  0  3.935941  0
C  C62  1  0.49404208  0.47444691  0.88098709  1  0  0.060385  0  3.830586  0  0  0.082788  0  4.058321  0  0  0.080296  0  4.082384  0  0  -0.015066  0.084364  0  4.041921  0
C  C63  1  0.01971980  0.40655751  0.52552117  1  0  0.060352  0  3.831951  0  0  0.082787  0  4.059918  0  0  0.080294  0  4.083979  0  0  -0.015058  0.084371  0  4.043512  0
C  C64  1  0.61318757  0.11909338  0.59351523  1  0  0.05943  0  3.831948  0  0  0.08291  0  4.058506  0  0  0.080416  0  4.082547  0  0  -0.014892  0.084495  0  4.042104  0
C  C65  1  0.11318611  0.59351466  0.11909566  1  0  0.059487  0  3.832048  0  0  0.082984  0  4.058555  0  0  0.080491  0  4.082595  0  0  -0.014909  0.084568  0  4.042154  0
C  C66  1  0.99404273  0.88098938  0.47445025  1  0  0.06043  0  3.83047  0  0  0.082848  0  4.058185  0  0  0.080359  0  4.082245  0  0  -0.015055  0.084425  0  4.041783  0
C  C67  1  0.51971922  0.52552192  0.40655601  1  0  0.060331  0  3.831851  0  0  0.082771  0  4.05981  0  0  0.080279  0  4.083868  0  0  -0.01508  0.084353  0  4.043408  0
C  C68  1  0.31896701  0.41703771  0.79434300  1  0  -0.106172  0  3.71639  0  0  -0.123464  0  3.955542  0  0  -0.124945  0  3.977077  0  0  -0.084838  -0.122281  0  3.940914  0
C  C69  1  0.90206087  0.37737130  0.58294678  1  0  -0.106149  0  3.715653  0  0  -0.123623  0  3.95495  0  0  -0.125049  0  3.976505  0  0  -0.084998  -0.122425  0  3.940298  0
C  C70  1  0.52468368  0.20571501  0.62268885  1  0  -0.108286  0  3.716685  0  0  -0.126281  0  3.956153  0  0  -0.127691  0  3.977697  0  0  -0.085803  -0.125141  0  3.941491  0
C  C71  1  0.02468659  0.62268865  0.20571510  1  0  -0.108279  0  3.716921  0  0  -0.126282  0  3.956367  0  0  -0.127693  0  3.977913  0  0  -0.085784  -0.125142  0  3.941709  0
C  C72  1  0.81896493  0.79434473  0.41703849  1  0  -0.106168  0  3.716377  0  0  -0.123439  0  3.955536  0  0  -0.124923  0  3.977069  0  0  -0.084834  -0.122257  0  3.940906  0
C  C73  1  0.40205792  0.58294778  0.37736995  1  0  -0.106094  0  3.715466  0  0  -0.123593  0  3.954767  0  0  -0.12501  0  3.976325  0  0  -0.084968  -0.122413  0  3.940106  0
C  C74  1  0.20767446  0.31065711  0.77429660  1  0  -0.076998  0  3.779351  0  0  -0.086823  0  4.025375  0  0  -0.089784  0  4.047217  0  0  -0.089474  -0.084809  0  4.010453  0
C  C75  1  0.89712387  0.46376491  0.68932893  1  0  -0.077505  0  3.778985  0  0  -0.087824  0  4.025343  0  0  -0.090832  0  4.047169  0  0  -0.08976  -0.085793  0  4.010428  0
C  C76  1  0.43351507  0.22572144  0.53629468  1  0  -0.075657  0  3.778946  0  0  -0.085796  0  4.025306  0  0  -0.088777  0  4.047109  0  0  -0.089133  -0.083743  0  4.01044  0
C  C77  1  0.93351498  0.53629301  0.22571917  1  0  -0.0757  0  3.778952  0  0  -0.085833  0  4.025317  0  0  -0.088813  0  4.047122  0  0  -0.089133  -0.083781  0  4.010451  0
C  C78  1  0.70767408  0.77429761  0.31065752  1  0  -0.076981  0  3.779311  0  0  -0.086791  0  4.025319  0  0  -0.089753  0  4.047159  0  0  -0.089451  -0.084779  0  4.010396  0
C  C79  1  0.39712231  0.68933041  0.46376306  1  0  -0.077423  0  3.778803  0  0  -0.087738  0  4.025173  0  0  -0.09074  0  4.046993  0  0  -0.08974  -0.08571  0  4.010264  0
C  C80  1  0.26701698  0.25954563  0.84046372  1  0  -0.05675  0  3.715846  0  0  -0.073134  0  3.967024  0  0  -0.074177  0  3.986915  0  0  -0.081075  -0.072201  0  3.953367  0
C  C81  1  0.00747256  0.58107012  0.74037229  1  0  -0.056199  0  3.718816  0  0  -0.072926  0  3.970374  0  0  -0.073925  0  3.990215  0  0  -0.082563  -0.072024  0  3.956789  0
C  C82  1  0.42671776  0.15946632  0.41900845  1  0  -0.057623  0  3.717882  0  0  -0.074119  0  3.969403  0  0  -0.075115  0  3.989267  0  0  -0.083686  -0.073239  0  3.955801  0
C  C83  1  0.92671789  0.41900640  0.15946507  1  0  -0.057541  0  3.717943  0  0  -0.074041  0  3.969478  0  0  -0.07504  0  3.989343  0  0  -0.083672  -0.073162  0  3.955876  0
C  C84  1  0.76702107  0.84046609  0.25954704  1  0  -0.056741  0  3.715837  0  0  -0.073124  0  3.967018  0  0  -0.074166  0  3.98691  0  0  -0.081092  -0.072191  0  3.953361  0
C  C85  1  0.50746886  0.74037274  0.58106818  1  0  -0.05632  0  3.71871  0  0  -0.073032  0  3.970265  0  0  -0.074028  0  3.990112  0  0  -0.082598  -0.072128  0  3.95668  0
C  C86  1  0.44022137  0.31593762  0.92658276  1  0  -0.073176  0  3.781174  0  0  -0.086145  0  4.033205  0  0  -0.088254  0  4.053785  0  0  -0.09227  -0.084701  0  4.01921  0
C  C87  1  0.12423159  0.61074925  0.68394998  1  0  -0.074291  0  3.781714  0  0  -0.08725  0  4.033507  0  0  -0.089382  0  4.054115  0  0  -0.090742  -0.085825  0  4.019506  0
C  C88  1  0.51376271  0.07334400  0.38934433  1  0  -0.072539  0  3.778654  0  0  -0.085338  0  4.030233  0  0  -0.087498  0  4.050805  0  0  -0.089011  -0.08389  0  4.01625  0
C  C89  1  0.01376093  0.38934223  0.07334181  1  0  -0.072729  0  3.778696  0  0  -0.085543  0  4.0303  0  0  -0.0877  0  4.050868  0  0  -0.089071  -0.084094  0  4.016318  0
C  C90  1  0.94022673  0.92658579  0.31594193  1  0  -0.07321  0  3.781229  0  0  -0.086204  0  4.033281  0  0  -0.088318  0  4.053862  0  0  -0.092302  -0.08476  0  4.019284  0
C  C91  1  0.62423149  0.68395176  0.61074789  1  0  -0.074283  0  3.78161  0  0  -0.087256  0  4.03339  0  0  -0.089388  0  4.053997  0  0  -0.090726  -0.08583  0  4.019386  0
C  C92  1  0.55303076  0.42151940  0.94598893  1  0  -0.114868  0  3.730554  0  0  -0.132255  0  3.969757  0  0  -0.134307  0  3.991702  0  0  -0.086008  -0.130625  0  3.954737  0
C  C93  1  0.13154860  0.52451863  0.57841241  1  0  -0.112927  0  3.728549  0  0  -0.130398  0  3.967339  0  0  -0.132459  0  3.989306  0  0  -0.086321  -0.128782  0  3.95236  0
C  C94  1  0.60720095  0.05402185  0.47558835  1  0  -0.111479  0  3.727854  0  0  -0.1291  0  3.966493  0  0  -0.131217  0  3.988445  0  0  -0.085178  -0.127442  0  3.951466  0
C  C95  1  0.10720266  0.47558877  0.05402023  1  0  -0.11148  0  3.727752  0  0  -0.129096  0  3.966385  0  0  -0.131214  0  3.988334  0  0  -0.085178  -0.127437  0  3.951358  0
C  C96  1  0.05303202  0.94599029  0.42152203  1  0  -0.114885  0  3.730426  0  0  -0.132277  0  3.969638  0  0  -0.13433  0  3.991586  0  0  -0.086034  -0.13064  0  3.954624  0
C  C97  1  0.63154989  0.57841370  0.52451667  1  0  -0.112935  0  3.72847  0  0  -0.13038  0  3.967271  0  0  -0.132448  0  3.989233  0  0  -0.08635  -0.12876  0  3.952294  0
O  O98  1  0.65915515  0.85414076  0.89612510  1  0  -0.753384  0  1.996656  0  0  -0.700484  0  2.252601  0  0  -0.738608  0  2.245151  0  0  -0.41969  -0.672688  0  2.256204  0
O  O99  1  0.80520386  0.04189654  0.14582776  1  0  -0.754091  0  1.997071  0  0  -0.701405  0  2.25291  0  0  -0.739463  0  2.245405  0  0  -0.420559  -0.673683  0  2.256606  0
O  O100  1  0.76299476  0.10392893  0.95807832  1  0  -0.752774  0  1.996624  0  0  -0.700166  0  2.252697  0  0  -0.738367  0  2.24545  0  0  -0.419095  -0.672353  0  2.256227  0
O  O101  1  0.26299350  0.95807819  0.10393039  1  0  -0.752833  0  1.99666  0  0  -0.700163  0  2.252655  0  0  -0.738362  0  2.245411  0  0  -0.41909  -0.672348  0  2.256185  0
O  O102  1  0.15916115  0.89612500  0.85414232  1  0  -0.7534  0  1.996783  0  0  -0.700533  0  2.252721  0  0  -0.738659  0  2.245273  0  0  -0.419661  -0.672735  0  2.256325  0
O  O103  1  0.30520304  0.14582745  0.04189902  1  0  -0.754098  0  1.997091  0  0  -0.701401  0  2.252904  0  0  -0.739463  0  2.2454  0  0  -0.42054  -0.67368  0  2.2566  0
O  O104  1  0.88054109  0.79677490  0.96521882  1  0  -0.656261  0  1.959779  0  0  -0.609009  0  2.199602  0  0  -0.640728  0  2.19327  0  0  -0.369715  -0.586476  0  2.20308  0
O  O105  1  0.08382380  0.16851966  0.20315686  1  0  -0.655512  0  1.960362  0  0  -0.608573  0  2.20054  0  0  -0.640254  0  2.194153  0  0  -0.369827  -0.586099  0  2.204111  0
O  O106  1  0.91482594  0.03451324  0.83138328  1  0  -0.654024  0  1.959825  0  0  -0.606796  0  2.199556  0  0  -0.638489  0  2.193177  0  0  -0.367898  -0.584327  0  2.203179  0
O  O107  1  0.41483325  0.83138571  0.03451949  1  0  -0.653974  0  1.959765  0  0  -0.606781  0  2.199507  0  0  -0.638472  0  2.193123  0  0  -0.367932  -0.584315  0  2.203131  0
O  O108  1  0.38054786  0.96522036  0.79677842  1  0  -0.656324  0  1.959786  0  0  -0.609073  0  2.199558  0  0  -0.640771  0  2.193174  0  0  -0.369772  -0.586541  0  2.203038  0
O  O109  1  0.58382104  0.20315662  0.16852065  1  0  -0.655453  0  1.960366  0  0  -0.608547  0  2.200564  0  0  -0.640228  0  2.194173  0  0  -0.369805  -0.586074  0  2.204136  0
