# generated using pymatgen
data_CaH22C20S(NO4)2
_symmetry_space_group_name_H-M   'P 1'
_cell_length_a   8.45265236
_cell_length_b   11.22465627
_cell_length_c   27.35456187
_cell_angle_alpha   89.99943513
_cell_angle_beta   89.99979590
_cell_angle_gamma   109.18444440
_symmetry_Int_Tables_number   1
_chemical_formula_structural   CaH22C20S(NO4)2
_chemical_formula_sum   'Ca4 H88 C80 S4 N8 O32'
_cell_volume   2451.21821801
_cell_formula_units_Z   4
loop_
 _symmetry_equiv_pos_site_id
 _symmetry_equiv_pos_as_xyz
  1  'x, y, z'
loop_
 _atom_site_type_symbol
 _atom_site_label
 _atom_site_symmetry_multiplicity
 _atom_site_fract_x
 _atom_site_fract_y
 _atom_site_fract_z
 _atom_site_occupancy
 _atom_site_pbe_bader_charge
 _atom_site_pbe_bader_spin_density
 _atom_site_pbe_cm5_charge
 _atom_site_pbe_ddec_charge
 _atom_site_pbe_ddec_spin_density
 _atom_site_pbe_ddec_sum_bond_order
 _atom_site_pbe_magmom
Ca  Ca0  1  0.51985904  0.75501550  0.50049496  1  1.653125  0  0.882108  1.397336  0  1.538803  0
Ca  Ca1  1  0.48013788  0.74498813  0.00049577  1  1.653155  0  0.88207  1.397328  0  1.538765  0
Ca  Ca2  1  0.48013746  0.24498635  0.49950459  1  1.653145  0  0.882082  1.397361  0  1.538726  0
Ca  Ca3  1  0.51986373  0.25501756  0.99950561  1  1.653227  0  0.882109  1.39743  0  1.538656  0
H  H4  1  0.92494804  0.84435238  0.60670207  1  0.073005  0  0.12071  0.037539  0  0.992017  0
H  H5  1  0.07503907  0.65565074  0.10670332  1  0.072911  0  0.120694  0.037483  0  0.992036  0
H  H6  1  0.07505241  0.15565048  0.39329748  1  0.072988  0  0.120735  0.037535  0  0.992004  0
H  H7  1  0.92495935  0.34435583  0.89329769  1  0.072274  0  0.120672  0.03748  0  0.992071  0
H  H8  1  0.57040588  0.80763285  0.11867917  1  0.117848  0  0.112549  0.105441  0  1.038048  0
H  H9  1  0.42960599  0.69236753  0.61867908  1  0.117826  0  0.112548  0.105418  0  1.038144  0
H  H10  1  0.42961564  0.19236944  0.88132184  1  0.117905  0  0.112546  0.105395  0  1.038153  0
H  H11  1  0.57040830  0.30764025  0.38132157  1  0.117714  0  0.112544  0.105439  0  1.038002  0
H  H12  1  0.17493337  0.00193377  0.31316887  1  0.124186  0  0.107678  0.11926  0  1.015933  0
H  H13  1  0.82506036  0.49805494  0.81317186  1  0.12349  0  0.107701  0.119315  0  1.015767  0
H  H14  1  0.82506593  0.99806625  0.68682959  1  0.124077  0  0.107674  0.119268  0  1.015862  0
H  H15  1  0.17493392  0.50193283  0.18683171  1  0.124078  0  0.107685  0.119272  0  1.015921  0
H  H16  1  0.61851005  0.83503188  0.37317485  1  0.09732  0  0.114085  0.110741  0  1.009949  0
H  H17  1  0.38148829  0.66496913  0.87317383  1  0.09728  0  0.114072  0.110745  0  1.009994  0
H  H18  1  0.38147183  0.16496317  0.62682873  1  0.097128  0  0.114034  0.110705  0  1.010031  0
H  H19  1  0.61851255  0.33503467  0.12682500  1  0.097301  0  0.11407  0.110685  0  1.010038  0
H  H20  1  0.41536166  0.72236319  0.19566549  1  0.098723  0  0.107054  0.113012  0  1.015391  0
H  H21  1  0.58464996  0.77763022  0.69566343  1  0.099049  0  0.106988  0.112896  0  1.015613  0
H  H22  1  0.58465120  0.27763239  0.80433626  1  0.099266  0  0.106978  0.112849  0  1.015643  0
H  H23  1  0.41536767  0.22236545  0.30433759  1  0.098786  0  0.107031  0.11299  0  1.015437  0
H  H24  1  0.45879461  0.74790615  0.29716476  1  0.09383  0  0.11072  0.115996  0  0.995137  0
H  H25  1  0.54120259  0.75208399  0.79716174  1  0.093659  0  0.110714  0.115977  0  0.99515  0
H  H26  1  0.54119761  0.25208814  0.70283845  1  0.093527  0  0.110727  0.116  0  0.995237  0
H  H27  1  0.45880077  0.24790862  0.20283562  1  0.093451  0  0.110723  0.115954  0  0.995167  0
H  H28  1  0.20255245  0.02282596  0.19567251  1  0.135101  0  0.107933  0.125102  0  1.031149  0
H  H29  1  0.79744657  0.47716634  0.69566830  1  0.135077  0  0.107923  0.125103  0  1.031127  0
H  H30  1  0.79744061  0.97716460  0.80432887  1  0.135141  0  0.107935  0.125106  0  1.031184  0
H  H31  1  0.20255957  0.52282725  0.30432394  1  0.135204  0  0.107965  0.125115  0  1.031231  0
H  H32  1  0.34134632  0.09197648  0.38912083  1  0.115314  0  0.108883  0.10031  0  1.056839  0
H  H33  1  0.65864578  0.40802212  0.88912656  1  0.115338  0  0.108923  0.100276  0  1.056867  0
H  H34  1  0.65864541  0.90802529  0.61087836  1  0.11539  0  0.10891  0.100323  0  1.056835  0
H  H35  1  0.34134637  0.59197778  0.11087848  1  0.115357  0  0.108897  0.100296  0  1.056866  0
H  H36  1  0.22078847  0.88568138  0.48196523  1  0.126988  0  0.131053  0.053357  0  1.022574  0
H  H37  1  0.77921068  0.61432203  0.98196434  1  0.127123  0  0.131016  0.053402  0  1.022593  0
H  H38  1  0.77920813  0.11431204  0.51803469  1  0.126913  0  0.131061  0.0534  0  1.022705  0
H  H39  1  0.22078739  0.38568079  0.01803485  1  0.126996  0  0.131025  0.053368  0  1.022584  0
H  H40  1  0.02642833  0.95577024  0.45852340  1  0.07472  0  0.113891  0.12758  0  1.009694  0
H  H41  1  0.97356940  0.54423477  0.95852295  1  0.074787  0  0.1139  0.127607  0  1.009664  0
H  H42  1  0.97356550  0.04422220  0.54147871  1  0.074662  0  0.113889  0.12756  0  1.009654  0
H  H43  1  0.02642821  0.45577272  0.04147734  1  0.074736  0  0.11392  0.127592  0  1.009615  0
H  H44  1  0.83606523  0.83726021  0.44008898  1  0.071542  0  0.113642  0.123812  0  1.03924  0
H  H45  1  0.16393254  0.66274723  0.94008747  1  0.071576  0  0.113668  0.123855  0  1.039233  0
H  H46  1  0.16393053  0.16273695  0.55991241  1  0.071454  0  0.113647  0.123816  0  1.039262  0
H  H47  1  0.83606276  0.33725461  0.05991245  1  0.071382  0  0.113688  0.123865  0  1.0392  0
H  H48  1  0.97303260  0.93154618  0.39513350  1  0.041221  0  0.10097  0.109427  0  0.99972  0
H  H49  1  0.02696712  0.56845888  0.89513143  1  0.041196  0  0.100935  0.109405  0  0.999694  0
H  H50  1  0.02696116  0.06845188  0.60487007  1  0.04149  0  0.10096  0.109434  0  0.999735  0
H  H51  1  0.97303095  0.43154393  0.10486958  1  0.0415  0  0.100953  0.109415  0  0.999692  0
H  H52  1  0.08679453  0.64179415  0.39021693  1  0.09304  0  0.109002  0.122208  0  1.023679  0
H  H53  1  0.91320769  0.85821110  0.89021381  1  0.092997  0  0.108996  0.122205  0  1.023673  0
H  H54  1  0.91320238  0.35820584  0.60978079  1  0.092998  0  0.10904  0.122202  0  1.023721  0
H  H55  1  0.08679826  0.14179653  0.10978464  1  0.093065  0  0.108993  0.122196  0  1.023729  0
H  H56  1  0.98849366  0.73422926  0.35592764  1  0.087361  0  0.105003  0.121889  0  0.996527  0
H  H57  1  0.01150471  0.76577133  0.85592478  1  0.087235  0  0.105047  0.121964  0  0.996396  0
H  H58  1  0.01149571  0.26576966  0.64407192  1  0.087318  0  0.105035  0.121922  0  0.996477  0
H  H59  1  0.98850012  0.23423067  0.14407404  1  0.087317  0  0.105021  0.121903  0  0.996466  0
H  H60  1  0.87328053  0.62975999  0.40239987  1  0.075908  0  0.107541  0.128218  0  1.002765  0
H  H61  1  0.12672027  0.87023926  0.90239610  1  0.075944  0  0.107518  0.128211  0  1.002851  0
H  H62  1  0.12671368  0.37023340  0.59759932  1  0.075588  0  0.107509  0.128178  0  1.002868  0
H  H63  1  0.87328853  0.12976375  0.09760345  1  0.075911  0  0.107526  0.128184  0  1.002948  0
H  H64  1  0.36655092  0.11138044  0.11939136  1  0.110881  0  0.108104  0.103006  0  1.045547  0
H  H65  1  0.63344644  0.38861128  0.61938842  1  0.110842  0  0.108128  0.103013  0  1.045595  0
H  H66  1  0.63344848  0.88861116  0.88061039  1  0.110901  0  0.108136  0.103001  0  1.045569  0
H  H67  1  0.36655209  0.61138686  0.38060528  1  0.111321  0  0.108164  0.103067  0  1.045494  0
H  H68  1  0.79888578  0.61565400  0.50829525  1  0.131364  0  0.117271  0.126641  0  1.049861  0
H  H69  1  0.20112055  0.88434395  0.00829471  1  0.13123  0  0.117236  0.126599  0  1.0499  0
H  H70  1  0.20111064  0.38435347  0.49170247  1  0.13117  0  0.117268  0.126637  0  1.049907  0
H  H71  1  0.79888576  0.11566744  0.99170668  1  0.131103  0  0.117248  0.126567  0  1.049895  0
H  H72  1  0.83786499  0.50170275  0.54746662  1  0.102769  0  0.109205  0.12321  0  1.027616  0
H  H73  1  0.16214542  0.99830346  0.04746493  1  0.10276  0  0.109188  0.123181  0  1.027479  0
H  H74  1  0.16212866  0.49830373  0.45252927  1  0.10285  0  0.109185  0.123195  0  1.027564  0
H  H75  1  0.83785654  0.00170597  0.95253682  1  0.102913  0  0.109193  0.123167  0  1.027623  0
H  H76  1  0.00277520  0.59960613  0.51021935  1  0.071105  0  0.109297  0.125405  0  1.005256  0
H  H77  1  0.99722664  0.90039824  0.01021677  1  0.071062  0  0.109279  0.125398  0  1.005213  0
H  H78  1  0.99721334  0.40039652  0.48977764  1  0.070817  0  0.10931  0.125436  0  1.005235  0
H  H79  1  0.00277455  0.09960931  0.98978388  1  0.071087  0  0.109307  0.125409  0  1.005112  0
H  H80  1  0.09761691  0.75522985  0.63161190  1  0.061441  0  0.110954  0.126101  0  0.983923  0
H  H81  1  0.90237747  0.74477733  0.13161371  1  0.061511  0  0.110933  0.126068  0  0.983824  0
H  H82  1  0.90238793  0.24477214  0.36838290  1  0.061337  0  0.110928  0.126036  0  0.983987  0
H  H83  1  0.09762932  0.25522657  0.86838768  1  0.061458  0  0.110931  0.126077  0  0.983913  0
H  H84  1  0.18062761  0.67986600  0.58532795  1  0.10754  0  0.11208  0.13128  0  1.018145  0
H  H85  1  0.81937026  0.82014543  0.08532662  1  0.107454  0  0.11206  0.131258  0  1.018045  0
H  H86  1  0.81937007  0.32013587  0.41466831  1  0.107611  0  0.112064  0.131184  0  1.018173  0
H  H87  1  0.18062938  0.17985835  0.91467403  1  0.107438  0  0.112056  0.131244  0  1.018132  0
H  H88  1  0.01724931  0.58798847  0.62513914  1  0.054511  0  0.10345  0.118931  0  1.00227  0
H  H89  1  0.98275231  0.91202465  0.12513872  1  0.054378  0  0.103418  0.118917  0  1.002212  0
H  H90  1  0.98275349  0.41201724  0.37485713  1  0.05426  0  0.103412  0.118901  0  1.002342  0
H  H91  1  0.01725045  0.08798386  0.87486340  1  0.054491  0  0.103451  0.118959  0  1.002263  0
C  C92  1  0.87519490  0.78184082  0.57506253  1  1.375083  0  0.185997  0.320198  0  4.124649  0
C  C93  1  0.12479744  0.71815677  0.07506493  1  1.375203  0  0.185991  0.320347  0  4.124698  0
C  C94  1  0.12479805  0.21815816  0.42493666  1  1.374995  0  0.185991  0.320307  0  4.124691  0
C  C95  1  0.87520308  0.28184047  0.92493535  1  1.375875  0  0.185971  0.320293  0  4.124638  0
C  C96  1  0.49359072  0.85627721  0.13638110  1  -0.102523  0  -0.074963  -0.090511  0  3.961267  0
C  C97  1  0.50641480  0.64371972  0.63637929  1  -0.10259  0  -0.074997  -0.090511  0  3.961677  0
C  C98  1  0.50642523  0.14372591  0.86362248  1  -0.103121  0  -0.074954  -0.090433  0  3.96169  0
C  C99  1  0.49358811  0.35627756  0.36361989  1  -0.102483  0  -0.074977  -0.090479  0  3.961466  0
C  C100  1  0.27340776  0.96744080  0.32655293  1  -0.019227  0  -0.082828  -0.096155  0  3.977775  0
C  C101  1  0.72658114  0.53255020  0.82655499  1  -0.018527  0  -0.08287  -0.096249  0  3.97774  0
C  C102  1  0.72658480  0.03255724  0.67344735  1  -0.018952  0  -0.082829  -0.096203  0  3.977529  0
C  C103  1  0.27341073  0.46744034  0.17344822  1  -0.019002  0  -0.082834  -0.096135  0  3.977568  0
C  C104  1  0.52430706  0.87340717  0.35933399  1  -0.022036  0  -0.072761  -0.084347  0  3.949869  0
C  C105  1  0.47569158  0.62659707  0.85933411  1  -0.022039  0  -0.072795  -0.084461  0  3.949947  0
C  C106  1  0.47568351  0.12659177  0.64066995  1  -0.021685  0  -0.072694  -0.084309  0  3.949898  0
C  C107  1  0.52431045  0.37340676  0.14066654  1  -0.022087  0  -0.072765  -0.084322  0  3.949963  0
C  C108  1  0.40608316  0.80776740  0.17892735  1  -0.005777  0  -0.084324  -0.094641  0  3.988498  0
C  C109  1  0.59391846  0.69223288  0.67892233  1  -0.005988  0  -0.084254  -0.094485  0  3.98874  0
C  C110  1  0.59392640  0.19223749  0.82107879  1  -0.006358  0  -0.084262  -0.094481  0  3.988703  0
C  C111  1  0.40608799  0.30776727  0.32107503  1  -0.00589  0  -0.084346  -0.094688  0  3.98854  0
C  C112  1  0.43427559  0.82389501  0.31716786  1  -0.04438  0  -0.079609  -0.08611  0  3.969842  0
C  C113  1  0.56571869  0.67609729  0.81716476  1  -0.044205  0  -0.079544  -0.085983  0  3.970047  0
C  C114  1  0.56571505  0.17609831  0.68283754  1  -0.04426  0  -0.079639  -0.086206  0  3.969981  0
C  C115  1  0.43428186  0.32389714  0.18283296  1  -0.044075  0  -0.079593  -0.085981  0  3.9699  0
C  C116  1  0.28462735  0.97741905  0.17870188  1  -0.062774  0  -0.084289  -0.1009  0  3.972692  0
C  C117  1  0.71537351  0.52257935  0.67870216  1  -0.062287  0  -0.084255  -0.100875  0  3.972855  0
C  C118  1  0.71537668  0.02258387  0.82129658  1  -0.062807  0  -0.084384  -0.101012  0  3.97284  0
C  C119  1  0.28461717  0.47741116  0.32129775  1  -0.062286  0  -0.084359  -0.100982  0  3.972828  0
C  C120  1  0.36636888  0.01750578  0.36821001  1  -0.055493  0  -0.080123  -0.09361  0  3.957743  0
C  C121  1  0.63362092  0.48249527  0.86821584  1  -0.055475  0  -0.080137  -0.093497  0  3.95782  0
C  C122  1  0.63361692  0.98249307  0.63178918  1  -0.055802  0  -0.08013  -0.093587  0  3.957622  0
C  C123  1  0.36637399  0.51750562  0.13178847  1  -0.055498  0  -0.080144  -0.093613  0  3.957526  0
C  C124  1  0.18782147  0.80420984  0.45668078  1  1.356874  0  0.183388  0.299108  0  4.112969  0
C  C125  1  0.81217157  0.69579234  0.95667843  1  1.356731  0  0.183434  0.29898  0  4.113002  0
C  C126  1  0.81217278  0.19578074  0.54331877  1  1.357313  0  0.183421  0.299091  0  4.113278  0
C  C127  1  0.18782607  0.30421234  0.04332003  1  1.356701  0  0.183412  0.298999  0  4.113169  0
C  C128  1  0.47842182  0.96535513  0.11491427  1  0.016481  0  -0.006294  -0.029293  0  3.939242  0
C  C129  1  0.52158619  0.53464436  0.61491508  1  0.016405  0  -0.00634  -0.029393  0  3.939404  0
C  C130  1  0.52160037  0.03465747  0.88508712  1  0.016895  0  -0.006364  -0.029328  0  3.939412  0
C  C131  1  0.47841713  0.46535105  0.38508484  1  0.016474  0  -0.006277  -0.029333  0  3.93945  0
C  C132  1  0.96775606  0.88465212  0.43074814  1  0.306937  0  -0.128489  -0.285987  0  3.911595  0
C  C133  1  0.03224281  0.61534906  0.93074660  1  0.306794  0  -0.128467  -0.286046  0  3.911519  0
C  C134  1  0.03224092  0.11534225  0.56925361  1  0.306647  0  -0.128447  -0.285896  0  3.911488  0
C  C135  1  0.96775406  0.38465374  0.06925332  1  0.306833  0  -0.128486  -0.285924  0  3.911357  0
C  C136  1  0.99765654  0.69360210  0.39194913  1  0.231654  0  -0.130664  -0.264232  0  3.862354  0
C  C137  1  0.00234171  0.80639929  0.89194649  1  0.231668  0  -0.130661  -0.264378  0  3.862413  0
C  C138  1  0.00233564  0.30639500  0.60804970  1  0.232118  0  -0.130708  -0.264215  0  3.86242  0
C  C139  1  0.99766309  0.19360552  0.10805197  1  0.231631  0  -0.130649  -0.264192  0  3.862588  0
C  C140  1  0.49022141  0.97000002  0.38523406  1  0.015276  0  -0.006431  -0.031544  0  3.942012  0
C  C141  1  0.50977101  0.53000428  0.88523673  1  0.009625  0  -0.006388  -0.031533  0  3.941997  0
C  C142  1  0.50976597  0.02999981  0.61476732  1  0.015641  0  -0.006488  -0.031636  0  3.942116  0
C  C143  1  0.49022429  0.46999755  0.11476538  1  0.015215  0  -0.006437  -0.031615  0  3.942012  0
C  C144  1  0.57798011  0.01976012  0.43288539  1  1.614069  0  0.227889  0.613535  0  4.209599  0
C  C145  1  0.42202349  0.48024768  0.93289000  1  1.620081  0  0.227919  0.613744  0  4.209724  0
C  C146  1  0.42201438  0.98024263  0.56711526  1  1.614193  0  0.227953  0.61367  0  4.209886  0
C  C147  1  0.57797493  0.51975889  0.06711212  1  1.614083  0  0.22788  0.613645  0  4.209686  0
C  C148  1  0.37603738  0.02647330  0.13666250  1  -0.050794  0  -0.077693  -0.091115  0  3.952323  0
C  C149  1  0.62396828  0.47351900  0.63666216  1  -0.051338  0  -0.077687  -0.091018  0  3.952153  0
C  C150  1  0.62397107  0.97352596  0.86333778  1  -0.050703  0  -0.077631  -0.091033  0  3.952105  0
C  C151  1  0.37604454  0.52647939  0.36333374  1  -0.051762  0  -0.077736  -0.091148  0  3.952226  0
C  C152  1  0.89217053  0.59664518  0.53186900  1  0.19905  0  -0.134121  -0.285848  0  3.867385  0
C  C153  1  0.10783557  0.90335581  0.03186812  1  0.199225  0  -0.134067  -0.285729  0  3.867174  0
C  C154  1  0.10782435  0.40335852  0.46812762  1  0.199463  0  -0.134101  -0.285776  0  3.867261  0
C  C155  1  0.89216604  0.09664988  0.96813290  1  0.199277  0  -0.134101  -0.285738  0  3.867118  0
C  C156  1  0.06674310  0.67757850  0.60514994  1  0.250628  0  -0.129008  -0.282135  0  3.89652  0
C  C157  1  0.93325909  0.82242960  0.10514957  1  0.250681  0  -0.128956  -0.282063  0  3.896312  0
C  C158  1  0.93325816  0.32242343  0.39484596  1  0.250707  0  -0.1289  -0.281832  0  3.896654  0
C  C159  1  0.06675048  0.17757528  0.89484998  1  0.250532  0  -0.128986  -0.282124  0  3.896498  0
C  C160  1  0.29986261  0.86745277  0.19906214  1  -0.189234  0  -0.022784  -0.079109  0  3.991703  0
C  C161  1  0.70013971  0.63254693  0.69906016  1  -0.189156  0  -0.022824  -0.079229  0  3.991839  0
C  C162  1  0.70014177  0.13255390  0.80093961  1  -0.189289  0  -0.022783  -0.079109  0  3.991751  0
C  C163  1  0.29986758  0.36744950  0.30093793  1  -0.189254  0  -0.022769  -0.079021  0  3.991682  0
C  C164  1  0.30725040  0.86975286  0.30175652  1  -0.254397  0  -0.021241  -0.079382  0  3.98332  0
C  C165  1  0.69274423  0.63024272  0.80175639  1  -0.254347  0  -0.021298  -0.079507  0  3.983634  0
C  C166  1  0.69275009  0.13024719  0.69824450  1  -0.25431  0  -0.021199  -0.079217  0  3.983394  0
C  C167  1  0.30725241  0.36974790  0.19824390  1  -0.254388  0  -0.021289  -0.079484  0  3.983382  0
C  C168  1  0.56677677  0.01325523  0.06729813  1  1.597549  0  0.229947  0.611129  0  4.221193  0
C  C169  1  0.43322619  0.48674283  0.56729940  1  1.59738  0  0.230011  0.611148  0  4.221316  0
C  C170  1  0.43323234  0.98675433  0.93270143  1  1.597853  0  0.229889  0.611021  0  4.221219  0
C  C171  1  0.56676557  0.51325613  0.43270088  1  1.598624  0  0.229996  0.61117  0  4.221222  0
S  S172  1  0.17872242  0.79809306  0.25110448  1  2.4684  0  0.464952  0.950493  0  5.785548  0
S  S173  1  0.82128079  0.70189012  0.75110649  1  2.468005  0  0.465062  0.95089  0  5.785876  0
S  S174  1  0.82127618  0.20189946  0.74889324  1  2.468271  0  0.465147  0.950785  0  5.785555  0
S  S175  1  0.17872629  0.29809131  0.24889672  1  2.468357  0  0.465028  0.950581  0  5.785365  0
N  N176  1  0.05665024  0.79410291  0.42780854  1  -1.23792  0  -0.279366  0.036581  0  3.728644  0
N  N177  1  0.94334990  0.70589838  0.92780674  1  -1.237571  0  -0.279472  0.036703  0  3.728476  0
N  N178  1  0.94334517  0.20589049  0.57219211  1  -1.238301  0  -0.279464  0.036437  0  3.728623  0
N  N179  1  0.05665213  0.29410544  0.07219209  1  -1.237729  0  -0.279459  0.036497  0  3.728764  0
N  N180  1  0.94211334  0.69011584  0.57067584  1  -1.203256  0  -0.27465  0.037564  0  3.73204  0
N  N181  1  0.05789016  0.80988863  0.07067685  1  -1.203251  0  -0.27468  0.037384  0  3.732186  0
N  N182  1  0.05788946  0.30988986  0.42932005  1  -1.203211  0  -0.27475  0.037235  0  3.732315  0
N  N183  1  0.94212060  0.19011628  0.92932453  1  -1.203746  0  -0.274608  0.037586  0  3.731902  0
O  O184  1  0.26924595  0.72851250  0.45627730  1  -1.206881  0  -0.351186  -0.532707  0  2.31613  0
O  O185  1  0.73075149  0.77148883  0.95627583  1  -1.207039  0  -0.351143  -0.532648  0  2.316232  0
O  O186  1  0.73075346  0.27147910  0.54372006  1  -1.206751  0  -0.351179  -0.532657  0  2.316251  0
O  O187  1  0.26925212  0.22851595  0.04372226  1  -1.206898  0  -0.351175  -0.532631  0  2.31626  0
O  O188  1  0.63534473  0.94723442  0.45770896  1  -1.222085  0  -0.370301  -0.632937  0  2.195879  0
O  O189  1  0.36463753  0.55277035  0.95771024  1  -1.222278  0  -0.37031  -0.633057  0  2.195667  0
O  O190  1  0.36464812  0.05277299  0.54229315  1  -1.222223  0  -0.370256  -0.632977  0  2.195806  0
O  O191  1  0.63535928  0.44723806  0.04229114  1  -1.222051  0  -0.370247  -0.632956  0  2.195732  0
O  O192  1  0.76739577  0.80010413  0.54734433  1  -1.21267  0  -0.353675  -0.538542  0  2.31379  0
O  O193  1  0.23258815  0.69989227  0.04734595  1  -1.212635  0  -0.35357  -0.53851  0  2.313937  0
O  O194  1  0.23259161  0.19989569  0.45265633  1  -1.212511  0  -0.353632  -0.538526  0  2.313934  0
O  O195  1  0.76741462  0.30011625  0.95265397  1  -1.212172  0  -0.353601  -0.538589  0  2.313867  0
O  O196  1  0.59399917  0.12860038  0.05659034  1  -1.229159  0  -0.379949  -0.643608  0  2.2208  0
O  O197  1  0.40600044  0.37140074  0.55659065  1  -1.229169  0  -0.379974  -0.643578  0  2.220899  0
O  O198  1  0.40599929  0.87140338  0.94340958  1  -1.229302  0  -0.37992  -0.643528  0  2.220649  0
O  O199  1  0.59400159  0.62860308  0.44340781  1  -1.229226  0  -0.379985  -0.643572  0  2.220711  0
O  O200  1  0.58601704  0.13059647  0.44527725  1  -1.222629  0  -0.377402  -0.64066  0  2.241998  0
O  O201  1  0.41397349  0.36941449  0.94528084  1  -1.222892  0  -0.377443  -0.640747  0  2.242281  0
O  O202  1  0.41397696  0.86941377  0.55472194  1  -1.222934  0  -0.377473  -0.640698  0  2.242313  0
O  O203  1  0.58602570  0.63059397  0.05472090  1  -1.222633  0  -0.377407  -0.640703  0  2.242198  0
O  O204  1  0.60869627  0.93473431  0.04134591  1  -1.216184  0  -0.371582  -0.625731  0  2.205768  0
O  O205  1  0.39130409  0.56526162  0.54134418  1  -1.21588  0  -0.371576  -0.625745  0  2.205748  0
O  O206  1  0.39131221  0.06526213  0.95865474  1  -1.216171  0  -0.371534  -0.625703  0  2.205905  0
O  O207  1  0.60869440  0.43473933  0.45865355  1  -1.217055  0  -0.371563  -0.62577  0  2.205748  0
O  O208  1  0.02986364  0.83517042  0.25224434  1  -1.292829  0  -0.323681  -0.512723  0  2.116975  0
O  O209  1  0.97013369  0.66480420  0.75224523  1  -1.292995  0  -0.323662  -0.51285  0  2.117059  0
O  O210  1  0.97013611  0.16482493  0.74775412  1  -1.292938  0  -0.323695  -0.51278  0  2.116704  0
O  O211  1  0.02986638  0.33516588  0.24775579  1  -1.292684  0  -0.323633  -0.512703  0  2.116916  0
O  O212  1  0.16316201  0.66506343  0.25104517  1  -1.300653  0  -0.317935  -0.532614  0  2.204586  0
O  O213  1  0.83684600  0.83491703  0.75104370  1  -1.29998  0  -0.318027  -0.532804  0  2.204963  0
O  O214  1  0.83684339  0.33492546  0.74895511  1  -1.300432  0  -0.318074  -0.532821  0  2.204903  0
O  O215  1  0.16316426  0.16506353  0.24895622  1  -1.300739  0  -0.317992  -0.532662  0  2.204588  0
