# generated using pymatgen
data_Al4H27C46N3O20
_symmetry_space_group_name_H-M   'P 1'
_cell_length_a   6.64915430
_cell_length_b   16.27905289
_cell_length_c   17.02099428
_cell_angle_alpha   79.14447783
_cell_angle_beta   89.23549243
_cell_angle_gamma   89.91829724
_symmetry_Int_Tables_number   1
_chemical_formula_structural   Al4H27C46N3O20
_chemical_formula_sum   'Al4 H27 C46 N3 O20'
_cell_volume   1809.25406696
_cell_formula_units_Z   1
loop_
 _symmetry_equiv_pos_site_id
 _symmetry_equiv_pos_as_xyz
  1  'x, y, z'
loop_
 _atom_site_type_symbol
 _atom_site_label
 _atom_site_symmetry_multiplicity
 _atom_site_fract_x
 _atom_site_fract_y
 _atom_site_fract_z
 _atom_site_occupancy
 _atom_site_pbe_bader_charge
 _atom_site_pbe_bader_spin_density
 _atom_site_pbe_cm5_charge
 _atom_site_pbe_ddec_charge
 _atom_site_pbe_ddec_spin_density
 _atom_site_pbe_ddec_sum_bond_order
 _atom_site_pbe_magmom
Al  Al0  1  0.10148911  0.49941455  0.50502241  1  2.499171  0  0.398544  1.64066  0  2.584128  0
Al  Al1  1  0.60052996  0.49696284  0.50154386  1  2.502703  0  0.398583  1.64395  0  2.584497  0
Al  Al2  1  0.63529862  0.99734863  0.00031306  1  2.499069  0  0.398869  1.642066  0  2.584763  0
Al  Al3  1  0.13693249  0.00058177  0.00670458  1  2.501524  0  0.40123  1.639605  0  2.571199  0
H  H4  1  0.57422221  0.72798999  0.34725917  1  0.08848  0  0.106537  0.110241  0  1.005682  0
H  H5  1  0.16331175  0.77711109  0.16374428  1  0.09802  0  0.11227  0.116487  0  0.991116  0
H  H6  1  0.16261827  0.65558994  0.27859376  1  0.120915  0  0.10823  0.114041  0  0.992336  0
H  H7  1  0.10256083  0.70266367  0.62843656  1  0.128977  0  0.121021  0.130846  0  0.988233  0
H  H8  1  0.53392894  0.59024656  0.70781861  1  0.144018  0  0.126971  0.13849  0  0.968553  0
H  H9  1  0.63033435  0.80083070  0.86841542  1  0.127472  0  0.119908  0.127863  0  0.9889  0
H  H10  1  0.63267728  0.30513795  0.35858534  1  0.088578  0  0.107866  0.111385  0  0.99956  0
H  H11  1  0.03299046  0.39938303  0.31046060  1  0.100146  0  0.109941  0.115801  0  0.994006  0
H  H12  1  0.76479097  0.19343032  0.29050265  1  0.075901  0  0.104187  0.104455  0  1.004765  0
H  H13  1  0.99009296  0.30863721  0.20928271  1  0.073675  0  0.104785  0.10557  0  1.002361  0
H  H14  1  0.71893303  0.10048573  0.19113612  1  0.089851  0  0.114121  0.122556  0  0.989061  0
H  H15  1  0.12027290  0.19475436  0.14245281  1  0.080658  0  0.111627  0.119295  0  0.993936  0
H  H16  1  0.04881594  0.27679304  0.67497989  1  0.09973  0  0.11054  0.11461  0  0.991791  0
H  H17  1  0.07084953  0.15573485  0.79025137  1  0.09608  0  0.109239  0.113321  0  0.994238  0
H  H18  1  0.67775720  0.22534769  0.83253846  1  0.105959  0  0.106761  0.107929  0  1.000081  0
H  H19  1  0.65879710  0.34417433  0.71506259  1  0.104238  0  0.111408  0.116582  0  0.991997  0
H  H20  1  0.28749534  0.00376538  0.26548020  1  0.01286  0  0.079613  0.106581  0  1.038693  0
H  H21  1  0.31881032  0.99151715  0.37043909  1  0.003515  0  0.084655  0.110954  0  1.001996  0
H  H22  1  0.19382038  0.91297926  0.32945481  1  0.000327  0  0.082352  0.108126  0  1.007208  0
H  H23  1  0.54557008  0.86838399  0.36922573  1  0.022974  0  0.084598  0.07026  0  0.991241  0
H  H24  1  0.64479934  0.95842267  0.30732995  1  0.015591  0  0.083885  0.069271  0  0.989307  0
H  H25  1  0.52034808  0.91288213  0.18572954  1  0.088985  0  0.100901  0.112737  0  1.018715  0
H  H26  1  0.38635350  0.83003061  0.24442442  1  0.032755  0  0.091727  0.093383  0  1.008422  0
H  H27  1  0.35371841  0.60420952  0.46156046  1  0.660898  0  0.352578  0.430326  0  0.855787  0
H  H28  1  0.85936982  0.39705472  0.48407335  1  0.63018  0  0.355939  0.434529  0  0.849612  0
H  H29  1  0.37585539  0.90272347  0.97384908  1  0.620613  0  0.350761  0.427616  0  0.855738  0
H  H30  1  0.88624111  0.10408812  0.96182598  1  0.622505  0  0.353066  0.430716  0  0.853778  0
C  C31  1  0.35330491  0.40912196  0.40314012  1  1.57072  0  0.26612  0.644224  0  4.093103  0
C  C32  1  0.34394236  0.38727701  0.61871529  1  1.565448  0  0.270316  0.640063  0  4.10139  0
C  C33  1  0.83739873  0.58528612  0.60318564  1  1.614456  0  0.273553  0.636689  0  4.107132  0
C  C34  1  0.86143757  0.61322843  0.38870981  1  1.550885  0  0.268451  0.647502  0  4.087337  0
C  C35  1  0.70352071  0.73942540  0.30657144  1  -0.027849  0  -0.081271  -0.153859  0  3.947154  0
C  C36  1  0.70232937  0.80939435  0.24440291  1  0.019252  0  0.010049  0.12532  0  3.90247  0
C  C37  1  0.87150828  0.82126853  0.19215529  1  -0.033255  0  -0.005874  -0.088805  0  3.905289  0
C  C38  1  0.03578137  0.76596428  0.20527431  1  -0.077872  0  -0.081871  -0.096279  0  4.00454  0
C  C39  1  0.03527814  0.69834966  0.26858219  1  -0.008308  0  -0.08533  -0.104874  0  3.994145  0
C  C40  1  0.86600567  0.68443353  0.31949345  1  -0.057102  0  -0.016732  -0.039013  0  4.010225  0
C  C41  1  0.82271332  0.64111128  0.66360181  1  0.012946  0  0.00354  -0.014719  0  3.957809  0
C  C42  1  0.90927221  0.86258068  0.83497928  1  0.050735  0  0.014721  -0.034388  0  3.899639  0
C  C43  1  0.09722576  0.81854796  0.72561797  1  0.154367  0  0.02986  -0.000523  0  4.000265  0
C  C44  1  0.07967117  0.87043202  0.78238457  1  0.072667  0  0.033788  0.031611  0  4.004571  0
C  C45  1  0.76151794  0.80475721  0.82875592  1  0.021076  0  -0.053855  -0.103239  0  3.893328  0
C  C46  1  0.77911132  0.74982558  0.77406310  1  0.016709  0  0.020618  0.062364  0  3.948002  0
C  C47  1  0.95011786  0.75565750  0.72147173  1  -0.004776  0  0.018877  0.062398  0  3.953299  0
C  C48  1  0.97075113  0.69960891  0.66772142  1  -0.004607  0  -0.053728  -0.105066  0  3.871243  0
C  C49  1  0.65030733  0.63561142  0.71374916  1  0.035507  0  -0.047936  -0.092257  0  3.878905  0
C  C50  1  0.63002294  0.68767319  0.76902935  1  0.060996  0  0.015333  0.019564  0  4.060744  0
C  C51  1  0.33614687  0.35668235  0.34061365  1  -0.068433  0  -0.013842  -0.038189  0  3.993187  0
C  C52  1  0.41577938  0.14283422  0.16163038  1  0.016333  0  -0.013719  -0.044167  0  4.000705  0
C  C53  1  0.62510884  0.19457002  0.25733717  1  -0.012204  0  -0.0856  -0.132248  0  3.994706  0
C  C54  1  0.60011187  0.14278822  0.20308942  1  -0.039083  0  -0.080764  -0.094211  0  3.981405  0
C  C55  1  0.26086989  0.19573358  0.17459827  1  -0.068821  0  -0.071345  -0.133907  0  3.920637  0
C  C56  1  0.28427555  0.25113445  0.22870614  1  0.038579  0  -0.002195  0.078255  0  3.993033  0
C  C57  1  0.46983512  0.25039390  0.27130104  1  -0.054961  0  -0.002103  0.080013  0  3.997706  0
C  C58  1  0.49231057  0.30506263  0.32613319  1  -0.025672  0  -0.075087  -0.134398  0  3.929366  0
C  C59  1  0.15274454  0.35747178  0.29841773  1  -0.027126  0  -0.086311  -0.100733  0  3.99719  0
C  C60  1  0.12914445  0.30693176  0.24290904  1  -0.03754  0  -0.086564  -0.130718  0  3.998056  0
C  C61  1  0.18526025  0.26513969  0.71015653  1  -0.008261  0  -0.078052  -0.09384  0  3.971121  0
C  C62  1  0.19741320  0.19828001  0.77413481  1  -0.01209  0  -0.077463  -0.086014  0  3.962063  0
C  C63  1  0.37490452  0.18407076  0.81840746  1  -0.076377  0  -0.00848  -0.033612  0  3.957821  0
C  C64  1  0.54130581  0.23671958  0.79739848  1  -0.041892  0  -0.079579  -0.088937  0  3.972427  0
C  C65  1  0.53048875  0.30290349  0.73266861  1  -0.001549  0  -0.078756  -0.095352  0  3.968329  0
C  C66  1  0.35214325  0.31753116  0.68910818  1  -0.051994  0  -0.009622  -0.033636  0  3.973996  0
C  C67  1  0.38214988  0.11398969  0.88870909  1  1.57833  0  0.268589  0.647552  0  4.09564  0
C  C68  1  0.39545562  0.08612923  0.10298965  1  1.547366  0  0.27047  0.635395  0  4.106537  0
C  C69  1  0.88358982  0.88857848  0.11914373  1  1.57834  0  0.272926  0.651738  0  4.079811  0
C  C70  1  0.89186485  0.91282234  0.90022415  1  1.606513  0  0.271658  0.641831  0  4.097028  0
C  C71  1  0.52463958  0.86766374  0.24196533  1  -0.036113  0  -0.164399  -0.211045  0  3.927226  0
C  C72  1  0.51922170  0.91343004  0.31338003  1  -0.003163  0  -0.163474  -0.082679  0  3.959406  0
C  C73  1  0.31916498  0.95801770  0.32007769  1  -0.025251  0  -0.247262  -0.350707  0  3.973766  0
C  C74  1  0.26631355  0.82636438  0.67246511  1  0.815549  0  0.182225  0.231136  0  4.042835  0
C  C75  1  0.45652262  0.68146717  0.81989950  1  0.819433  0  0.181948  0.23695  0  4.030655  0
C  C76  1  0.23354971  0.93114144  0.78359213  1  0.873856  0  0.183402  0.229336  0  4.01466  0
N  N77  1  0.40509044  0.82993574  0.62909201  1  -1.077337  0  -0.293741  -0.335378  0  2.68245  0
N  N78  1  0.31339523  0.67840216  0.86098947  1  -1.115194  0  -0.310539  -0.361867  0  2.701771  0
N  N79  1  0.36415820  0.97983640  0.77880532  1  -1.098561  0  -0.27695  -0.3117  0  2.723079  0
O  O80  1  0.51105535  0.40909087  0.58384818  1  -1.265864  0  -0.232826  -0.590064  0  2.372167  0
O  O81  1  0.18727565  0.42569047  0.43513970  1  -1.268646  0  -0.238267  -0.607735  0  2.372221  0
O  O82  1  0.03077678  0.58173931  0.41248868  1  -1.264948  0  -0.239334  -0.604359  0  2.352996  0
O  O83  1  0.17320846  0.41905502  0.59767108  1  -1.258345  0  -0.234127  -0.584919  0  2.322558  0
O  O84  1  0.00997551  0.57370189  0.57413205  1  -1.246385  0  -0.229038  -0.574081  0  2.318717  0
O  O85  1  0.52751969  0.43229390  0.42101196  1  -1.251503  0  -0.240811  -0.601231  0  2.308756  0
O  O86  1  0.35250936  0.55023844  0.49730042  1  -1.463791  0  -0.448109  -0.989007  0  2.193008  0
O  O87  1  0.67185823  0.55558867  0.58516345  1  -1.246771  0  -0.223884  -0.566318  0  2.355805  0
O  O88  1  0.69043883  0.58988259  0.42026693  1  -1.266009  0  -0.2401  -0.60753  0  2.333604  0
O  O89  1  0.85215787  0.44776280  0.50603108  1  -1.432578  0  -0.449277  -0.99412  0  2.203399  0
O  O90  1  0.22202041  0.07344729  0.07650112  1  -1.251832  0  -0.233423  -0.584242  0  2.319017  0
O  O91  1  0.55335940  0.09067972  0.91798565  1  -1.261573  0  -0.239221  -0.606542  0  2.327395  0
O  O92  1  0.71617577  0.93398643  0.91870356  1  -1.240955  0  -0.226769  -0.575678  0  2.335073  0
O  O93  1  0.55881457  0.05437145  0.08300245  1  -1.25911  0  -0.229871  -0.584646  0  2.388622  0
O  O94  1  0.72242609  0.90706397  0.08045160  1  -1.266368  0  -0.230587  -0.586047  0  2.373821  0
O  O95  1  0.21257081  0.08391900  0.91563620  1  -1.26803  0  -0.239416  -0.613083  0  2.390377  0
O  O96  1  0.38414913  0.94731884  0.00427691  1  -1.423149  0  -0.445477  -0.980298  0  2.181455  0
O  O97  1  0.05593404  0.92038389  0.09840159  1  -1.259228  0  -0.231072  -0.582232  0  2.318479  0
O  O98  1  0.05622272  0.92707019  0.93240963  1  -1.240112  0  -0.226975  -0.585346  0  2.357958  0
O  O99  1  0.88452729  0.04962918  0.99672296  1  -1.425842  0  -0.44813  -0.988353  0  2.197319  0
