# generated using pymatgen
data_Cu2H24C19(NO)6
_symmetry_space_group_name_H-M   'P 1'
_cell_length_a   13.49183407
_cell_length_b   13.49187296
_cell_length_c   16.21032206
_cell_angle_alpha   89.99979329
_cell_angle_beta   90.00011128
_cell_angle_gamma   89.99594560
_symmetry_Int_Tables_number   1
_chemical_formula_structural   Cu2H24C19(NO)6
_chemical_formula_sum   'Cu8 H96 C76 N24 O24'
_cell_volume   2950.76672095
_cell_formula_units_Z   4
loop_
 _symmetry_equiv_pos_site_id
 _symmetry_equiv_pos_as_xyz
  1  'x, y, z'
loop_
 _atom_site_type_symbol
 _atom_site_label
 _atom_site_symmetry_multiplicity
 _atom_site_fract_x
 _atom_site_fract_y
 _atom_site_fract_z
 _atom_site_occupancy
 _atom_site_pbe_bader_charge
 _atom_site_pbe_bader_spin_density
 _atom_site_pbe_cm5_charge
 _atom_site_pbe_ddec_charge
 _atom_site_pbe_ddec_spin_density
 _atom_site_pbe_ddec_sum_bond_order
 _atom_site_pbe_magmom
Cu  Cu0  1  0.30147325  0.02816920  0.02926920  1  1.027581  -0.460529  0.730024  0.705911  -0.588578  2.355896  -0.458
Cu  Cu1  1  0.47185726  0.80145372  0.77923046  1  1.027412  0.458819  0.729739  0.705642  0.586335  2.354662  0.457
Cu  Cu2  1  0.69852879  0.97183919  0.52925202  1  1.027473  0.460577  0.730122  0.705989  0.588646  2.356105  0.459
Cu  Cu3  1  0.52814092  0.19855209  0.27925738  1  1.027233  -0.458806  0.729604  0.705413  -0.586306  2.354561  -0.457
Cu  Cu4  1  0.80148764  0.47183152  0.22076113  1  1.027425  0.460463  0.729703  0.705579  0.588432  2.354574  0.458
Cu  Cu5  1  0.19851188  0.52817455  0.72074138  1  1.027608  -0.460494  0.72963  0.70582  -0.588464  2.354228  -0.458
Cu  Cu6  1  0.02813714  0.30142871  0.97075265  1  1.027629  0.458889  0.730018  0.705937  0.586484  2.355815  0.457
Cu  Cu7  1  0.97185483  0.69855477  0.47074856  1  1.027513  -0.458924  0.730019  0.70592  -0.586532  2.355759  -0.457
H  H8  1  0.37529025  0.04077751  0.19930411  1  0.553469  -0.000256  0.319395  0.275215  -0.000277  1.00457  0.0
H  H9  1  0.45923759  0.87532937  0.94926028  1  0.553202  0.000112  0.319342  0.275101  -0.000132  1.004926  0.0
H  H10  1  0.62471887  0.95922346  0.69925107  1  0.553757  0.000256  0.319293  0.275051  0.000277  1.00492  0.0
H  H11  1  0.54075803  0.12468681  0.44929607  1  0.553034  -0.000112  0.319285  0.274892  0.000131  1.005289  0.0
H  H12  1  0.87532070  0.45921502  0.05071523  1  0.552618  0.000256  0.319418  0.275356  0.000277  1.004956  0.0
H  H13  1  0.12468436  0.54077771  0.55068299  1  0.552532  -0.000256  0.319534  0.275208  -0.000276  1.005005  0.0
H  H14  1  0.04077605  0.37530274  0.80075593  1  0.553577  0.000112  0.319267  0.274988  -0.000131  1.005002  0.0
H  H15  1  0.95922219  0.62472892  0.30074710  1  0.55537  -0.000113  0.319296  0.275044  0.00013  1.004769  0.0
H  H16  1  0.30375786  0.65494310  0.20158132  1  0.02585  -0.000241  0.097858  0.094199  -0.000119  0.979842  0.0
H  H17  1  0.84504016  0.80372447  0.95155985  1  0.025421  0.000219  0.097938  0.094251  0.000112  0.980088  0.0
H  H18  1  0.69625719  0.34507195  0.70155735  1  0.025317  0.000241  0.097807  0.094043  0.000119  0.979808  0.0
H  H19  1  0.15494732  0.19623833  0.45157815  1  0.025652  -0.000219  0.097894  0.094232  -0.000112  0.979979  0.0
H  H20  1  0.80374524  0.84501796  0.04841483  1  0.025989  0.00024  0.097937  0.094282  0.000119  0.980212  0.0
H  H21  1  0.19624054  0.15496070  0.54843999  1  0.025852  -0.00024  0.097872  0.094211  -0.000119  0.980053  0.0
H  H22  1  0.65493822  0.30375796  0.79841481  1  0.025882  0.000219  0.097882  0.094197  0.000112  0.979688  0.0
H  H23  1  0.34507335  0.69622850  0.29843686  1  0.026491  -0.000219  0.097805  0.094149  -0.000112  0.980005  0.0
H  H24  1  0.23994983  0.08301750  0.80839548  1  0.091737  -0.002948  0.115199  0.083505  -0.001512  0.942972  -0.002
H  H25  1  0.41693484  0.73997839  0.55834779  1  0.092422  0.002924  0.114959  0.083404  0.001502  0.94297  0.002
H  H26  1  0.76007288  0.91699115  0.30837498  1  0.092189  0.002948  0.115067  0.083341  0.001511  0.942785  0.002
H  H27  1  0.58302947  0.26005210  0.05837029  1  0.092426  -0.002928  0.115058  0.083483  -0.001503  0.942943  -0.002
H  H28  1  0.73998598  0.41694239  0.44165190  1  0.092489  0.00294  0.115008  0.083489  0.001508  0.942974  0.002
H  H29  1  0.26006670  0.58301305  0.94162653  1  0.092339  -0.002944  0.115053  0.083296  -0.001509  0.942901  -0.002
H  H30  1  0.08303086  0.23995888  0.19163255  1  0.092342  0.002931  0.114987  0.083388  0.001505  0.942836  0.002
H  H31  1  0.91698417  0.76007029  0.69160770  1  0.091748  -0.002934  0.115171  0.083429  -0.001506  0.942909  -0.002
H  H32  1  0.42660692  0.97556182  0.34402043  1  0.088703  1e-05  0.101753  0.149526  -2e-05  1.006371  0.0
H  H33  1  0.52442901  0.92671543  0.09393425  1  0.087133  3e-06  0.101794  0.149618  1.8e-05  1.006122  0.0
H  H34  1  0.57336029  0.02443555  0.84394170  1  0.088294  -1e-05  0.101707  0.149555  2e-05  1.006303  0.0
H  H35  1  0.47554799  0.07330527  0.59398600  1  0.087865  -3e-06  0.101864  0.149761  -1.8e-05  1.006075  0.0
H  H36  1  0.92671790  0.52440761  0.90602884  1  0.087254  -1e-05  0.101777  0.149508  2e-05  1.006029  0.0
H  H37  1  0.07330208  0.47555095  0.40599807  1  0.087943  1e-05  0.101811  0.149722  -2e-05  1.005988  0.0
H  H38  1  0.97559211  0.42662163  0.65603276  1  0.088153  3e-06  0.101689  0.149535  1.8e-05  1.006326  0.0
H  H39  1  0.02443172  0.57340250  0.15603740  1  0.08876  -3e-06  0.101605  0.149426  -1.8e-05  1.006655  0.0
H  H40  1  0.39291238  0.85317224  0.37293488  1  0.043054  -3e-06  0.097879  0.135509  2.3e-05  1.012951  0.0
H  H41  1  0.64681167  0.89294330  0.12290236  1  0.042051  0.000178  0.0979  0.13539  0.000124  1.012557  0.0
H  H42  1  0.60704081  0.14683168  0.87287496  1  0.041687  3e-06  0.097889  0.135398  -2.3e-05  1.012609  0.0
H  H43  1  0.35315798  0.10706393  0.62293037  1  0.042412  -0.000178  0.097923  0.135507  -0.000124  1.012865  0.0
H  H44  1  0.89295238  0.64680329  0.87707609  1  0.042165  3e-06  0.097946  0.135521  -2.3e-05  1.012615  0.0
H  H45  1  0.10705938  0.35315466  0.37706425  1  0.042995  -3e-06  0.097977  0.135512  2.3e-05  1.012778  0.0
H  H46  1  0.85320146  0.39293241  0.62709744  1  0.041854  0.000178  0.097931  0.135476  0.000124  1.012527  0.0
H  H47  1  0.14682972  0.60706221  0.12712069  1  0.041917  -0.000178  0.09787  0.135379  -0.000124  1.012757  0.0
H  H48  1  0.30369871  0.94984469  0.37610240  1  0.04374  0.000116  0.096906  0.134932  5.5e-05  0.991521  0.0
H  H49  1  0.55008743  0.80377600  0.12605905  1  0.045085  -0.00011  0.096602  0.134532  -6e-05  0.99189  0.0
H  H50  1  0.69625375  0.05015328  0.87606327  1  0.044805  -0.000117  0.096711  0.134661  -5.5e-05  0.991631  0.0
H  H51  1  0.44986814  0.19624308  0.62609435  1  0.044478  0.00011  0.096782  0.134759  6e-05  0.991537  0.0
H  H52  1  0.80377370  0.55008526  0.87391152  1  0.04511  -0.000116  0.09665  0.134639  -5.5e-05  0.991731  0.0
H  H53  1  0.19624102  0.44986232  0.37389644  1  0.044128  0.000116  0.096759  0.134725  5.5e-05  0.991626  0.0
H  H54  1  0.94988161  0.30370714  0.62393979  1  0.044062  -0.00011  0.096781  0.134783  -6e-05  0.991447  0.0
H  H55  1  0.05018069  0.69629490  0.12393300  1  0.044852  0.00011  0.096742  0.134742  6e-05  0.991729  0.0
H  H56  1  0.28714351  0.81159102  0.00041172  1  0.087711  0.000178  0.098057  0.146459  0.000158  1.037034  0.0
H  H57  1  0.68838649  0.78707673  0.75037003  1  0.087297  -9.1e-05  0.098083  0.146466  -5.6e-05  1.037111  0.0
H  H58  1  0.71281399  0.18847012  0.50037344  1  0.087364  -0.000177  0.098066  0.146506  -0.000158  1.03707  0.0
H  H59  1  0.31159829  0.21286992  0.25038731  1  0.087474  9.1e-05  0.098121  0.146478  5.6e-05  1.036901  0.0
H  H60  1  0.78706241  0.68835342  0.24961155  1  0.08718  -0.000178  0.098127  0.146503  -0.000159  1.036814  0.0
H  H61  1  0.21285788  0.31163177  0.74961529  1  0.087478  0.000178  0.098118  0.146432  0.000159  1.037086  0.0
H  H62  1  0.81154489  0.28709602  0.99960035  1  0.087577  -9e-05  0.098083  0.146451  -5.6e-05  1.037131  0.0
H  H63  1  0.18848125  0.71277615  0.49963259  1  0.087623  9e-05  0.098064  0.146486  5.5e-05  1.037192  0.0
H  H64  1  0.18566904  0.76467735  0.05826004  1  0.071405  0.000165  0.093356  0.128489  9e-05  1.025857  0.0
H  H65  1  0.73532817  0.68563906  0.80825309  1  0.070851  -0.000165  0.093412  0.128533  -8.9e-05  1.025936  0.0
H  H66  1  0.81429971  0.23537316  0.55820204  1  0.071546  -0.000165  0.093455  0.12845  -9e-05  1.02571  0.0
H  H67  1  0.26468195  0.31433549  0.30825519  1  0.071262  0.000165  0.09334  0.128515  8.9e-05  1.025882  0.0
H  H68  1  0.68563414  0.73530836  0.19171495  1  0.070707  -0.000165  0.093308  0.128504  -9e-05  1.0259  0.0
H  H69  1  0.31432974  0.26470450  0.69174552  1  0.071527  0.000165  0.093374  0.128615  9e-05  1.025625  0.0
H  H70  1  0.76466227  0.18563599  0.94174165  1  0.070759  -0.000165  0.093381  0.128552  -8.9e-05  1.025945  0.0
H  H71  1  0.23538152  0.81427276  0.44180883  1  0.072072  0.000165  0.093492  0.128542  8.9e-05  1.025934  0.0
H  H72  1  0.30151536  0.70350976  0.06146497  1  0.018794  5.1e-05  0.094873  0.13255  1.6e-05  0.993942  0.0
H  H73  1  0.79646995  0.80148293  0.81142071  1  0.019476  -0.000166  0.094871  0.132573  -7.7e-05  0.993876  0.0
H  H74  1  0.69844673  0.29652814  0.56145472  1  0.018388  -5.2e-05  0.094856  0.132504  -1.6e-05  0.993874  0.0
H  H75  1  0.20351497  0.19849903  0.31145574  1  0.018847  0.000166  0.094894  0.132558  7.7e-05  0.993819  0.0
H  H76  1  0.80148205  0.79644997  0.18856079  1  0.019608  -5.2e-05  0.094928  0.132608  -1.6e-05  0.993641  0.0
H  H77  1  0.19848257  0.20353548  0.68855249  1  0.018902  5.1e-05  0.094847  0.132574  1.6e-05  0.99375  0.0
H  H78  1  0.70348264  0.30147085  0.93853606  1  0.019367  -0.000166  0.094847  0.132437  -7.7e-05  0.993749  0.0
H  H79  1  0.29653519  0.69841863  0.43854076  1  0.018039  0.000165  0.094925  0.132619  7.7e-05  0.993827  0.0
H  H80  1  0.33484098  0.23992113  0.83837807  1  0.045828  6.9e-05  0.094006  0.136931  5.8e-05  0.998679  0.0
H  H81  1  0.26003662  0.83487508  0.58841849  1  0.04511  -8.6e-05  0.094047  0.137044  -6.3e-05  0.998841  0.0
H  H82  1  0.66510028  0.76012890  0.33831902  1  0.044942  -6.9e-05  0.09397  0.13698  -5.8e-05  0.998491  0.0
H  H83  1  0.73992850  0.16515974  0.08842610  1  0.045636  8.6e-05  0.094091  0.137009  6.3e-05  0.998727  0.0
H  H84  1  0.83486147  0.26003501  0.41156829  1  0.045154  -7e-05  0.094027  0.136959  -5.8e-05  0.998766  0.0
H  H85  1  0.16519706  0.73993390  0.91160153  1  0.045254  7e-05  0.094009  0.137002  5.8e-05  0.998792  0.0
H  H86  1  0.23991125  0.33488684  0.16163806  1  0.044816  -8.5e-05  0.093942  0.136948  -6.2e-05  0.998681  0.0
H  H87  1  0.76012891  0.66509651  0.66165149  1  0.045054  8.5e-05  0.093943  0.136949  6.2e-05  0.998494  0.0
H  H88  1  0.41055346  0.15361254  0.78270386  1  0.050701  -0.000244  0.090222  0.124555  -0.00014  1.020786  0.0
H  H89  1  0.34631421  0.91061997  0.53273232  1  0.051136  0.000219  0.090273  0.124681  0.000141  1.020646  0.0
H  H90  1  0.58944028  0.84646960  0.28264690  1  0.050928  0.000244  0.090106  0.124542  0.00014  1.020326  0.0
H  H91  1  0.65365374  0.08942102  0.03273570  1  0.050727  -0.00022  0.090268  0.124682  -0.000141  1.020618  0.0
H  H92  1  0.91061839  0.34631007  0.46725434  1  0.051434  0.000243  0.090252  0.124698  0.00014  1.020758  0.0
H  H93  1  0.08944695  0.65364970  0.96728957  1  0.050892  -0.000243  0.090302  0.124704  -0.00014  1.020611  0.0
H  H94  1  0.15359494  0.41059386  0.21730056  1  0.051137  0.00022  0.090141  0.124523  0.000141  1.02063  0.0
H  H95  1  0.84646461  0.58943890  0.71733841  1  0.051247  -0.00022  0.09013  0.124502  -0.000141  1.020306  0.0
H  H96  1  0.42619287  0.16930564  0.89175967  1  0.059171  -0.000194  0.091022  0.130931  -0.000154  1.019922  0.0
H  H97  1  0.33065691  0.92620893  0.64180353  1  0.058511  -9.9e-05  0.091038  0.130942  -9.9e-05  1.019802  0.0
H  H98  1  0.57377519  0.83075897  0.39168484  1  0.059122  0.000194  0.090971  0.131047  0.000154  1.019816  0.0
H  H99  1  0.66931204  0.07381750  0.14181068  1  0.058996  0.0001  0.091087  0.131045  9.9e-05  1.019742  0.0
H  H100  1  0.92620157  0.33066256  0.35817758  1  0.058535  0.000194  0.090977  0.130945  0.000154  1.019818  0.0
H  H101  1  0.07383831  0.66933475  0.85821274  1  0.058726  -0.000194  0.091059  0.130983  -0.000154  1.019959  0.0
H  H102  1  0.16928894  0.42621036  0.10824843  1  0.059314  -0.0001  0.091019  0.130983  -9.9e-05  1.019795  0.0
H  H103  1  0.83077258  0.57377026  0.60828939  1  0.0597  9.9e-05  0.09095  0.131059  9.9e-05  1.019545  0.0
C  C104  1  0.30754424  0.81190706  0.21404044  1  0.06692  -0.001765  -0.039654  -0.134149  -0.001227  3.972856  -0.001
C  C105  1  0.68808510  0.80750931  0.96400117  1  0.068569  0.001659  -0.039913  -0.134479  0.001149  3.973287  0.001
C  C106  1  0.69246491  0.18809756  0.71399781  1  0.067807  0.001764  -0.039931  -0.134641  0.001228  3.972875  0.001
C  C107  1  0.31190019  0.19246975  0.46402714  1  0.067105  -0.001661  -0.039823  -0.134392  -0.00115  3.973023  -0.001
C  C108  1  0.80752269  0.68806855  0.03597053  1  0.067423  0.001763  -0.039608  -0.134298  0.001226  3.97306  0.001
C  C109  1  0.19246084  0.31191090  0.53597115  1  0.06742  -0.001763  -0.03971  -0.134316  -0.001226  3.973205  -0.001
C  C110  1  0.81190932  0.30753767  0.78598087  1  0.068361  0.001662  -0.039765  -0.134409  0.001151  3.97307  0.001
C  C111  1  0.18811038  0.69245551  0.28599652  1  0.068476  -0.001663  -0.039703  -0.134073  -0.001151  3.972922  -0.001
C  C112  1  0.34982294  0.98610012  0.86210383  1  1.568199  -0.000487  0.217781  0.584124  -0.001262  4.098344  0.0
C  C113  1  0.51386150  0.84988842  0.61200426  1  1.56873  0.000139  0.217526  0.583794  0.001062  4.098215  0.0
C  C114  1  0.65019100  0.01392534  0.36207535  1  1.570678  0.000485  0.217836  0.584467  0.001264  4.099111  0.0
C  C115  1  0.48611257  0.15015148  0.11205037  1  1.568824  -0.000141  0.218032  0.584399  -0.001061  4.097111  0.0
C  C116  1  0.84989490  0.51386585  0.38798110  1  1.568851  0.000465  0.21758  0.583911  0.001255  4.098631  0.0
C  C117  1  0.15013764  0.48610909  0.88795831  1  1.569325  -0.000467  0.21808  0.584389  -0.001255  4.097641  0.0
C  C118  1  0.98608130  0.34982802  0.13791979  1  1.568711  0.000168  0.218135  0.584459  0.001074  4.098461  0.0
C  C119  1  0.01392989  0.65021917  0.63790186  1  1.56852  -0.000166  0.218019  0.584914  -0.001072  4.098398  0.0
C  C120  1  0.17822387  0.16416822  0.95405744  1  1.360992  -0.000929  0.209654  0.35551  -0.000478  4.2211  -0.002
C  C121  1  0.33591115  0.67815261  0.70401118  1  1.398051  0.001006  0.209672  0.355504  0.00054  4.22052  0.002
C  C122  1  0.82175472  0.83581608  0.45402802  1  1.399844  0.000926  0.209848  0.355979  0.000481  4.2205  0.002
C  C123  1  0.66408685  0.32185650  0.20402191  1  1.359028  -0.001004  0.209462  0.354944  -0.000538  4.220208  -0.002
C  C124  1  0.67814460  0.33591982  0.29598861  1  1.398733  0.000951  0.209626  0.35547  0.000488  4.220282  0.002
C  C125  1  0.32186030  0.66407999  0.79597975  1  1.36005  -0.000947  0.209495  0.354948  -0.000485  4.22003  -0.002
C  C126  1  0.16418269  0.17823695  0.04597366  1  1.398916  0.000993  0.209954  0.356132  0.000529  4.220556  0.002
C  C127  1  0.83580827  0.82176840  0.54596084  1  1.361187  -0.000986  0.2098  0.355795  -0.000528  4.220489  -0.002
C  C128  1  0.29642090  0.83896318  0.13021355  1  0.405591  -0.000584  0.092612  0.203422  -0.00081  4.021439  -0.001
C  C129  1  0.66102235  0.79638079  0.88018235  1  0.405511  0.000511  0.092652  0.203465  0.000745  4.021191  0.001
C  C130  1  0.70358583  0.16105440  0.63017287  1  0.404881  0.000588  0.09278  0.20353  0.000812  4.021146  0.001
C  C131  1  0.33896940  0.20360531  0.38021018  1  0.405523  -0.000511  0.092669  0.20362  -0.000745  4.02125  -0.001
C  C132  1  0.79637552  0.66100580  0.11979123  1  0.405714  0.00058  0.092405  0.203321  0.000807  4.021072  0.001
C  C133  1  0.20359042  0.33898366  0.61978870  1  0.405361  -0.000579  0.09258  0.203729  -0.000806  4.021199  -0.001
C  C134  1  0.83895061  0.29640020  0.86980651  1  0.404812  0.000517  0.092628  0.20337  0.00075  4.021253  0.001
C  C135  1  0.16106261  0.70358076  0.36982147  1  0.404865  -0.000517  0.092793  0.203702  -0.000749  4.021043  -0.001
C  C136  1  0.28955032  0.71046655  0.25001086  1  0.026108  -0.001139  -0.145454  -0.144332  -0.000781  4.022083  -0.001
C  C137  1  0.78953233  0.78951185  0.99998637  1  0.027908  0.001138  -0.145596  -0.144379  0.00078  4.02248  0.001
C  C138  1  0.71047596  0.28954013  0.74998955  1  0.027556  0.00114  -0.145435  -0.144049  0.000781  4.021451  0.001
C  C139  1  0.21045304  0.21045816  0.50000473  1  0.02691  -0.001138  -0.145578  -0.14443  -0.00078  4.022252  -0.001
C  C140  1  0.29539815  0.08574300  0.85824894  1  0.31933  -0.000925  0.007574  0.071604  -0.000948  3.899017  0.001
C  C141  1  0.41420017  0.79543325  0.60821162  1  0.318734  0.001014  0.008037  0.071595  0.001031  3.898233  -0.001
C  C142  1  0.70461801  0.91427803  0.35822713  1  0.318767  0.000922  0.007635  0.071855  0.000945  3.898882  -0.001
C  C143  1  0.58576573  0.20459852  0.10822750  1  0.318577  -0.001017  0.007868  0.071609  -0.001035  3.898822  0.001
C  C144  1  0.79542622  0.41420555  0.39178372  1  0.31862  0.000921  0.008  0.071589  0.000941  3.898015  -0.001
C  C145  1  0.20460633  0.58576196  0.89177985  1  0.318099  -0.000922  0.007776  0.071825  -0.000943  3.898067  0.001
C  C146  1  0.08573936  0.29540560  0.14177103  1  0.318426  0.001023  0.007817  0.071976  0.00104  3.898183  -0.001
C  C147  1  0.91427184  0.70461563  0.64176176  1  0.318073  -0.001023  0.007615  0.071805  -0.001042  3.899388  0.001
C  C148  1  0.33980371  0.89827857  0.25410987  1  0.416285  0.000629  0.101633  0.202175  0.000208  3.976454  0.0
C  C149  1  0.60173503  0.83978501  0.00408860  1  0.416629  -0.000732  0.101781  0.202485  -0.000312  3.976326  0.0
C  C150  1  0.66020331  0.10172587  0.75406497  1  0.418185  -0.000631  0.101628  0.202526  -0.000209  3.976427  0.0
C  C151  1  0.39825361  0.16021608  0.50412146  1  0.416669  0.000731  0.101804  0.202695  0.000312  3.975743  0.0
C  C152  1  0.83979158  0.60171554  0.99588067  1  0.417071  -0.00063  0.101392  0.202165  -0.000209  3.976429  0.0
C  C153  1  0.16020637  0.39825819  0.49586877  1  0.416365  0.000629  0.10141  0.202116  0.000209  3.975761  0.0
C  C154  1  0.89828704  0.33980598  0.74592740  1  0.416966  -0.000732  0.101614  0.202445  -0.000312  3.975875  0.0
C  C155  1  0.10173330  0.66021257  0.24593252  1  0.417278  0.000733  0.101462  0.201822  0.000312  3.977006  0.0
C  C156  1  0.36717071  0.92012982  0.34127962  1  -0.053941  -0.00028  -0.230656  -0.422876  -0.000158  3.956068  0.0
C  C157  1  0.57984166  0.86722952  0.09123610  1  -0.053259  0.000357  -0.230332  -0.422459  0.000254  3.955396  0.0
C  C158  1  0.63280094  0.07987127  0.84121748  1  -0.053568  0.00028  -0.230336  -0.422497  0.000158  3.95576  0.0
C  C159  1  0.42012939  0.13278082  0.59127648  1  -0.053304  -0.000357  -0.230628  -0.422948  -0.000254  3.955473  0.0
C  C160  1  0.86723626  0.57982900  0.90873069  1  -0.053596  0.00028  -0.230336  -0.422453  0.000159  3.955136  0.0
C  C161  1  0.13277335  0.42012881  0.40870944  1  -0.053914  -0.00028  -0.230505  -0.422711  -0.000159  3.955074  0.0
C  C162  1  0.92015846  0.36717966  0.65876686  1  -0.053089  0.000358  -0.230476  -0.422707  0.000254  3.955269  0.0
C  C163  1  0.07987205  0.63283039  0.15877265  1  -0.054486  -0.000357  -0.230307  -0.422399  -0.000254  3.956265  0.0
C  C164  1  0.26605650  0.77677438  0.05886649  1  -0.06342  -0.000117  -0.238484  -0.434916  1.5e-05  3.976873  0.0
C  C165  1  0.72320688  0.76602343  0.80882482  1  -0.063901  0.000141  -0.238653  -0.435176  4.7e-05  3.977224  0.0
C  C166  1  0.73391522  0.22326279  0.55882937  1  -0.063503  0.000117  -0.238702  -0.435056  -1.5e-05  3.97709  0.0
C  C167  1  0.27678470  0.23394741  0.30884753  1  -0.063146  -0.000141  -0.238621  -0.435147  -4.7e-05  3.97665  0.0
C  C168  1  0.76601875  0.72318563  0.19115428  1  -0.06314  0.000117  -0.23855  -0.43505  -1.5e-05  3.976451  0.0
C  C169  1  0.23393772  0.27680426  0.69115816  1  -0.063218  -0.000117  -0.238575  -0.435206  1.5e-05  3.976496  0.0
C  C170  1  0.77675489  0.26602173  0.94114192  1  -0.063385  0.000141  -0.238613  -0.434959  4.6e-05  3.977173  0.0
C  C171  1  0.22327407  0.73388627  0.44117231  1  -0.064058  -0.000142  -0.238793  -0.435378  -4.7e-05  3.977364  0.0
C  C172  1  0.37205789  0.16777637  0.84117334  1  -0.084757  -0.000728  -0.239081  -0.398172  -0.000477  3.878913  0.0
C  C173  1  0.33215819  0.87210382  0.59119265  1  -0.084321  0.000482  -0.2393  -0.398329  0.000314  3.878888  0.0
C  C174  1  0.62792635  0.83229439  0.34111340  1  -0.083778  0.000727  -0.238844  -0.398391  0.000477  3.878504  0.0
C  C175  1  0.66780620  0.12793098  0.09120334  1  -0.084539  -0.000482  -0.239238  -0.398332  -0.000314  3.879058  0.0
C  C176  1  0.87210219  0.33215712  0.40879405  1  -0.084608  0.000725  -0.239196  -0.398335  0.000476  3.878786  0.0
C  C177  1  0.12794967  0.66781699  0.90882004  1  -0.084167  -0.000726  -0.239149  -0.398369  -0.000476  3.878903  0.0
C  C178  1  0.16776110  0.37208661  0.15883973  1  -0.084129  0.000484  -0.238972  -0.398292  0.000315  3.878388  0.0
C  C179  1  0.83229387  0.62792344  0.65886388  1  -0.084297  -0.000485  -0.238872  -0.398411  -0.000315  3.878386  0.0
N  N180  1  0.34431494  0.96999578  0.19602640  1  -0.840283  -0.001824  -0.285375  -0.13365  -0.000924  3.673139  -0.001
N  N181  1  0.53001631  0.84434156  0.94599765  1  -0.840655  0.000555  -0.28518  -0.133595  0.000124  3.672927  0.0
N  N182  1  0.65569564  0.03000669  0.69597986  1  -0.841363  0.001827  -0.285081  -0.133646  0.000924  3.673057  0.001
N  N183  1  0.46998227  0.15565833  0.44603755  1  -0.840134  -0.000557  -0.285352  -0.133942  -0.000126  3.673131  0.0
N  N184  1  0.84435354  0.53000020  0.05397105  1  -0.840365  0.001829  -0.285348  -0.134179  0.000927  3.673264  0.001
N  N185  1  0.15564930  0.46999178  0.55394770  1  -0.839382  -0.001823  -0.285193  -0.133449  -0.000924  3.672782  -0.001
N  N186  1  0.96999477  0.34431122  0.80402007  1  -0.841079  0.000552  -0.285056  -0.133443  0.000121  3.673021  0.0
N  N187  1  0.03000940  0.65570857  0.30401522  1  -0.842992  -0.000554  -0.284968  -0.133157  -0.000122  3.672786  0.0
N  N188  1  0.31931280  0.93552719  0.12058561  1  -0.746357  -0.035208  -0.294511  -0.25736  -0.024214  3.593699  -0.03
N  N189  1  0.56446609  0.81932396  0.87055257  1  -0.746405  0.035155  -0.294718  -0.257326  0.024166  3.593566  0.03
N  N190  1  0.68070279  0.06448450  0.62053531  1  -0.746453  0.03523  -0.294702  -0.257251  0.024228  3.593395  0.03
N  N191  1  0.43552416  0.18067255  0.37058864  1  -0.746052  -0.035141  -0.294404  -0.257045  -0.024161  3.593461  -0.03
N  N192  1  0.81932690  0.56445499  0.12941982  1  -0.746479  0.035175  -0.294362  -0.256966  0.024189  3.593155  0.03
N  N193  1  0.18065907  0.43554036  0.62939723  1  -0.746391  -0.035175  -0.294542  -0.257784  -0.02419  3.593834  -0.03
N  N194  1  0.93551637  0.31929647  0.87945658  1  -0.746585  0.035192  -0.294678  -0.25732  0.024193  3.593497  0.03
N  N195  1  0.06449687  0.68070223  0.37945295  1  -0.745917  -0.035196  -0.294811  -0.257605  -0.024198  3.593748  -0.03
N  N196  1  0.25012806  0.10200903  0.93786544  1  -1.18863  -0.079476  -0.411457  -0.399112  -0.051601  3.626292  -0.065
N  N197  1  0.39800170  0.75010117  0.68783625  1  -1.187292  0.079302  -0.411455  -0.399083  0.051511  3.626799  0.065
N  N198  1  0.74986383  0.89797904  0.43784251  1  -1.19004  0.079456  -0.411449  -0.399392  0.051583  3.626642  0.065
N  N199  1  0.60197106  0.24991245  0.18784770  1  -1.187384  -0.07933  -0.41141  -0.398921  -0.051528  3.625892  -0.065
N  N200  1  0.75009854  0.39800869  0.31216283  1  -1.187444  0.079399  -0.411407  -0.398989  0.051552  3.626435  0.065
N  N201  1  0.24990714  0.60197400  0.81215652  1  -1.187494  -0.079421  -0.411348  -0.399008  -0.051569  3.625976  -0.065
N  N202  1  0.10201145  0.25011868  0.06216257  1  -1.188681  0.07936  -0.4115  -0.399605  0.051552  3.626672  0.065
N  N203  1  0.89798177  0.74986955  0.56215191  1  -1.188334  -0.079369  -0.411376  -0.399246  -0.051553  3.626396  -0.065
O  O204  1  0.35764696  0.94580357  0.93480572  1  -1.130047  -0.074216  -0.316222  -0.53692  -0.048409  2.365159  -0.069
O  O205  1  0.55420942  0.85764410  0.68470055  1  -1.130753  0.074048  -0.316421  -0.537104  0.048255  2.364334  0.068
O  O206  1  0.64238791  0.05420600  0.43477279  1  -1.131402  0.074248  -0.316354  -0.537106  0.048424  2.365529  0.069
O  O207  1  0.44578557  0.14236287  0.18473429  1  -1.131609  -0.074002  -0.316363  -0.53711  -0.048228  2.364911  -0.068
O  O208  1  0.85766401  0.55419372  0.31530020  1  -1.131032  0.074306  -0.316427  -0.537103  0.048454  2.365403  0.069
O  O209  1  0.14232240  0.44580452  0.81526826  1  -1.131672  -0.074302  -0.316479  -0.537219  -0.048454  2.364916  -0.069
O  O210  1  0.94576321  0.35759502  0.06522533  1  -1.13035  0.073897  -0.316485  -0.537215  0.048165  2.365416  0.068
O  O211  1  0.05423002  0.64241395  0.56522413  1  -1.130353  -0.073883  -0.316437  -0.537244  -0.048159  2.366184  -0.068
O  O212  1  0.12622686  0.21491701  0.90333717  1  -1.097854  0.075181  -0.305865  -0.459673  0.04888  2.259958  0.068
O  O213  1  0.28511035  0.62627291  0.65323493  1  -1.097452  -0.075478  -0.305685  -0.459471  -0.049123  2.258554  -0.068
O  O214  1  0.87375309  0.78505119  0.40331107  1  -1.098161  -0.075199  -0.305998  -0.459914  -0.048895  2.259265  -0.068
O  O215  1  0.71488976  0.37373715  0.15324126  1  -1.097125  0.075494  -0.305553  -0.459261  0.04913  2.258442  0.068
O  O216  1  0.62624469  0.28514579  0.34677048  1  -1.098185  -0.075169  -0.305696  -0.459437  -0.048878  2.258318  -0.068
O  O217  1  0.37376700  0.71485676  0.84675909  1  -1.098169  0.075175  -0.305639  -0.459257  0.04888  2.258216  0.068
O  O218  1  0.21495753  0.12625041  0.09668838  1  -1.098248  -0.075504  -0.305996  -0.459803  -0.049132  2.259263  -0.068
O  O219  1  0.78502392  0.87374730  0.59667285  1  -1.098034  0.075485  -0.305944  -0.459768  0.049118  2.259799  0.068
O  O220  1  0.38694211  0.95110751  0.79788125  1  -1.171877  -0.018319  -0.315688  -0.546498  -0.011632  2.234942  -0.014
O  O221  1  0.54888129  0.88705859  0.54782599  1  -1.171993  0.019205  -0.315309  -0.545806  0.012435  2.23536  0.017
O  O222  1  0.61311393  0.04893972  0.29785940  1  -1.17292  0.018343  -0.315646  -0.546551  0.011646  2.235408  0.014
O  O223  1  0.45108447  0.11298604  0.04784933  1  -1.17108  -0.019219  -0.315797  -0.546443  -0.012443  2.233992  -0.017
O  O224  1  0.88706214  0.54887436  0.45217474  1  -1.171898  0.018417  -0.315496  -0.546129  0.011695  2.234723  0.014
O  O225  1  0.11298389  0.45109437  0.95215324  1  -1.171287  -0.018414  -0.315846  -0.546456  -0.011692  2.234344  -0.014
O  O226  1  0.95109668  0.38695591  0.20213312  1  -1.171895  0.019163  -0.315661  -0.546386  0.012407  2.235593  0.016
O  O227  1  0.04893171  0.61310731  0.70213694  1  -1.171831  -0.019188  -0.315741  -0.54685  -0.012422  2.234652  -0.017
