# generated using pymatgen
data_Ag2H8C8SN6O7
_symmetry_space_group_name_H-M   'P 1'
_cell_length_a   7.59157459
_cell_length_b   8.71750684
_cell_length_c   12.37102096
_cell_angle_alpha   69.38090137
_cell_angle_beta   84.13740897
_cell_angle_gamma   73.10226089
_symmetry_Int_Tables_number   1
_chemical_formula_structural   Ag2H8C8SN6O7
_chemical_formula_sum   'Ag4 H16 C16 S2 N12 O14'
_cell_volume   733.18109744
_cell_formula_units_Z   2
loop_
 _symmetry_equiv_pos_site_id
 _symmetry_equiv_pos_as_xyz
  1  'x, y, z'
loop_
 _atom_site_type_symbol
 _atom_site_label
 _atom_site_symmetry_multiplicity
 _atom_site_fract_x
 _atom_site_fract_y
 _atom_site_fract_z
 _atom_site_occupancy
 _atom_site_hle17_bader_spin_density
 _atom_site_hle17_ddec_charge
 _atom_site_hle17_ddec_spin_density
 _atom_site_hle17_ddec_sum_bond_order
 _atom_site_hle17_magmom
 _atom_site_hse06_10hf_bader_spin_density
 _atom_site_hse06_10hf_ddec_charge
 _atom_site_hse06_10hf_ddec_spin_density
 _atom_site_hse06_10hf_ddec_sum_bond_order
 _atom_site_hse06_10hf_magmom
 _atom_site_hse06_bader_spin_density
 _atom_site_hse06_ddec_charge
 _atom_site_hse06_ddec_spin_density
 _atom_site_hse06_ddec_sum_bond_order
 _atom_site_hse06_magmom
 _atom_site_pbe_bader_spin_density
 _atom_site_pbe_cm5_charge
 _atom_site_pbe_ddec_charge
 _atom_site_pbe_ddec_spin_density
 _atom_site_pbe_ddec_sum_bond_order
 _atom_site_pbe_magmom
Ag  Ag0  1  0.60979450  0.36570787  0.35513071  1  0  0.486797  0  1.547624  0  0  0.35069  0  1.997665  0  0  0.371264  0  1.952903  0  0  0.470024  0.338801  0  2.027646  0
Ag  Ag1  1  0.11007125  0.72096102  0.64469921  1  0  0.486622  0  1.548346  0  0  0.350178  0  1.998913  0  0  0.370674  0  1.954145  0  0  0.470108  0.338356  0  2.028901  0
Ag  Ag2  1  0.28217117  0.01628837  0.98824538  1  0  0.575112  0  1.324337  0  0  0.437086  0  1.755036  0  0  0.467059  0  1.706518  0  0  0.453006  0.416775  0  1.788839  0
Ag  Ag3  1  0.78195524  0.00424172  0.01180833  1  0  0.575037  0  1.324049  0  0  0.437113  0  1.755153  0  0  0.467024  0  1.706601  0  0  0.453089  0.416929  0  1.788785  0
H  H4  1  0.22024656  0.97338877  0.25067652  1  0  0.11029  0  0.948524  0  0  0.114832  0  1.01581  0  0  0.118081  0  1.013598  0  0  0.124798  0.112337  0  1.017696  0
H  H5  1  0.72062397  0.22423470  0.74947932  1  0  0.110853  0  0.948233  0  0  0.115472  0  1.015567  0  0  0.118732  0  1.013345  0  0  0.125053  0.112956  0  1.017459  0
H  H6  1  0.96053351  0.33924345  0.94994495  1  0  0.103208  0  0.935604  0  0  0.109004  0  1.00264  0  0  0.112063  0  0.999799  0  0  0.123345  0.106653  0  1.005066  0
H  H7  1  0.46064916  0.28942487  0.05007562  1  0  0.102636  0  0.935447  0  0  0.108467  0  1.002512  0  0  0.111541  0  0.999659  0  0  0.122811  0.106096  0  1.004929  0
H  H8  1  0.71061258  0.46710865  0.07009891  1  0  0.102078  0  0.957723  0  0  0.103782  0  1.026579  0  0  0.106998  0  1.024402  0  0  0.122676  0.101297  0  1.028442  0
H  H9  1  0.21113411  0.53769219  0.92979784  1  0  0.103256  0  0.956932  0  0  0.1052  0  1.026067  0  0  0.108518  0  1.02374  0  0  0.123215  0.102687  0  1.027986  0
H  H10  1  0.24097666  0.28866324  0.32869000  1  0  0.099848  0  0.944426  0  0  0.106627  0  1.011053  0  0  0.109137  0  1.009662  0  0  0.11948  0.104712  0  1.01239  0
H  H11  1  0.74079575  0.61733254  0.67135958  1  0  0.09969  0  0.945219  0  0  0.106762  0  1.011269  0  0  0.109266  0  1.009908  0  0  0.119527  0.104857  0  1.01255  0
H  H12  1  0.63924086  0.04939921  0.58859988  1  0  0.102407  0  0.963393  0  0  0.107181  0  1.033092  0  0  0.110291  0  1.030523  0  0  0.114897  0.104892  0  1.035016  0
H  H13  1  0.13932297  0.63784112  0.41175763  1  0  0.103135  0  0.962621  0  0  0.107852  0  1.032574  0  0  0.110868  0  1.030108  0  0  0.115045  0.105606  0  1.034474  0
H  H14  1  0.46731026  0.83185507  0.68778752  1  0  0.087008  0  0.955678  0  0  0.089426  0  1.028027  0  0  0.091791  0  1.026972  0  0  0.116138  0.087626  0  1.029035  0
H  H15  1  0.96733139  0.51999167  0.31217088  1  0  0.087547  0  0.955102  0  0  0.08973  0  1.027702  0  0  0.092088  0  1.026697  0  0  0.116384  0.087936  0  1.028713  0
H  H16  1  0.44030974  0.70763683  0.23648443  1  0  0.403673  0  0.908247  0  0  0.370563  0  0.978812  0  0  0.381911  0  0.961815  0  0  0.276139  0.36252  0  0.990793  0
H  H17  1  0.94056611  0.94441376  0.76349233  1  0  0.404449  0  0.907386  0  0  0.371222  0  0.977687  0  0  0.382541  0  0.960771  0  0  0.276714  0.363203  0  0.989639  0
H  H18  1  0.30177750  0.61091494  0.21903850  1  0  0.401766  0  0.904542  0  0  0.369435  0  0.974332  0  0  0.379995  0  0.958739  0  0  0.281318  0.361955  0  0.985345  0
H  H19  1  0.80212649  0.83020496  0.78086040  1  0  0.40304  0  0.904445  0  0  0.370968  0  0.97238  0  0  0.38153  0  0.956753  0  0  0.282656  0.363474  0  0.983399  0
C  C20  1  0.97837155  0.16522380  0.27538060  1  0  0.142641  0  3.760307  0  0  0.147975  0  4.023672  0  0  0.151946  0  4.043246  0  0  0.122817  0.144779  0  4.011119  0
C  C21  1  0.47863598  0.44057490  0.72465327  1  0  0.14477  0  3.760384  0  0  0.150234  0  4.023443  0  0  0.154268  0  4.042885  0  0  0.123299  0.146987  0  4.011022  0
C  C22  1  0.11107489  0.08780290  0.20981781  1  0  0.065755  0  3.623516  0  0  0.031603  0  3.866829  0  0  0.034481  0  3.884319  0  0  0.056306  0.029116  0  3.855919  0
C  C23  1  0.61137359  0.29777928  0.79030980  1  0  0.064556  0  3.624292  0  0  0.029942  0  3.868297  0  0  0.03285  0  3.885592  0  0  0.056933  0.02744  0  3.857554  0
C  C24  1  0.96322194  0.28795590  0.04398034  1  0  0.07229  0  3.655905  0  0  0.034525  0  3.925244  0  0  0.039552  0  3.938697  0  0  0.050606  0.030504  0  3.917243  0
C  C25  1  0.46345904  0.33215114  0.95602599  1  0  0.072391  0  3.656025  0  0  0.035192  0  3.925506  0  0  0.040195  0  3.938906  0  0  0.051638  0.031266  0  3.917372  0
C  C26  1  0.82768654  0.36011412  0.11029084  1  0  0.119211  0  3.631315  0  0  0.090362  0  3.891533  0  0  0.093543  0  3.905305  0  0  0.063221  0.087843  0  3.883133  0
C  C27  1  0.32806267  0.47073818  0.88964542  1  0  0.118612  0  3.627619  0  0  0.088146  0  3.889613  0  0  0.091314  0  3.903323  0  0  0.061488  0.085577  0  3.881307  0
C  C28  1  0.19361019  0.06642852  0.46753081  1  0  0.162355  0  3.752606  0  0  0.168735  0  4.015558  0  0  0.17396  0  4.03361  0  0  0.129869  0.164794  0  4.00379  0
C  C29  1  0.69358508  0.53387413  0.53241947  1  0  0.158786  0  3.755568  0  0  0.16504  0  4.018603  0  0  0.170201  0  4.036789  0  0  0.127759  0.161086  0  4.006827  0
C  C30  1  0.29054821  0.18685708  0.40962641  1  0  0.052032  0  3.651952  0  0  0.013895  0  3.907689  0  0  0.016155  0  3.92407  0  0  0.053086  0.012102  0  3.89722  0
C  C31  1  0.79038149  0.59646350  0.59045028  1  0  0.055338  0  3.652166  0  0  0.017509  0  3.906615  0  0  0.019773  0  3.922986  0  0  0.056064  0.015728  0  3.896171  0
C  C32  1  0.51137746  0.05520560  0.55231980  1  0  0.072887  0  3.641855  0  0  0.037962  0  3.899688  0  0  0.041815  0  3.914812  0  0  0.047627  0.035052  0  3.889929  0
C  C33  1  0.01143012  0.60740202  0.44791243  1  0  0.071056  0  3.640725  0  0  0.035321  0  3.899371  0  0  0.039257  0  3.914397  0  0  0.045599  0.03236  0  3.889677  0
C  C34  1  0.41586847  0.93472786  0.60772531  1  0  0.110177  0  3.651466  0  0  0.080818  0  3.911951  0  0  0.083137  0  3.929028  0  0  0.053964  0.078817  0  3.901265  0
C  C35  1  0.91592753  0.54255957  0.39231636  1  0  0.110833  0  3.652181  0  0  0.082007  0  3.912431  0  0  0.084341  0  3.929491  0  0  0.054919  0.079981  0  3.901834  0
S  S36  1  0.97278931  0.07769800  0.42745801  1  0  0.02902  0  2.488646  0  0  0.017439  0  2.844425  0  0  0.014543  0  2.838919  0  0  0.077631  0.019288  0  2.848484  0
S  S37  1  0.47305517  0.50444432  0.57256693  1  0  0.029052  0  2.48815  0  0  0.017355  0  2.843848  0  0  0.014489  0  2.838344  0  0  0.076847  0.019207  0  2.847905  0
N  N38  1  0.83637089  0.30020515  0.22591582  1  0  -0.265142  0  3.229774  0  0  -0.205318  0  3.508117  0  0  -0.214426  0  3.517672  0  0  -0.312334  -0.199541  0  3.502305  0
N  N39  1  0.33670741  0.52632761  0.77398860  1  0  -0.267609  0  3.230231  0  0  -0.207492  0  3.509285  0  0  -0.216581  0  3.518767  0  0  -0.312845  -0.201747  0  3.50356  0
N  N40  1  0.10418885  0.15166489  0.09400448  1  0  -0.250773  0  3.340398  0  0  -0.170008  0  3.625433  0  0  -0.184789  0  3.639938  0  0  -0.327248  -0.160099  0  3.616063  0
N  N41  1  0.60449257  0.24585124  0.90611770  1  0  -0.250055  0  3.340265  0  0  -0.169268  0  3.624656  0  0  -0.183949  0  3.639122  0  0  -0.327809  -0.159455  0  3.615295  0
N  N42  1  0.25851433  0.93889412  0.56524209  1  0  -0.27918  0  3.245115  0  0  -0.220485  0  3.520339  0  0  -0.230854  0  3.532071  0  0  -0.313461  -0.213841  0  3.512999  0
N  N43  1  0.75853008  0.50428239  0.43464335  1  0  -0.278868  0  3.24542  0  0  -0.220395  0  3.520548  0  0  -0.230738  0  3.532307  0  0  -0.313437  -0.213757  0  3.513187  0
N  N44  1  0.44861556  0.18022478  0.45220860  1  0  -0.232595  0  3.321301  0  0  -0.161792  0  3.613239  0  0  -0.172788  0  3.625213  0  0  -0.318561  -0.154591  0  3.605251  0
N  N45  1  0.94847782  0.63237402  0.54798173  1  0  -0.233993  0  3.320689  0  0  -0.162709  0  3.612686  0  0  -0.173625  0  3.624571  0  0  -0.319228  -0.155556  0  3.604783  0
N  N46  1  0.54728464  0.75840249  0.91228022  1  0  0.684233  0  4.124379  0  0  0.712584  0  4.413609  0  0  0.742013  0  4.420943  0  0  0.090964  0.706343  0  4.388842  0
N  N47  1  0.04737779  0.67044586  0.08752278  1  0  0.687886  0  4.119011  0  0  0.727842  0  4.391015  0  0  0.744155  0  4.416884  0  0  0.092209  0.707691  0  4.385777  0
N  N48  1  0.07820553  0.17749232  0.75312737  1  0  0.682236  0  4.144664  0  0  0.718758  0  4.42941  0  0  0.746748  0  4.437066  0  0  0.087311  0.699844  0  4.423503  0
N  N49  1  0.57837907  0.93010426  0.24689570  1  0  0.683345  0  4.142882  0  0  0.720744  0  4.426644  0  0  0.748697  0  4.434244  0  0  0.08941  0.715302  0  4.401729  0
O  O50  1  0.66319891  0.67878165  0.85581104  1  0  -0.462469  0  1.757982  0  0  -0.437885  0  1.960583  0  0  -0.455439  0  1.955945  0  0  -0.180936  -0.429969  0  1.958076  0
O  O51  1  0.16328882  0.53429445  0.14396923  1  0  -0.46571  0  1.75657  0  0  -0.444334  0  1.9541  0  0  -0.457487  0  1.954686  0  0  -0.181632  -0.431823  0  1.95724  0
O  O52  1  0.51962364  0.92102458  0.88215110  1  0  -0.479274  0  1.874901  0  0  -0.443754  0  2.13315  0  0  -0.466106  0  2.123646  0  0  -0.206862  -0.432392  0  2.134231  0
O  O53  1  0.01966005  0.80277553  0.11782911  1  0  -0.478571  0  1.873285  0  0  -0.447188  0  2.127077  0  0  -0.465131  0  2.12249  0  0  -0.206427  -0.431208  0  2.133229  0
O  O54  1  0.45965771  0.68317290  0.99580538  1  0  -0.43936  0  1.780774  0  0  -0.420384  0  1.996155  0  0  -0.436924  0  1.990721  0  0  -0.171656  -0.41334  0  1.994187  0
O  O55  1  0.95988000  0.67887162  0.00386604  1  0  -0.440471  0  1.778583  0  0  -0.426082  0  1.989784  0  0  -0.438155  0  1.989627  0  0  -0.172527  -0.414198  0  1.993463  0
O  O56  1  0.06530055  0.03232921  0.82670323  1  0  -0.524564  0  1.821116  0  0  -0.499315  0  2.066162  0  0  -0.518052  0  2.053845  0  0  -0.212651  -0.48615  0  2.074349  0
O  O57  1  0.56611455  0.85808807  0.17340986  1  0  -0.525859  0  1.819914  0  0  -0.501307  0  2.065465  0  0  -0.52007  0  2.053129  0  0  -0.214656  -0.492595  0  2.068737  0
O  O58  1  0.14895953  0.26831506  0.78592818  1  0  -0.472587  0  1.778929  0  0  -0.464065  0  2.01054  0  0  -0.480804  0  2.004557  0  0  -0.202258  -0.452024  0  2.014292  0
O  O59  1  0.64937780  0.05354265  0.21421689  1  0  -0.473251  0  1.776805  0  0  -0.465294  0  2.008327  0  0  -0.482027  0  2.002431  0  0  -0.203531  -0.457832  0  2.006696  0
O  O60  1  0.01888721  0.22488222  0.65233995  1  0  -0.440609  0  1.77123  0  0  -0.43384  0  1.982559  0  0  -0.449296  0  1.98279  0  0  -0.187939  -0.422593  0  1.982103  0
O  O61  1  0.51820587  0.87728002  0.34747034  1  0  -0.440201  0  1.774008  0  0  -0.433119  0  1.984441  0  0  -0.44859  0  1.984748  0  0  -0.187094  -0.426419  0  1.978396  0
O  O62  1  0.37127411  0.62248594  0.27751385  1  0  -0.817539  0  1.937084  0  0  -0.755039  0  2.141423  0  0  -0.775776  0  2.105907  0  0  -0.600673  -0.740066  0  2.165959  0
O  O63  1  0.87164355  0.90019892  0.72242902  1  0  -0.819237  0  1.936443  0  0  -0.756506  0  2.140425  0  0  -0.777198  0  2.104869  0  0  -0.602225  -0.741582  0  2.165018  0
