# generated using pymatgen
data_CuH18C18S2BrN2
_symmetry_space_group_name_H-M   'P 1'
_cell_length_a   6.47234876
_cell_length_b   12.04691743
_cell_length_c   12.68552572
_cell_angle_alpha   111.28151752
_cell_angle_beta   94.25404337
_cell_angle_gamma   100.50414268
_symmetry_Int_Tables_number   1
_chemical_formula_structural   CuH18C18S2BrN2
_chemical_formula_sum   'Cu2 H36 C36 S4 Br2 N4'
_cell_volume   895.52346237
_cell_formula_units_Z   2
loop_
 _symmetry_equiv_pos_site_id
 _symmetry_equiv_pos_as_xyz
  1  'x, y, z'
loop_
 _atom_site_type_symbol
 _atom_site_label
 _atom_site_symmetry_multiplicity
 _atom_site_fract_x
 _atom_site_fract_y
 _atom_site_fract_z
 _atom_site_occupancy
 _atom_site_pbe_bader_spin_density
 _atom_site_pbe_cm5_charge
 _atom_site_pbe_ddec_charge
 _atom_site_pbe_ddec_spin_density
 _atom_site_pbe_ddec_sum_bond_order
 _atom_site_pbe_magmom
Cu  Cu0  1  0.40393996  0.41463294  0.13854758  1  0  0.305068  0.2394  0  2.697342  0
Cu  Cu1  1  0.59606357  0.58536088  0.86144461  1  0  0.305051  0.23943  0  2.697133  0
H  H2  1  0.91469834  0.06239968  0.00972068  1  0  0.096749  0.090562  0  1.021572  0
H  H3  1  0.08530507  0.93759414  0.99027782  1  0  0.096715  0.090504  0  1.021652  0
H  H4  1  0.63739961  0.06098875  0.99831472  1  0  0.098224  0.091164  0  1.014683  0
H  H5  1  0.36260795  0.93901147  0.00168221  1  0  0.098223  0.091188  0  1.014632  0
H  H6  1  0.66186400  0.11744144  0.20077691  1  0  0.102104  0.098902  0  1.002049  0
H  H7  1  0.33814373  0.88255146  0.79921909  1  0  0.102123  0.09891  0  1.002082  0
H  H8  1  0.94349703  0.12517800  0.21202010  1  0  0.101047  0.09034  0  0.996639  0
H  H9  1  0.05651470  0.87482496  0.78797874  1  0  0.101067  0.090363  0  0.99662  0
H  H10  1  0.03824103  0.20476226  0.90623242  1  0  0.102144  0.087726  0  1.002532  0
H  H11  1  0.96176536  0.79522332  0.09376100  1  0  0.102073  0.087594  0  1.002668  0
H  H12  1  0.91960944  0.33238384  0.93191663  1  0  0.096218  0.090345  0  1.054229  0
H  H13  1  0.08042259  0.66761178  0.06808212  1  0  0.096172  0.090365  0  1.054163  0
H  H14  1  0.49109585  0.27360444  0.89005569  1  0  0.086881  0.089579  0  1.052931  0
H  H15  1  0.50894559  0.72642316  0.10996313  1  0  0.086844  0.089551  0  1.052898  0
H  H16  1  0.20219462  0.15041013  0.72681551  1  0  0.0956  0.089709  0  1.03288  0
H  H17  1  0.79780088  0.84962758  0.27322532  1  0  0.095629  0.089726  0  1.032905  0
H  H18  1  0.25761598  0.96569427  0.57050564  1  0  0.096841  0.094589  0  1.020347  0
H  H19  1  0.74232069  0.03432430  0.42953401  1  0  0.096824  0.094568  0  1.020414  0
H  H20  1  0.60342260  0.90284034  0.57993066  1  0  0.095137  0.092136  0  1.027627  0
H  H21  1  0.39648786  0.09715449  0.42008711  1  0  0.095088  0.092101  0  1.027483  0
H  H22  1  0.89134178  0.02667932  0.74324892  1  0  0.096749  0.096229  0  1.023492  0
H  H23  1  0.10860418  0.97330635  0.25674434  1  0  0.096761  0.096264  0  1.023366  0
H  H24  1  0.66748033  0.33507311  0.34582680  1  0  0.104308  0.089601  0  1.002757  0
H  H25  1  0.33252717  0.66492711  0.65417328  1  0  0.104284  0.0896  0  1.002767  0
H  H26  1  0.86792336  0.45607838  0.34314541  1  0  0.108844  0.100863  0  1.019818  0
H  H27  1  0.13208146  0.54392643  0.65684746  1  0  0.108875  0.100916  0  1.019884  0
H  H28  1  0.72793297  0.26457427  0.49151097  1  0  0.098956  0.099977  0  1.027511  0
H  H29  1  0.27208523  0.73542136  0.50848169  1  0  0.098889  0.099897  0  1.027535  0
H  H30  1  0.96817736  0.23816304  0.63827704  1  0  0.093688  0.09273  0  1.025738  0
H  H31  1  0.03185386  0.76181796  0.36169851  1  0  0.093628  0.092568  0  1.025612  0
H  H32  1  0.36168754  0.30103371  0.65038918  1  0  0.08991  0.090295  0  1.049367  0
H  H33  1  0.63833823  0.69894912  0.34958520  1  0  0.090016  0.090504  0  1.049119  0
H  H34  1  0.50998561  0.39090434  0.51654202  1  0  0.0943  0.088094  0  1.046556  0
H  H35  1  0.49002656  0.60909498  0.48343666  1  0  0.094315  0.088292  0  1.046348  0
H  H36  1  0.26753770  0.41208577  0.36632735  1  0  0.088466  0.083016  0  1.062639  0
H  H37  1  0.73245682  0.58791264  0.63366447  1  0  0.088436  0.082919  0  1.062447  0
C  C38  1  0.87033199  0.32371334  0.13122137  1  0  0.26178  0.250902  0  4.042186  0
C  C39  1  0.12967357  0.67628596  0.86878067  1  0  0.261761  0.250972  0  4.042103  0
C  C40  1  0.79547259  0.11356069  0.04497681  1  0  -0.058203  -0.076499  0  3.834699  0
C  C41  1  0.20453698  0.88643679  0.95501926  1  0  -0.058154  -0.076431  0  3.834767  0
C  C42  1  0.81087782  0.15167686  0.17525022  1  0  -0.054889  -0.072754  0  3.811461  0
C  C43  1  0.18912706  0.84832062  0.82474802  1  0  -0.054979  -0.07284  0  3.811593  0
C  C44  1  0.91725786  0.45392859  0.14587831  1  0  0.012442  0.040776  0  4.0262  0
C  C45  1  0.08274258  0.54606524  0.85411297  1  0  0.012395  0.040695  0  4.025934  0
C  C46  1  0.88980169  0.23631992  0.92279496  1  0  -0.054143  -0.107837  0  3.919967  0
C  C47  1  0.11021533  0.76367296  0.07720221  1  0  -0.054027  -0.107805  0  3.919972  0
C  C48  1  0.71173941  0.15945682  0.82570294  1  0  -0.015208  0.093872  0  3.96324  0
C  C49  1  0.28825465  0.84054890  0.17430556  1  0  -0.015242  0.093825  0  3.963426  0
C  C50  1  0.51576518  0.19287197  0.82142309  1  0  -0.095111  -0.124477  0  3.965897  0
C  C51  1  0.48424631  0.80714653  0.17859211  1  0  -0.094894  -0.124075  0  3.965377  0
C  C52  1  0.35336183  0.12309478  0.73010931  1  0  -0.096454  -0.086415  0  4.023082  0
C  C53  1  0.64662709  0.87693380  0.26992102  1  0  -0.096405  -0.086575  0  4.022758  0
C  C54  1  0.38439158  0.01939507  0.64223600  1  0  -0.095179  -0.089609  0  4.01627  0
C  C55  1  0.61556284  0.98061708  0.35779352  1  0  -0.095293  -0.089581  0  4.015739  0
C  C56  1  0.57795768  0.98448430  0.64698869  1  0  -0.09507  -0.080495  0  4.026131  0
C  C57  1  0.42197966  0.01551965  0.35303099  1  0  -0.095272  -0.080816  0  4.025568  0
C  C58  1  0.74050379  0.05440102  0.73870314  1  0  -0.094679  -0.138948  0  3.981075  0
C  C59  1  0.25946130  0.94559010  0.26129675  1  0  -0.094535  -0.138778  0  3.980872  0
C  C60  1  0.83411828  0.35994387  0.33384437  1  0  -0.049757  -0.104353  0  3.91104  0
C  C61  1  0.16588347  0.64005728  0.66615184  1  0  -0.049826  -0.104475  0  3.911411  0
C  C62  1  0.98202716  0.34161855  0.42081524  1  0  -0.015857  0.091586  0  3.961024  0
C  C63  1  0.01797845  0.65838075  0.57918366  1  0  -0.015823  0.091556  0  3.960898  0
C  C64  1  0.89984906  0.29178302  0.49692064  1  0  -0.094866  -0.144219  0  3.980342  0
C  C65  1  0.10015976  0.70821996  0.50306704  1  0  -0.094789  -0.144225  0  3.980332  0
C  C66  1  0.03529535  0.27636058  0.57909566  1  0  -0.097414  -0.078421  0  4.019139  0
C  C67  1  0.96472769  0.72362773  0.42089468  1  0  -0.097388  -0.07812  0  4.019205  0
C  C68  1  0.25532409  0.31162119  0.58580014  1  0  -0.099492  -0.097123  0  4.025227  0
C  C69  1  0.74469937  0.68837537  0.41417887  1  0  -0.099585  -0.097276  0  4.024658  0
C  C70  1  0.33837376  0.36146913  0.50987703  1  0  -0.09786  -0.089363  0  4.016188  0
C  C71  1  0.66163741  0.63852834  0.49011596  1  0  -0.097921  -0.089862  0  4.016291  0
C  C72  1  0.20294476  0.37553109  0.42716841  1  0  -0.092999  -0.123636  0  3.959677  0
C  C73  1  0.79706457  0.62448103  0.57282322  1  0  -0.092959  -0.12332  0  3.95971  0
S  S74  1  0.71314021  0.51664995  0.12374974  1  0  -0.151695  -0.206868  0  2.833883  0
S  S75  1  0.28686296  0.48334297  0.87624134  1  0  -0.151721  -0.206859  0  2.833606  0
S  S76  1  0.17342212  0.53279615  0.18530027  1  0  -0.150528  -0.196261  0  2.802262  0
S  S77  1  0.82657868  0.46719859  0.81469134  1  0  -0.150496  -0.196185  0  2.802086  0
Br  Br78  1  0.33112942  0.21025956  0.11924086  1  0  -0.292526  -0.46109  0  1.532707  0
Br  Br79  1  0.66887552  0.78973425  0.88075848  1  0  -0.292543  -0.461122  0  1.532694  0
N  N80  1  0.84129623  0.23085408  0.03087614  1  0  -0.262272  -0.045253  0  3.677658  0
N  N81  1  0.15872074  0.76914247  0.96911914  1  0  -0.262162  -0.045208  0  3.677916  0
N  N82  1  0.85330493  0.28611334  0.21727466  1  0  -0.261238  -0.048763  0  3.666529  0
N  N83  1  0.14669573  0.71388506  0.78272057  1  0  -0.261173  -0.048757  0  3.666466  0
