# generated using pymatgen
data_FeH8C10(SN6)2
_symmetry_space_group_name_H-M   'P 1'
_cell_length_a   6.68629850
_cell_length_b   7.24048000
_cell_length_c   10.91200317
_cell_angle_alpha   76.14928825
_cell_angle_beta   72.05646187
_cell_angle_gamma   62.52697826
_symmetry_Int_Tables_number   1
_chemical_formula_structural   FeH8C10(SN6)2
_chemical_formula_sum   'Fe1 H8 C10 S2 N12'
_cell_volume   442.93017285
_cell_formula_units_Z   1
loop_
 _symmetry_equiv_pos_site_id
 _symmetry_equiv_pos_as_xyz
  1  'x, y, z'
loop_
 _atom_site_type_symbol
 _atom_site_label
 _atom_site_symmetry_multiplicity
 _atom_site_fract_x
 _atom_site_fract_y
 _atom_site_fract_z
 _atom_site_occupancy
 _atom_site_pbe_bader_spin_density
 _atom_site_pbe_cm5_charge
 _atom_site_pbe_ddec_charge
 _atom_site_pbe_ddec_spin_density
 _atom_site_pbe_ddec_sum_bond_order
 _atom_site_pbe_magmom
Fe  Fe0  1  0.49999915  0.49999842  0.99999910  1  0  0.875511  0.48305  0  3.896309  0
H  H1  1  0.64017197  0.54018780  0.68095205  1  0  0.150486  0.13163  0  1.001325  0
H  H2  1  0.35982748  0.45980781  0.31905147  1  0  0.150485  0.13166  0  1.001301  0
H  H3  1  0.29641829  0.19192399  0.71539506  1  0  0.152  0.131475  0  0.9686  0
H  H4  1  0.70359745  0.80807167  0.28460325  1  0  0.151975  0.131455  0  0.968651  0
H  H5  1  0.65975999  0.82685300  0.98242703  1  0  0.127025  0.106473  0  1.031509  0
H  H6  1  0.96850984  0.17329468  0.01745692  1  0  0.126767  0.105816  0  1.033645  0
H  H7  1  0.34023479  0.17315048  0.01757231  1  0  0.127048  0.106492  0  1.031484  0
H  H8  1  0.03148235  0.82671505  0.98254321  1  0  0.126786  0.105836  0  1.033603  0
C  C9  1  0.54568078  0.68589879  0.72403309  1  0  0.175612  0.080133  0  3.805965  0
C  C10  1  0.45432287  0.31409996  0.27596929  1  0  0.175599  0.080158  0  3.805836  0
C  C11  1  0.36707691  0.02416882  0.74212617  1  0  0.166159  0.065337  0  3.954038  0
C  C12  1  0.63292825  0.97582997  0.25787317  1  0  0.166233  0.065417  0  3.954162  0
C  C13  1  0.81163449  0.68036888  0.98980126  1  0  0.049723  0.037461  0  3.884081  0
C  C14  1  0.98149680  0.31974661  0.01009863  1  0  0.049412  0.036742  0  3.884762  0
C  C15  1  0.18835628  0.31963774  0.01019727  1  0  0.049686  0.037391  0  3.884148  0
C  C16  1  0.01849797  0.68025687  0.98990071  1  0  0.049388  0.036646  0  3.884874  0
C  C17  1  0.24272152  0.80990115  0.20430867  1  0  0.1278  0.228845  0  4.333162  0
C  C18  1  0.75727882  0.19009601  0.79569627  1  0  0.127825  0.228988  0  4.333035  0
S  S19  1  0.11424190  0.94245659  0.32808888  1  0  -0.225846  -0.370051  0  2.262757  0
S  S20  1  0.88576676  0.05753595  0.67190875  1  0  -0.225865  -0.370137  0  2.262541  0
N  N21  1  0.47022296  0.71207748  0.84836504  1  0  -0.24095  -0.09756  0  3.585099  0
N  N22  1  0.52977123  0.28792598  0.15163643  1  0  -0.240922  -0.097566  0  3.585135  0
N  N23  1  0.35738873  0.92587111  0.85977180  1  0  -0.20196  -0.174218  0  3.205321  0
N  N24  1  0.64261039  0.07413393  0.14022864  1  0  -0.202031  -0.174332  0  3.205457  0
N  N25  1  0.48395364  0.87938871  0.65364686  1  0  -0.109627  0.085965  0  3.867522  0
N  N26  1  0.51605752  0.12060536  0.34635371  1  0  -0.109611  0.085925  0  3.867531  0
N  N27  1  0.53770132  0.90386175  0.52141184  1  0  -0.029269  -0.049643  0  3.22355  0
N  N28  1  0.46229926  0.09613545  0.47858975  1  0  -0.029206  -0.049553  0  3.223593  0
N  N29  1  0.33777798  0.70842680  0.11564427  1  0  -0.423273  -0.436636  0  3.534828  0
N  N30  1  0.66221806  0.29157197  0.88435630  1  0  -0.42328  -0.43671  0  3.535017  0
N  N31  1  0.79075908  0.50007508  0.99992768  1  0  -0.331849  -0.123265  0  3.630895  0
N  N32  1  0.20923804  0.49993153  0.00007235  1  0  -0.331832  -0.123226  0  3.631055  0
