# generated using pymatgen
data_CdH8C12(NCl)2
_symmetry_space_group_name_H-M   'P 1'
_cell_length_a   7.30178526
_cell_length_b   9.71483014
_cell_length_c   9.71492670
_cell_angle_alpha   65.41869384
_cell_angle_beta   73.90629569
_cell_angle_gamma   73.90637149
_symmetry_Int_Tables_number   1
_chemical_formula_structural   CdH8C12(NCl)2
_chemical_formula_sum   'Cd2 H16 C24 N4 Cl4'
_cell_volume   591.69318804
_cell_formula_units_Z   2
loop_
 _symmetry_equiv_pos_site_id
 _symmetry_equiv_pos_as_xyz
  1  'x, y, z'
loop_
 _atom_site_type_symbol
 _atom_site_label
 _atom_site_symmetry_multiplicity
 _atom_site_fract_x
 _atom_site_fract_y
 _atom_site_fract_z
 _atom_site_occupancy
 _atom_site_hle17_bader_spin_density
 _atom_site_hle17_ddec_charge
 _atom_site_hle17_ddec_spin_density
 _atom_site_hle17_ddec_sum_bond_order
 _atom_site_hle17_magmom
 _atom_site_hse06_10hf_bader_spin_density
 _atom_site_hse06_10hf_ddec_charge
 _atom_site_hse06_10hf_ddec_spin_density
 _atom_site_hse06_10hf_ddec_sum_bond_order
 _atom_site_hse06_10hf_magmom
 _atom_site_hse06_bader_spin_density
 _atom_site_hse06_ddec_charge
 _atom_site_hse06_ddec_spin_density
 _atom_site_hse06_ddec_sum_bond_order
 _atom_site_hse06_magmom
 _atom_site_pbe_bader_spin_density
 _atom_site_pbe_cm5_charge
 _atom_site_pbe_ddec_charge
 _atom_site_pbe_ddec_spin_density
 _atom_site_pbe_ddec_sum_bond_order
 _atom_site_pbe_magmom
Cd  Cd0  1  0.75000077  0.06777792  0.93222069  1  0  0.947716  0  1.971539  0  0  0.776232  0  2.440683  0  0  0.82259  0  2.400391  0  0  0.596245  0.74617  0  2.4638  0
Cd  Cd1  1  0.25000035  0.93222049  0.06777805  1  0  0.947712  0  1.971576  0  0  0.776235  0  2.440708  0  0  0.822592  0  2.400417  0  0  0.596254  0.746174  0  2.463828  0
H  H2  1  0.10540162  0.37130024  0.23702833  1  0  0.103326  0  0.921553  0  0  0.118504  0  0.974875  0  0  0.1211  0  0.973386  0  0  0.11153  0.117403  0  0.974782  0
H  H3  1  0.39460240  0.76297433  0.62869561  1  0  0.10339  0  0.921499  0  0  0.118527  0  0.97486  0  0  0.121123  0  0.973369  0  0  0.111538  0.117426  0  0.974765  0
H  H4  1  0.89459866  0.62870165  0.76297012  1  0  0.103352  0  0.921528  0  0  0.118504  0  0.974874  0  0  0.1211  0  0.973384  0  0  0.111541  0.117403  0  0.97478  0
H  H5  1  0.60539760  0.23702301  0.37130897  1  0  0.103363  0  0.921509  0  0  0.118519  0  0.974853  0  0  0.121116  0  0.973362  0  0  0.111514  0.117418  0  0.97476  0
H  H6  1  0.24173258  0.09794216  0.38282548  1  0  0.109887  0  0.984514  0  0  0.118509  0  1.047115  0  0  0.121806  0  1.046044  0  0  0.09228  0.11582  0  1.048933  0
H  H7  1  0.25827530  0.61717826  0.90205178  1  0  0.109922  0  0.984535  0  0  0.118536  0  1.047153  0  0  0.121834  0  1.046079  0  0  0.092295  0.115849  0  1.048967  0
H  H8  1  0.75826913  0.90205977  0.61717471  1  0  0.109862  0  0.984559  0  0  0.118472  0  1.047163  0  0  0.121771  0  1.04609  0  0  0.092281  0.115783  0  1.04898  0
H  H9  1  0.74172239  0.38281670  0.09795021  1  0  0.109941  0  0.984507  0  0  0.11854  0  1.047132  0  0  0.121839  0  1.046059  0  0  0.092297  0.115853  0  1.048949  0
H  H10  1  0.10308856  0.97994468  0.66728995  1  0  0.073689  0  0.954398  0  0  0.079616  0  1.024759  0  0  0.081892  0  1.022835  0  0  0.104781  0.077343  0  1.02769  0
H  H11  1  0.39691556  0.33271441  0.02004877  1  0  0.073614  0  0.954392  0  0  0.079479  0  1.024821  0  0  0.081751  0  1.022905  0  0  0.104738  0.077209  0  1.027748  0
H  H12  1  0.89691200  0.02005605  0.33270894  1  0  0.073683  0  0.954422  0  0  0.079611  0  1.024783  0  0  0.081885  0  1.022861  0  0  0.104792  0.077338  0  1.027714  0
H  H13  1  0.60308612  0.66728172  0.97995186  1  0  0.073622  0  0.954375  0  0  0.079485  0  1.024812  0  0  0.081758  0  1.022891  0  0  0.104729  0.077215  0  1.027738  0
H  H14  1  0.88072530  0.61916901  0.24009333  1  0  0.104389  0  0.975641  0  0  0.112008  0  1.043528  0  0  0.11496  0  1.042223  0  0  0.090812  0.110288  0  1.04431  0
H  H15  1  0.61927648  0.75990918  0.38082670  1  0  0.104381  0  0.975607  0  0  0.112  0  1.043494  0  0  0.114952  0  1.042188  0  0  0.090802  0.110279  0  1.044277  0
H  H16  1  0.11927356  0.38083290  0.75990747  1  0  0.104388  0  0.975632  0  0  0.112008  0  1.043521  0  0  0.11496  0  1.042215  0  0  0.090807  0.110287  0  1.044305  0
H  H17  1  0.38072266  0.24009156  0.61917352  1  0  0.104408  0  0.975583  0  0  0.112031  0  1.043465  0  0  0.114984  0  1.042159  0  0  0.090813  0.11031  0  1.044249  0
C  C18  1  0.82798062  0.32326813  0.59450896  1  0  0.132297  0  3.739254  0  0  0.126762  0  3.974815  0  0  0.131301  0  3.996256  0  0  0.117261  0.124637  0  3.958618  0
C  C19  1  0.67202455  0.40548792  0.67673147  1  0  0.132186  0  3.739306  0  0  0.126706  0  3.974838  0  0  0.131244  0  3.996281  0  0  0.117269  0.124582  0  3.95864  0
C  C20  1  0.17201966  0.67673376  0.40548950  1  0  0.132324  0  3.739306  0  0  0.126802  0  3.974864  0  0  0.13134  0  3.996304  0  0  0.117309  0.124677  0  3.958664  0
C  C21  1  0.32797629  0.59451166  0.32326786  1  0  0.132176  0  3.739358  0  0  0.126685  0  3.974891  0  0  0.131225  0  3.996332  0  0  0.117285  0.124561  0  3.958694  0
C  C22  1  0.90009290  0.40131588  0.43607429  1  0  0.021084  0  3.797739  0  0  0.036339  0  4.030369  0  0  0.034045  0  4.054835  0  0  -0.002551  0.039076  0  4.014531  0
C  C23  1  0.59991094  0.56392502  0.59868267  1  0  0.02107  0  3.797768  0  0  0.036313  0  4.030394  0  0  0.034019  0  4.054861  0  0  -0.002542  0.039052  0  4.01455  0
C  C24  1  0.09990453  0.59868597  0.56392375  1  0  0.021109  0  3.797675  0  0  0.036362  0  4.030299  0  0  0.03407  0  4.054765  0  0  -0.002536  0.039101  0  4.014459  0
C  C25  1  0.40008706  0.43607459  0.40131931  1  0  0.021154  0  3.797765  0  0  0.03641  0  4.03038  0  0  0.034116  0  4.054849  0  0  -0.00249  0.039149  0  4.014536  0
C  C26  1  0.04927502  0.31589083  0.35935408  1  0  -0.040374  0  3.680677  0  0  -0.066872  0  3.933053  0  0  -0.064348  0  3.951083  0  0  -0.062384  -0.069323  0  3.920197  0
C  C27  1  0.45072970  0.64065190  0.68410677  1  0  -0.040426  0  3.680741  0  0  -0.066893  0  3.933123  0  0  -0.064369  0  3.951152  0  0  -0.062415  -0.069344  0  3.920266  0
C  C28  1  0.95072642  0.68411227  0.64064669  1  0  -0.040396  0  3.680669  0  0  -0.066868  0  3.933035  0  0  -0.064345  0  3.951064  0  0  -0.062395  -0.06932  0  3.920176  0
C  C29  1  0.54926803  0.35934886  0.31589478  1  0  -0.040506  0  3.680751  0  0  -0.066993  0  3.933148  0  0  -0.064469  0  3.951177  0  0  -0.062447  -0.069444  0  3.920291  0
C  C30  1  0.12444670  0.16458922  0.44003558  1  0  -0.120006  0  3.731016  0  0  -0.13152  0  3.981557  0  0  -0.138695  0  4.002789  0  0  -0.086469  -0.126903  0  3.971269  0
C  C31  1  0.37556018  0.55996947  0.83540694  1  0  -0.120051  0  3.731176  0  0  -0.131537  0  3.981662  0  0  -0.138714  0  4.002891  0  0  -0.086461  -0.126922  0  3.971377  0
C  C32  1  0.87555474  0.83541388  0.55996520  1  0  -0.119974  0  3.730974  0  0  -0.131473  0  3.981515  0  0  -0.138651  0  4.002748  0  0  -0.086482  -0.126856  0  3.971225  0
C  C33  1  0.62443667  0.44002893  0.16459374  1  0  -0.120023  0  3.731133  0  0  -0.131491  0  3.981631  0  0  -0.138667  0  4.002862  0  0  -0.086462  -0.126873  0  3.971346  0
C  C34  1  0.04746520  0.09826328  0.59749331  1  0  0.145267  0  3.70207  0  0  0.113704  0  3.956224  0  0  0.121585  0  3.973844  0  0  0.053949  0.108155  0  3.94821  0
C  C35  1  0.45253993  0.40251295  0.90173059  1  0  0.145456  0  3.701992  0  0  0.113936  0  3.956174  0  0  0.121819  0  3.973799  0  0  0.05404  0.108385  0  3.948166  0
C  C36  1  0.95253678  0.90173748  0.40250630  1  0  0.145292  0  3.702086  0  0  0.11373  0  3.956242  0  0  0.121611  0  3.973864  0  0  0.053974  0.108181  0  3.948228  0
C  C37  1  0.54745976  0.59748544  0.09826744  1  0  0.145399  0  3.702033  0  0  0.113871  0  3.956222  0  0  0.121754  0  3.973845  0  0  0.054037  0.108321  0  3.948213  0
C  C38  1  0.82218289  0.56036111  0.36125814  1  0  -0.0952  0  3.728965  0  0  -0.11771  0  3.984309  0  0  -0.121267  0  4.00808  0  0  -0.088426  -0.117171  0  3.971733  0
C  C39  1  0.67782271  0.63874045  0.43963571  1  0  -0.095199  0  3.728965  0  0  -0.117702  0  3.984307  0  0  -0.121258  0  4.008079  0  0  -0.088426  -0.117161  0  3.971728  0
C  C40  1  0.17781767  0.43963963  0.63874075  1  0  -0.09526  0  3.728948  0  0  -0.117766  0  3.984296  0  0  -0.121323  0  4.00807  0  0  -0.088478  -0.117226  0  3.971719  0
C  C41  1  0.32217386  0.36125912  0.56036555  1  0  -0.095221  0  3.729011  0  0  -0.117739  0  3.984363  0  0  -0.121297  0  4.008137  0  0  -0.088438  -0.117198  0  3.971784  0
N  N42  1  0.90205849  0.17424128  0.67110536  1  0  -0.34097  0  3.27399  0  0  -0.272214  0  3.534359  0  0  -0.291276  0  3.555206  0  0  -0.326013  -0.259919  0  3.518386  0
N  N43  1  0.59794820  0.32889575  0.82575750  1  0  -0.340992  0  3.273942  0  0  -0.272262  0  3.534311  0  0  -0.291319  0  3.555145  0  0  -0.326033  -0.259967  0  3.51834  0
N  N44  1  0.09794321  0.82576062  0.32889279  1  0  -0.340998  0  3.274105  0  0  -0.272253  0  3.534483  0  0  -0.291312  0  3.555325  0  0  -0.326043  -0.259958  0  3.518509  0
N  N45  1  0.40205435  0.67110271  0.17424297  1  0  -0.340931  0  3.273964  0  0  -0.272191  0  3.53432  0  0  -0.291251  0  3.555163  0  0  -0.326037  -0.259898  0  3.518351  0
Cl  Cl46  1  0.00796752  0.81976579  0.98104142  1  0  -0.567225  0  0.968042  0  0  -0.505232  0  1.24243  0  0  -0.522386  0  1.221669  0  0  -0.302902  -0.492483  0  1.255144  0
Cl  Cl47  1  0.49203454  0.01895900  0.18023176  1  0  -0.567235  0  0.968038  0  0  -0.50524  0  1.242433  0  0  -0.522398  0  1.221677  0  0  -0.302914  -0.492493  0  1.255148  0
Cl  Cl48  1  0.99203502  0.18023265  0.01895803  1  0  -0.567232  0  0.96804  0  0  -0.505244  0  1.242448  0  0  -0.522401  0  1.221691  0  0  -0.302909  -0.492496  0  1.255164  0
Cl  Cl49  1  0.50796630  0.98104060  0.81976858  1  0  -0.567238  0  0.968062  0  0  -0.50524  0  1.242444  0  0  -0.522395  0  1.221684  0  0  -0.30292  -0.492492  0  1.255158  0
