# generated using pymatgen
data_Zn2H20C25(NO12)2
_symmetry_space_group_name_H-M   'P 1'
_cell_length_a   10.04264901
_cell_length_b   10.70165970
_cell_length_c   11.31365671
_cell_angle_alpha   91.73262057
_cell_angle_beta   99.45144329
_cell_angle_gamma   103.69981824
_symmetry_Int_Tables_number   1
_chemical_formula_structural   Zn2H20C25(NO12)2
_chemical_formula_sum   'Zn2 H20 C25 N2 O24'
_cell_volume   1162.24834716
_cell_formula_units_Z   1
loop_
 _symmetry_equiv_pos_site_id
 _symmetry_equiv_pos_as_xyz
  1  'x, y, z'
loop_
 _atom_site_type_symbol
 _atom_site_label
 _atom_site_symmetry_multiplicity
 _atom_site_fract_x
 _atom_site_fract_y
 _atom_site_fract_z
 _atom_site_occupancy
 _atom_site_pbe_bader_charge
 _atom_site_pbe_bader_spin_density
 _atom_site_pbe_cm5_charge
 _atom_site_pbe_ddec_charge
 _atom_site_pbe_ddec_spin_density
 _atom_site_pbe_ddec_sum_bond_order
 _atom_site_pbe_magmom
Zn  Zn0  1  0.35191014  0.46975846  0.50987286  1  1.313318  0  0.696402  0.883725  0  2.312548  0
Zn  Zn1  1  0.65720628  0.53902650  0.52164114  1  1.312364  0  0.696205  0.868906  0  2.361961  0
H  H2  1  0.43228474  0.85057832  0.32652660  1  0.107694  0  0.113062  0.147589  0  0.958059  0
H  H3  1  0.67193769  0.57493681  0.91967779  1  0.067894  0  0.112752  0.136818  0  1.016714  0
H  H4  1  0.29861966  0.84766392  0.41280788  1  0.066316  0  0.097777  0.106101  0  1.002601  0
H  H5  1  0.68886262  0.15093206  0.61062739  1  0.072043  0  0.113064  0.107808  0  0.985494  0
H  H6  1  0.24014153  0.00086318  0.61613680  1  0.63995  0  0.319896  0.375434  0  0.916205  0
H  H7  1  0.75619996  0.89614527  0.40408732  1  0.603293  0  0.301837  0.332589  0  0.96411  0
H  H8  1  0.41519089  0.09596422  0.21583779  1  0.601818  0  0.300552  0.32892  0  0.972845  0
H  H9  1  0.63545442  0.67476974  0.03651774  1  0.631617  0  0.346875  0.377654  0  0.865758  0
H  H10  1  0.26105807  0.41564924  0.93289336  1  0.660061  0  0.296757  0.330361  0  1.03322  0
H  H11  1  0.23828469  0.34522283  0.20235726  1  0.13484  0  0.12294  0.079893  0  0.965239  0
H  H12  1  0.00698246  0.72244305  0.42457622  1  0.181125  0  0.149511  0.078752  0  0.954535  0
H  H13  1  0.98465923  0.37760244  0.69481513  1  0.650637  0  0.316415  0.349812  0  0.989819  0
H  H14  1  0.23017278  0.29080354  0.66872127  1  0.187036  0  0.144441  0.079714  0  0.982731  0
H  H15  1  0.48458354  0.24515708  0.70277827  1  0.626667  0  0.310705  0.371982  0  0.912792  0
H  H16  1  0.72083986  0.61496510  0.30517692  1  0.672829  0  0.315352  0.37385  0  0.954112  0
H  H17  1  0.48012010  0.96626749  0.82474440  1  0.112033  0  0.11543  0.065043  0  0.946257  0
H  H18  1  0.31821951  0.77042690  0.61201393  1  0.653997  0  0.300967  0.357253  0  0.966345  0
H  H19  1  0.18997160  0.03677317  0.39422676  1  0.123729  0  0.117487  0.075995  0  0.980529  0
H  H20  1  0.70108247  0.21041487  0.35082783  1  0.133056  0  0.110711  0.057656  0  0.974495  0
H  H21  1  0.78850375  0.98930339  0.68983801  1  0.109923  0  0.117985  0.072269  0  0.969782  0
C  C22  1  0.56216394  0.50963847  0.74140058  1  1.554291  0  0.204332  0.662534  0  4.158774  0
C  C23  1  0.50622976  0.88742772  0.52010012  1  -0.000238  0  -0.008928  -0.102758  0  3.719144  0
C  C24  1  0.40463442  0.89789504  0.40283866  1  -0.065993  0  -0.156624  -0.259765  0  3.781542  0
C  C25  1  0.65406956  0.97005663  0.50411130  1  0.496328  0  0.072386  0.205345  0  3.785033  0
C  C26  1  0.56733478  0.53327053  0.87026474  1  0.02189  0  -0.128006  -0.397082  0  3.896361  0
C  C27  1  0.45551464  0.50729519  0.92863342  1  0.595921  0  0.095311  0.261048  0  4.120317  0
C  C28  1  0.40726861  0.48089866  0.14499850  1  0.050844  0  -0.046974  -0.276216  0  3.915831  0
C  C29  1  0.48321471  0.53913163  0.06100257  1  0.494792  0  0.130251  0.269697  0  3.940838  0
C  C30  1  0.94287814  0.51233413  0.55824082  1  1.403269  0  0.270656  0.428633  0  4.028999  0
C  C31  1  0.07043725  0.49097192  0.50703032  1  1.376759  0  0.25831  0.41722  0  4.048926  0
C  C32  1  0.49380016  0.26693945  0.47868985  1  1.565139  0  0.219568  0.593315  0  4.136927  0
C  C33  1  0.45994312  0.51354168  0.27690102  1  1.597426  0  0.225694  0.644596  0  4.120307  0
C  C34  1  0.50615172  0.74503422  0.52998346  1  1.59504  0  0.225843  0.600488  0  4.096445  0
C  C35  1  0.43060298  0.08044041  0.60470753  1  1.015027  0  0.156952  0.423801  0  3.830283  0
C  C36  1  0.44811288  0.93956518  0.62595350  1  0.430065  0  0.063363  0.102046  0  3.756806  0
C  C37  1  0.41380029  0.04131032  0.37515055  1  0.492125  0  0.069061  0.241928  0  3.794238  0
C  C38  1  0.64736807  0.11330707  0.51679902  1  -0.030376  0  -0.091968  -0.16473  0  3.793676  0
C  C39  1  0.49526051  0.12609344  0.49056126  1  0.018372  0  -0.01573  -0.171085  0  3.739469  0
C  C40  1  0.27334216  0.38714157  0.12167289  1  0.86164  0  0.10338  0.30566  0  3.926544  0
C  C41  1  0.14866934  0.34277791  0.64988957  1  1.333671  0  0.220273  0.451747  0  3.944603  0
C  C42  1  0.90273890  0.65839871  0.41011490  1  1.333776  0  0.226647  0.442711  0  3.961793  0
C  C43  1  0.52405465  0.92663320  0.75243631  1  0.942761  0  0.104044  0.268713  0  3.875659  0
C  C44  1  0.26576560  0.05865673  0.33287647  1  0.933604  0  0.105347  0.24228  0  3.852991  0
C  C45  1  0.74637228  0.19279789  0.44272429  1  0.970738  0  0.104943  0.349705  0  3.884361  0
C  C46  1  0.77996261  0.95437387  0.59541418  1  0.948567  0  0.110824  0.252386  0  3.851055  0
N  N47  1  0.86016565  0.57553330  0.48927384  1  -1.293661  0  -0.355876  -0.42842  0  3.515023  0
N  N48  1  0.16173696  0.42311367  0.56239508  1  -1.257552  0  -0.358915  -0.446469  0  3.492546  0
O  O49  1  0.45388902  0.43390735  0.67649190  1  -1.19435  0  -0.327496  -0.608098  0  2.360713  0
O  O50  1  0.66997193  0.56626777  0.70041185  1  -1.135009  0  -0.311452  -0.51652  0  2.264128  0
O  O51  1  0.37695805  0.29324007  0.44907096  1  -1.15078  0  -0.297246  -0.514091  0  2.328775  0
O  O52  1  0.61191977  0.34721699  0.50523007  1  -1.161912  0  -0.29535  -0.524648  0  2.440716  0
O  O53  1  0.36726555  0.52017878  0.33875128  1  -1.148695  0  -0.299843  -0.533524  0  2.356483  0
O  O54  1  0.58862455  0.52360036  0.32052485  1  -1.182742  0  -0.311902  -0.569894  0  2.351679  0
O  O55  1  0.39906682  0.66975849  0.56055732  1  -1.176639  0  -0.305161  -0.546155  0  2.336618  0
O  O56  1  0.60851112  0.70981280  0.50217578  1  -1.159191  0  -0.293907  -0.517398  0  2.456249  0
O  O57  1  0.28954143  0.08220182  0.58777059  1  -1.129398  0  -0.380015  -0.528779  0  2.260182  0
O  O58  1  0.67937041  0.93943870  0.38849947  1  -1.081224  0  -0.383637  -0.473758  0  2.248187  0
O  O59  1  0.48659937  0.07641999  0.27903421  1  -1.106219  0  -0.390248  -0.494462  0  2.236041  0
O  O60  1  0.59728629  0.63368343  0.10404512  1  -1.112872  0  -0.304169  -0.372489  0  2.323682  0
O  O61  1  0.32634349  0.45688540  0.87271505  1  -1.169542  0  -0.330988  -0.415225  0  2.379488  0
O  O62  1  0.19508872  0.35194870  0.02262104  1  -1.090394  0  -0.258911  -0.34532  0  2.215759  0
O  O63  1  0.09448826  0.54461882  0.41523428  1  -1.05668  0  -0.227391  -0.370112  0  2.127091  0
O  O64  1  0.91358301  0.47095331  0.65479267  1  -1.08963  0  -0.235054  -0.367839  0  2.234989  0
O  O65  1  0.05388065  0.31700863  0.71496218  1  -1.10679  0  -0.276429  -0.34591  0  2.331164  0
O  O66  1  0.50517073  0.15980058  0.70871366  1  -1.132288  0  -0.391845  -0.546346  0  2.204143  0
O  O67  1  0.81990466  0.67873474  0.31696894  1  -1.140469  0  -0.27749  -0.351  0  2.327607  0
O  O68  1  0.61250289  0.86536297  0.77349912  1  -1.084745  0  -0.250463  -0.340021  0  2.182084  0
O  O69  1  0.31237405  0.86076235  0.63410588  1  -1.113501  0  -0.379916  -0.505921  0  2.212847  0
O  O70  1  0.23416372  0.08922507  0.23050584  1  -1.098419  0  -0.253878  -0.343725  0  2.176923  0
O  O71  1  0.87099295  0.23084958  0.48278673  1  -1.130266  0  -0.278493  -0.397876  0  2.188269  0
O  O72  1  0.87140393  0.91190487  0.56188450  1  -1.094705  0  -0.260003  -0.346343  0  2.170628  0
