# generated using pymatgen
data_Cu4SiH8(C5N6)4
_symmetry_space_group_name_H-M   'P 1'
_cell_length_a   25.42129298
_cell_length_b   25.49672856
_cell_length_c   25.52207574
_cell_angle_alpha   88.58042979
_cell_angle_beta   89.81124965
_cell_angle_gamma   89.94350855
_symmetry_Int_Tables_number   1
_chemical_formula_structural   Cu4SiH8(C5N6)4
_chemical_formula_sum   'Cu12 Si3 H24 C60 N72'
_cell_volume   16537.21008885
_cell_formula_units_Z   3
loop_
 _symmetry_equiv_pos_site_id
 _symmetry_equiv_pos_as_xyz
  1  'x, y, z'
loop_
 _atom_site_type_symbol
 _atom_site_label
 _atom_site_symmetry_multiplicity
 _atom_site_fract_x
 _atom_site_fract_y
 _atom_site_fract_z
 _atom_site_occupancy
 _atom_site_pbe_bader_charge
 _atom_site_pbe_bader_spin_density
 _atom_site_pbe_cm5_charge
 _atom_site_pbe_ddec_charge
 _atom_site_pbe_ddec_spin_density
 _atom_site_pbe_ddec_sum_bond_order
 _atom_site_pbe_magmom
Cu  Cu0  1  0.23267770  0.85737844  0.77382665  1  0.563554  0  0.50042  0.22236  0  2.078205  0
Cu  Cu1  1  0.14394677  0.77019990  0.77607274  1  0.551551  0  0.500182  0.220673  0  2.089495  0
Cu  Cu2  1  0.22366182  0.77468211  0.87111292  1  0.569757  0  0.49913  0.221954  0  2.076176  0
Cu  Cu3  1  0.23105947  0.13858374  0.22640365  1  0.553484  0  0.499667  0.221744  0  2.078925  0
Cu  Cu4  1  0.14331092  0.22701044  0.22652480  1  0.551203  0  0.500139  0.221414  0  2.086648  0
Cu  Cu5  1  0.22162055  0.22106681  0.12958437  1  0.539439  0  0.499904  0.221828  0  2.081161  0
Cu  Cu6  1  0.77194030  0.14471101  0.76656077  1  0.543726  0  0.500053  0.220286  0  2.090659  0
Cu  Cu7  1  0.86392269  0.22987146  0.76839134  1  0.553788  0  0.499726  0.22266  0  2.072179  0
Cu  Cu8  1  0.76549181  0.23549845  0.84765420  1  0.574913  0  0.500311  0.223478  0  2.081297  0
Cu  Cu9  1  0.77603349  0.86131534  0.23062303  1  0.565024  0  0.49988  0.221454  0  2.083956  0
Cu  Cu10  1  0.86512173  0.77201527  0.23253722  1  0.554675  0  0.50015  0.222636  0  2.074695  0
Cu  Cu11  1  0.76920612  0.76840941  0.15175139  1  0.553173  0  0.500461  0.222498  0  2.084501  0
Si  Si12  1  0.98801604  0.49900358  0.00157089  1  2.703612  0  0.208318  0.597254  0  3.734371  0
Si  Si13  1  0.00229511  0.99903578  0.50169778  1  2.701774  0  0.207542  0.598333  0  3.741088  0
Si  Si14  1  0.50223047  0.99935156  0.99877836  1  2.702237  0  0.206376  0.594302  0  3.745879  0
H  H15  1  0.19633272  0.92683424  0.67378812  1  0.132592  0  0.131587  0.122663  0  0.979119  0
H  H16  1  0.07574603  0.80661621  0.67768446  1  0.13412  0  0.131157  0.122627  0  0.979498  0
H  H17  1  0.31436272  0.81741933  0.94387045  1  0.137302  0  0.131526  0.122896  0  0.980847  0
H  H18  1  0.33353862  0.92130026  0.80804764  1  0.154898  0  0.131811  0.123402  0  0.979639  0
H  H19  1  0.07381728  0.67247665  0.81147878  1  0.134079  0  0.131144  0.122062  0  0.981249  0
H  H20  1  0.18045143  0.67891134  0.94340800  1  0.142213  0  0.131976  0.123235  0  0.979135  0
H  H21  1  0.19463073  0.06858188  0.32606760  1  0.138378  0  0.131626  0.122571  0  0.980125  0
H  H22  1  0.07780854  0.19252985  0.32808184  1  0.132656  0  0.131405  0.12298  0  0.979481  0
H  H23  1  0.31218726  0.17847093  0.05566037  1  0.128653  0  0.131359  0.122266  0  0.980252  0
H  H24  1  0.33254997  0.07510642  0.19159342  1  0.148621  0  0.131664  0.12264  0  0.97889  0
H  H25  1  0.07319210  0.32491444  0.19148990  1  0.11357  0  0.131454  0.122489  0  0.981405  0
H  H26  1  0.17800391  0.31622634  0.05760140  1  0.119832  0  0.131737  0.122774  0  0.980354  0
H  H27  1  0.80892159  0.07645821  0.67127574  1  0.134402  0  0.13137  0.122143  0  0.979901  0
H  H28  1  0.93792020  0.18734830  0.67691372  1  0.14756  0  0.131373  0.122339  0  0.978996  0
H  H29  1  0.66404298  0.19955181  0.91471068  1  0.143855  0  0.131808  0.123447  0  0.977898  0
H  H30  1  0.67962820  0.07003343  0.80883213  1  0.14151  0  0.131741  0.122639  0  0.98022  0
H  H31  1  0.93429029  0.32283369  0.81191013  1  0.1306  0  0.131658  0.122616  0  0.979352  0
H  H32  1  0.79771965  0.33374437  0.91332893  1  0.115776  0  0.13138  0.121738  0  0.981333  0
H  H33  1  0.81440598  0.93071715  0.32436162  1  0.111537  0  0.131364  0.122075  0  0.981016  0
H  H34  1  0.93574967  0.81103546  0.32704096  1  0.135351  0  0.13153  0.122551  0  0.980114  0
H  H35  1  0.66869934  0.80340324  0.08424080  1  0.123056  0  0.131755  0.122841  0  0.979167  0
H  H36  1  0.68406821  0.93588123  0.18632281  1  0.135828  0  0.131187  0.121738  0  0.980367  0
H  H37  1  0.93483508  0.67671474  0.19104390  1  0.138579  0  0.131578  0.122987  0  0.979381  0
H  H38  1  0.80076276  0.66916957  0.08691277  1  0.129263  0  0.131628  0.122477  0  0.980433  0
C  C39  1  0.17160601  0.89303909  0.68239909  1  0.417642  0  0.029274  -0.007421  0  3.917369  0
C  C40  1  0.12517751  0.87745104  0.65735308  1  0.080579  0  -0.030264  -0.095397  0  4.077593  0
C  C41  1  0.10970099  0.83126130  0.68436215  1  0.450446  0  0.028568  -0.008937  0  3.921012  0
C  C42  1  0.31137845  0.83835958  0.90647717  1  0.459993  0  0.028109  -0.009853  0  3.922448  0
C  C43  1  0.34229581  0.87998285  0.88649071  1  -0.003371  0  -0.030152  -0.093642  0  4.079706  0
C  C44  1  0.32129136  0.89156357  0.83665208  1  0.462398  0  0.028338  -0.00961  0  3.921198  0
C  C45  1  0.10457166  0.68169417  0.83911237  1  0.415186  0  0.028398  -0.008049  0  3.921334  0
C  C46  1  0.11571114  0.65748535  0.88789940  1  0.10408  0  -0.030598  -0.09635  0  4.079154  0
C  C47  1  0.15935436  0.68495532  0.90687157  1  0.420999  0  0.028979  -0.007164  0  3.916096  0
C  C48  1  0.17073511  0.10324183  0.31873943  1  0.464311  0  0.028921  -0.00668  0  3.919148  0
C  C49  1  0.12574989  0.12006529  0.34581410  1  0.021845  0  -0.03014  -0.097118  0  4.080099  0
C  C50  1  0.11078734  0.16696636  0.31983529  1  0.423217  0  0.028432  -0.007793  0  3.921355  0
C  C51  1  0.30945973  0.15764095  0.09314188  1  0.450466  0  0.028684  -0.007902  0  3.921678  0
C  C52  1  0.34084118  0.11635128  0.11300166  1  0.040869  0  -0.029983  -0.094748  0  4.081214  0
C  C53  1  0.32003599  0.10473023  0.16303619  1  0.396293  0  0.028649  -0.008127  0  3.919805  0
C  C54  1  0.10348618  0.31514598  0.16334307  1  0.496001  0  0.028131  -0.008699  0  3.923472  0
C  C55  1  0.11419354  0.33882723  0.11415060  1  0.042922  0  -0.029971  -0.095433  0  4.078002  0
C  C56  1  0.15737421  0.31077432  0.09460103  1  0.432613  0  0.028665  -0.007813  0  3.91964  0
C  C57  1  0.83568541  0.10818161  0.67984964  1  0.47327  0  0.028888  -0.006276  0  3.921502  0
C  C58  1  0.88436326  0.12061981  0.65644957  1  0.025268  0  -0.030583  -0.097399  0  4.080492  0
C  C59  1  0.90193008  0.16511848  0.68277387  1  0.406148  0  0.030042  -0.005496  0  3.916605  0
C  C60  1  0.67517196  0.17293232  0.88407511  1  0.418889  0  0.028842  -0.007508  0  3.917926  0
C  C61  1  0.65395705  0.12356218  0.87289064  1  0.051527  0  -0.029319  -0.094098  0  4.078583  0
C  C62  1  0.68332094  0.10630486  0.82981971  1  0.423223  0  0.028563  -0.008217  0  3.92138  0
C  C63  1  0.89678296  0.31808500  0.83186084  1  0.451639  0  0.028794  -0.008068  0  3.918777  0
C  C64  1  0.87614097  0.34631037  0.87389410  1  0.045971  0  -0.03025  -0.096094  0  4.081706  0
C  C65  1  0.82662816  0.32365696  0.88389168  1  0.459888  0  0.028764  -0.005834  0  3.920545  0
C  C66  1  0.83941591  0.89705795  0.31760871  1  0.413136  0  0.028709  -0.007154  0  3.922084  0
C  C67  1  0.88587847  0.88182415  0.34352974  1  0.05629  0  -0.030148  -0.09608  0  4.082541  0
C  C68  1  0.90170175  0.83558458  0.31900546  1  0.464919  0  0.029295  -0.007465  0  3.91968  0
C  C69  1  0.67976803  0.83088156  0.11403277  1  0.42076  0  0.028825  -0.006596  0  3.919278  0
C  C70  1  0.65857404  0.88063052  0.12391259  1  0.072887  0  -0.030214  -0.096798  0  4.07669  0
C  C71  1  0.68782322  0.89900391  0.16636380  1  0.437411  0  0.030059  -0.005206  0  3.918539  0
C  C72  1  0.89800375  0.68244089  0.17032025  1  0.450487  0  0.029466  -0.007598  0  3.91863  0
C  C73  1  0.87774085  0.65457212  0.12802656  1  0.048046  0  -0.030161  -0.09387  0  4.079001  0
C  C74  1  0.82914421  0.67860870  0.11686115  1  0.41858  0  0.028726  -0.007916  0  3.922839  0
C  C75  1  0.09780601  0.90425658  0.61507063  1  0.938557  0  0.244667  0.28494  0  4.000574  0
C  C76  1  0.04471177  0.95627363  0.54562022  1  0.381886  0  0.189153  -0.007072  0  3.943061  0
C  C77  1  0.09894219  0.09362445  0.38879715  1  0.951251  0  0.245506  0.286383  0  4.003526  0
C  C78  1  0.04529784  0.04188749  0.45825662  1  0.394392  0  0.189174  -0.007215  0  3.945024  0
C  C79  1  0.91131620  0.09238850  0.61605037  1  0.945201  0  0.245355  0.285676  0  3.999291  0
C  C80  1  0.96091491  0.04003726  0.54647193  1  0.410632  0  0.189286  -0.006064  0  3.940262  0
C  C81  1  0.91238219  0.90873877  0.38488467  1  0.945846  0  0.245082  0.284962  0  4.005202  0
C  C82  1  0.96160055  0.95865412  0.45612610  1  0.381252  0  0.189043  -0.006646  0  3.938785  0
C  C83  1  0.38543590  0.90582805  0.91176142  1  0.958358  0  0.24518  0.2843  0  4.005261  0
C  C84  1  0.45740402  0.95716567  0.95900920  1  0.407977  0  0.189924  -0.005057  0  3.943925  0
C  C85  1  0.61748959  0.90789772  0.09534383  1  0.945843  0  0.245746  0.287008  0  3.998248  0
C  C86  1  0.54781326  0.95827225  0.04107598  1  0.38184  0  0.189573  -0.004491  0  3.942015  0
C  C87  1  0.38405419  0.09072027  0.08726621  1  0.978638  0  0.245113  0.285333  0  4.001998  0
C  C88  1  0.45659835  0.04022943  0.03937931  1  0.372825  0  0.190309  -0.002492  0  3.943094  0
C  C89  1  0.61290078  0.09541844  0.90083114  1  0.962109  0  0.244963  0.284179  0  4.002143  0
C  C90  1  0.54525561  0.04237755  0.95546263  1  0.387891  0  0.189611  -0.004188  0  3.941827  0
C  C91  1  0.08703833  0.61512596  0.91333407  1  0.945205  0  0.244661  0.283931  0  4.004197  0
C  C92  1  0.03153337  0.54462195  0.96151865  1  0.381844  0  0.18985  -0.004654  0  3.944257  0
C  C93  1  0.90073299  0.38793350  0.90218782  1  0.961336  0  0.245038  0.284992  0  4.004533  0
C  C94  1  0.94740151  0.45665351  0.95765199  1  0.358481  0  0.188941  -0.006393  0  3.93513  0
C  C95  1  0.90175845  0.61198227  0.10044932  1  0.950232  0  0.244454  0.28306  0  4.007188  0
C  C96  1  0.94785383  0.54207250  0.04554001  1  0.361815  0  0.188529  -0.008263  0  3.938268  0
C  C97  1  0.08562969  0.38127462  0.08884278  1  0.90983  0  0.244609  0.286004  0  3.998977  0
C  C98  1  0.03085535  0.45257241  0.04122398  1  0.365625  0  0.18942  -0.0056  0  3.944832  0
N  N99  1  0.14428921  0.82029183  0.72270878  1  -0.820983  0  -0.332195  -0.135842  0  3.737779  0
N  N100  1  0.18278058  0.85865732  0.72149438  1  -0.734323  0  -0.330272  -0.135243  0  3.732739  0
N  N101  1  0.28079375  0.85928318  0.82771780  1  -0.798526  0  -0.330209  -0.135087  0  3.732377  0
N  N102  1  0.27478069  0.82604603  0.87103724  1  -0.783027  0  -0.330263  -0.1358  0  3.734289  0
N  N103  1  0.17299671  0.72283783  0.87194151  1  -0.797671  0  -0.33045  -0.136997  0  3.730759  0
N  N104  1  0.13899546  0.72070730  0.82979793  1  -0.790819  0  -0.331666  -0.135101  0  3.734351  0
N  N105  1  0.14430242  0.17716846  0.28014694  1  -0.789806  0  -0.331911  -0.137022  0  3.736936  0
N  N106  1  0.18164567  0.13763852  0.27953697  1  -0.757252  0  -0.330046  -0.135055  0  3.733372  0
N  N107  1  0.27917195  0.13664775  0.17217174  1  -0.77107  0  -0.330668  -0.135631  0  3.733918  0
N  N108  1  0.27278554  0.16973393  0.12882989  1  -0.782935  0  -0.330815  -0.136846  0  3.738094  0
N  N109  1  0.17116452  0.27309108  0.12959628  1  -0.771694  0  -0.330554  -0.135663  0  3.736509  0
N  N110  1  0.13775092  0.27591416  0.17235624  1  -0.785642  0  -0.331919  -0.136254  0  3.736393  0
N  N111  1  0.86629476  0.17807693  0.71917773  1  -0.78116  0  -0.330412  -0.136615  0  3.732422  0
N  N112  1  0.82518148  0.14262051  0.71740673  1  -0.773294  0  -0.331622  -0.136354  0  3.738181  0
N  N113  1  0.71924727  0.14277376  0.81637572  1  -0.760307  0  -0.331871  -0.134763  0  3.738256  0
N  N114  1  0.71440571  0.18407930  0.85025505  1  -0.797774  0  -0.331002  -0.138219  0  3.731632  0
N  N115  1  0.81845009  0.28479295  0.85036937  1  -0.80424  0  -0.331679  -0.138741  0  3.73413  0
N  N116  1  0.86206473  0.28130200  0.81800833  1  -0.768186  0  -0.328914  -0.133794  0  3.72943  0
N  N117  1  0.86720334  0.82427947  0.28121395  1  -0.814765  0  -0.330586  -0.135816  0  3.733752  0
N  N118  1  0.82847253  0.86249011  0.28037512  1  -0.752213  0  -0.330768  -0.135623  0  3.736645  0
N  N119  1  0.72372648  0.86282626  0.18066104  1  -0.781417  0  -0.331066  -0.135791  0  3.734454  0
N  N120  1  0.71888147  0.82056773  0.14799359  1  -0.77655  0  -0.331494  -0.137961  0  3.731349  0
N  N121  1  0.82109092  0.71785020  0.15001805  1  -0.77332  0  -0.331752  -0.136247  0  3.736366  0
N  N122  1  0.86387904  0.72026366  0.18327103  1  -0.777866  0  -0.329939  -0.136175  0  3.732412  0
N  N123  1  0.11907876  0.94967198  0.59563558  1  -0.554249  0  -0.159868  -0.160668  0  3.15027  0
N  N124  1  0.05259031  0.88231317  0.59760583  1  -0.560846  0  -0.161142  -0.16264  0  3.150244  0
N  N125  1  0.02532055  0.90936994  0.56223617  1  -0.542917  0  -0.148038  -0.095311  0  3.256349  0
N  N126  1  0.09156213  0.97627033  0.56020155  1  -0.549518  0  -0.145817  -0.093434  0  3.263952  0
N  N127  1  0.11845673  0.04655709  0.40583466  1  -0.546081  0  -0.160505  -0.161271  0  3.15271  0
N  N128  1  0.05626005  0.11768594  0.40968502  1  -0.538582  0  -0.161777  -0.163827  0  3.151329  0
N  N129  1  0.02867849  0.09080887  0.44510719  1  -0.563701  0  -0.148332  -0.094972  0  3.258413  0
N  N130  1  0.09057009  0.02007185  0.44118412  1  -0.555098  0  -0.145777  -0.093195  0  3.264193  0
N  N131  1  0.88665202  0.05003594  0.59607138  1  -0.538266  0  -0.160692  -0.162982  0  3.147255  0
N  N132  1  0.96014021  0.10938470  0.60179419  1  -0.559826  0  -0.160119  -0.160817  0  3.150997  0
N  N133  1  0.98535873  0.08230434  0.56623516  1  -0.568475  0  -0.14553  -0.094636  0  3.262178  0
N  N134  1  0.91237947  0.02318304  0.56053959  1  -0.556491  0  -0.147958  -0.093819  0  3.253497  0
N  N135  1  0.95777986  0.88727392  0.40364308  1  -0.563006  0  -0.159611  -0.160843  0  3.152294  0
N  N136  1  0.89064242  0.95421167  0.40146085  1  -0.538235  0  -0.160321  -0.161444  0  3.152295  0
N  N137  1  0.91622529  0.97977369  0.43779042  1  -0.555905  0  -0.148138  -0.09603  0  3.256381  0
N  N138  1  0.98287802  0.91309745  0.44007321  1  -0.532901  0  -0.146393  -0.093443  0  3.259302  0
N  N139  1  0.41279313  0.94238962  0.88321082  1  -0.564183  0  -0.161014  -0.163177  0  3.149246  0
N  N140  1  0.39623947  0.89127483  0.96223788  1  -0.530933  0  -0.159922  -0.159587  0  3.153766  0
N  N141  1  0.43291068  0.91803721  0.98631541  1  -0.571691  0  -0.14817  -0.099215  0  3.261664  0
N  N142  1  0.44956307  0.96880320  0.90771953  1  -0.562897  0  -0.146666  -0.090705  0  3.255107  0
N  N143  1  0.60792574  0.95864503  0.10772855  1  -0.531962  0  -0.159409  -0.159733  0  3.152994  0
N  N144  1  0.59186077  0.88140617  0.05754967  1  -0.554004  0  -0.161097  -0.163313  0  3.148404  0
N  N145  1  0.55617123  0.90744992  0.02978410  1  -0.562715  0  -0.146961  -0.092822  0  3.252592  0
N  N146  1  0.57245330  0.98428411  0.07953446  1  -0.538141  0  -0.147549  -0.098831  0  3.264198  0
N  N147  1  0.39363967  0.10452998  0.03628785  1  -0.559911  0  -0.159168  -0.158705  0  3.15395  0
N  N148  1  0.41251981  0.05505910  0.11574903  1  -0.545041  0  -0.161339  -0.163483  0  3.148298  0
N  N149  1  0.44965267  0.02909390  0.09091597  1  -0.538231  0  -0.147909  -0.093405  0  3.254359  0
N  N150  1  0.43059158  0.07818717  0.01191566  1  -0.545467  0  -0.147743  -0.099955  0  3.266906  0
N  N151  1  0.58641414  0.12080982  0.93899466  1  -0.552738  0  -0.161422  -0.163623  0  3.145638  0
N  N152  1  0.60361713  0.04508106  0.88691728  1  -0.543619  0  -0.159133  -0.158775  0  3.153726  0
N  N153  1  0.56927828  0.01801146  0.91536320  1  -0.561756  0  -0.14734  -0.098355  0  3.263471  0
N  N154  1  0.55178413  0.09337016  0.96697775  1  -0.549254  0  -0.147247  -0.092519  0  3.253665  0
N  N155  1  0.10496126  0.59657002  0.96039951  1  -0.559043  0  -0.160218  -0.16048  0  3.149953  0
N  N156  1  0.04395520  0.59665611  0.88828349  1  -0.553891  0  -0.16062  -0.161533  0  3.153644  0
N  N157  1  0.01539335  0.56077527  0.91336261  1  -0.546746  0  -0.148989  -0.096773  0  3.259701  0
N  N158  1  0.07623007  0.56052047  0.98494062  1  -0.54408  0  -0.146939  -0.095468  0  3.262386  0
N  N159  1  0.94937132  0.40395981  0.88625519  1  -0.540537  0  -0.160038  -0.160146  0  3.148561  0
N  N160  1  0.87341466  0.40842973  0.94276386  1  -0.556196  0  -0.16036  -0.16237  0  3.151273  0
N  N161  1  0.89775981  0.44322980  0.97150105  1  -0.529505  0  -0.147349  -0.092515  0  3.254521  0
N  N162  1  0.97304708  0.43919050  0.91486587  1  -0.554178  0  -0.145342  -0.095172  0  3.262629  0
N  N163  1  0.94937017  0.59420678  0.11735645  1  -0.551455  0  -0.160683  -0.162223  0  3.149696  0
N  N164  1  0.87468652  0.59208804  0.05959031  1  -0.535061  0  -0.15985  -0.161958  0  3.15258  0
N  N165  1  0.89873937  0.55669880  0.03115646  1  -0.533165  0  -0.147087  -0.091597  0  3.254932  0
N  N166  1  0.97277813  0.55837596  0.08901324  1  -0.548105  0  -0.145028  -0.092269  0  3.261101  0
N  N167  1  0.04251321  0.39988341  0.11406102  1  -0.54138  0  -0.160952  -0.162772  0  3.151832  0
N  N168  1  0.10357226  0.39952611  0.04156245  1  -0.520816  0  -0.160231  -0.161407  0  3.148996  0
N  N169  1  0.07525004  0.43603826  0.01734956  1  -0.534335  0  -0.146183  -0.094133  0  3.263499  0
N  N170  1  0.01431903  0.43617322  0.08927018  1  -0.549866  0  -0.148554  -0.096298  0  3.259384  0
