# generated using pymatgen
data_AgH8C7SN5O3
_symmetry_space_group_name_H-M   'P 1'
_cell_length_a   8.97165816
_cell_length_b   8.97162936
_cell_length_c   14.13074639
_cell_angle_alpha   91.10579235
_cell_angle_beta   91.10550500
_cell_angle_gamma   103.75766025
_symmetry_Int_Tables_number   1
_chemical_formula_structural   AgH8C7SN5O3
_chemical_formula_sum   'Ag4 H32 C28 S4 N20 O12'
_cell_volume   1104.21811568
_cell_formula_units_Z   4
loop_
 _symmetry_equiv_pos_site_id
 _symmetry_equiv_pos_as_xyz
  1  'x, y, z'
loop_
 _atom_site_type_symbol
 _atom_site_label
 _atom_site_symmetry_multiplicity
 _atom_site_fract_x
 _atom_site_fract_y
 _atom_site_fract_z
 _atom_site_occupancy
 _atom_site_hle17_bader_spin_density
 _atom_site_hle17_ddec_charge
 _atom_site_hle17_ddec_spin_density
 _atom_site_hle17_ddec_sum_bond_order
 _atom_site_hle17_magmom
 _atom_site_hse06_10hf_bader_spin_density
 _atom_site_hse06_10hf_ddec_charge
 _atom_site_hse06_10hf_ddec_spin_density
 _atom_site_hse06_10hf_ddec_sum_bond_order
 _atom_site_hse06_10hf_magmom
 _atom_site_hse06_bader_spin_density
 _atom_site_hse06_ddec_charge
 _atom_site_hse06_ddec_spin_density
 _atom_site_hse06_ddec_sum_bond_order
 _atom_site_hse06_magmom
 _atom_site_pbe_bader_spin_density
 _atom_site_pbe_cm5_charge
 _atom_site_pbe_ddec_charge
 _atom_site_pbe_ddec_spin_density
 _atom_site_pbe_ddec_sum_bond_order
 _atom_site_pbe_magmom
Ag  Ag0  1  0.85882110  0.85647450  0.78741943  1  0  0.518148  0  1.394818  0  0  0.370143  0  1.821656  0  0  0.401878  0  1.776955  0  0  0.469635  0.348165  0  1.852776  0
Ag  Ag1  1  0.14352624  0.14117708  0.71257945  1  0  0.518123  0  1.394824  0  0  0.370134  0  1.821672  0  0  0.401875  0  1.77697  0  0  0.469635  0.34817  0  1.852764  0
Ag  Ag2  1  0.14117630  0.14352542  0.21258041  1  0  0.518122  0  1.394778  0  0  0.370132  0  1.821619  0  0  0.40187  0  1.776914  0  0  0.469622  0.348151  0  1.852733  0
Ag  Ag3  1  0.85647284  0.85882513  0.28741974  1  0  0.518106  0  1.394815  0  0  0.370107  0  1.82166  0  0  0.401846  0  1.776958  0  0  0.46962  0.348128  0  1.852767  0
H  H4  1  0.08705120  0.68936967  0.24841305  1  0  0.071134  0  0.945459  0  0  0.07949  0  1.009468  0  0  0.08147  0  1.006207  0  0  0.124802  0.077903  0  1.012037  0
H  H5  1  0.31062876  0.91294246  0.25158580  1  0  0.071153  0  0.945399  0  0  0.079503  0  1.009415  0  0  0.081485  0  1.006154  0  0  0.124826  0.077919  0  1.011981  0
H  H6  1  0.91294732  0.31063025  0.75158540  1  0  0.071149  0  0.945354  0  0  0.079513  0  1.009354  0  0  0.081495  0  1.006093  0  0  0.124801  0.077929  0  1.011923  0
H  H7  1  0.68936751  0.08705285  0.74841465  1  0  0.071146  0  0.945411  0  0  0.079494  0  1.009434  0  0  0.081474  0  1.006174  0  0  0.124811  0.077909  0  1.012  0
H  H8  1  0.10831576  0.67995909  0.79194499  1  0  0.107664  0  0.989842  0  0  0.112345  0  1.058608  0  0  0.115411  0  1.054635  0  0  0.135654  0.110269  0  1.061199  0
H  H9  1  0.32004270  0.89168148  0.70805408  1  0  0.107587  0  0.989877  0  0  0.112329  0  1.058584  0  0  0.115395  0  1.054608  0  0  0.135652  0.110254  0  1.061173  0
H  H10  1  0.89168304  0.32004198  0.20805347  1  0  0.107624  0  0.989805  0  0  0.112321  0  1.058563  0  0  0.115387  0  1.05459  0  0  0.135633  0.110245  0  1.06115  0
H  H11  1  0.67995970  0.10832069  0.29194728  1  0  0.107614  0  0.989823  0  0  0.112317  0  1.05858  0  0  0.115382  0  1.054605  0  0  0.135641  0.110238  0  1.061171  0
H  H12  1  0.31106576  0.55032935  0.86223284  1  0  0.116717  0  0.927094  0  0  0.131254  0  0.984596  0  0  0.132941  0  0.983951  0  0  0.122096  0.12975  0  0.985575  0
H  H13  1  0.44966927  0.68892797  0.63776561  1  0  0.116662  0  0.927124  0  0  0.131195  0  0.98464  0  0  0.132882  0  0.983997  0  0  0.122052  0.129691  0  0.985619  0
H  H14  1  0.68893053  0.44967058  0.13776628  1  0  0.116628  0  0.927131  0  0  0.131161  0  0.984656  0  0  0.132846  0  0.984014  0  0  0.122061  0.129659  0  0.985636  0
H  H15  1  0.55033089  0.31107419  0.36223714  1  0  0.116657  0  0.927201  0  0  0.131191  0  0.984723  0  0  0.132878  0  0.984078  0  0  0.122055  0.12969  0  0.985702  0
H  H16  1  0.29412393  0.50527569  0.98515426  1  0  0.082362  0  0.914071  0  0  0.09606  0  0.978101  0  0  0.097158  0  0.977285  0  0  0.113463  0.095468  0  0.978226  0
H  H17  1  0.49472359  0.70586867  0.51484414  1  0  0.082363  0  0.914045  0  0  0.096089  0  0.978037  0  0  0.097187  0  0.977224  0  0  0.113513  0.095498  0  0.978156  0
H  H18  1  0.70587264  0.49472540  0.01484416  1  0  0.082372  0  0.914058  0  0  0.096104  0  0.978046  0  0  0.097204  0  0.97723  0  0  0.113513  0.095515  0  0.978171  0
H  H19  1  0.50527989  0.29413347  0.48515937  1  0  0.082341  0  0.914051  0  0  0.09607  0  0.978055  0  0  0.097166  0  0.977246  0  0  0.113507  0.09548  0  0.978179  0
H  H20  1  0.54371005  0.67546464  0.97532605  1  0  0.123324  0  0.932513  0  0  0.140548  0  0.98431  0  0  0.142617  0  0.984082  0  0  0.109776  0.139043  0  0.984411  0
H  H21  1  0.32453436  0.45628304  0.52467223  1  0  0.123336  0  0.932493  0  0  0.140555  0  0.984304  0  0  0.142627  0  0.984069  0  0  0.109803  0.139053  0  0.9844  0
H  H22  1  0.45628736  0.32453528  0.02467308  1  0  0.123364  0  0.932447  0  0  0.140589  0  0.984247  0  0  0.142658  0  0.984017  0  0  0.109812  0.139084  0  0.984345  0
H  H23  1  0.67547192  0.54371678  0.47532987  1  0  0.123369  0  0.932444  0  0  0.140607  0  0.984219  0  0  0.142674  0  0.98399  0  0  0.109814  0.1391  0  0.984314  0
H  H24  1  0.42664901  0.79287090  0.02297099  1  0  0.149189  0  0.923025  0  0  0.158299  0  0.983601  0  0  0.162061  0  0.981425  0  0  0.112779  0.155444  0  0.985584  0
H  H25  1  0.20712908  0.57334417  0.47702680  1  0  0.149156  0  0.923015  0  0  0.158279  0  0.983595  0  0  0.162027  0  0.981433  0  0  0.112756  0.155429  0  0.98558  0
H  H26  1  0.57334840  0.20712903  0.97702744  1  0  0.149139  0  0.923044  0  0  0.158269  0  0.983611  0  0  0.162016  0  0.981452  0  0  0.112741  0.155414  0  0.985596  0
H  H27  1  0.79287554  0.42665338  0.52297382  1  0  0.149126  0  0.923054  0  0  0.158236  0  0.983649  0  0  0.161987  0  0.981484  0  0  0.112753  0.155379  0  0.985634  0
H  H28  1  0.74429491  0.92917808  0.11298680  1  0  0.340887  0  0.908856  0  0  0.322331  0  0.978065  0  0  0.330499  0  0.970151  0  0  0.299194  0.316102  0  0.984747  0
H  H29  1  0.07082446  0.25570061  0.38701361  1  0  0.340797  0  0.908858  0  0  0.322218  0  0.978111  0  0  0.33039  0  0.970197  0  0  0.299144  0.315986  0  0.984786  0
H  H30  1  0.25570304  0.07082412  0.88701379  1  0  0.340893  0  0.908874  0  0  0.322337  0  0.978078  0  0  0.330506  0  0.970162  0  0  0.299178  0.316105  0  0.984765  0
H  H31  1  0.92917459  0.74429698  0.61298693  1  0  0.340937  0  0.908797  0  0  0.322371  0  0.978013  0  0  0.330541  0  0.970097  0  0  0.299192  0.31614  0  0.984697  0
H  H32  1  0.75674982  0.91139361  0.99163075  1  0  0.342596  0  0.929493  0  0  0.322474  0  0.994137  0  0  0.330481  0  0.988049  0  0  0.296962  0.317173  0  0.997663  0
H  H33  1  0.08860571  0.24324676  0.50837045  1  0  0.342491  0  0.929549  0  0  0.322399  0  0.994148  0  0  0.330407  0  0.988059  0  0  0.296937  0.317099  0  0.997672  0
H  H34  1  0.24324897  0.08860743  0.00836983  1  0  0.342629  0  0.929455  0  0  0.322503  0  0.994102  0  0  0.33051  0  0.988012  0  0  0.296956  0.317205  0  0.99762  0
H  H35  1  0.91139473  0.75675197  0.49163012  1  0  0.342636  0  0.929435  0  0  0.322503  0  0.994093  0  0  0.330509  0  0.988004  0  0  0.296967  0.317204  0  0.997613  0
C  C36  1  0.06285394  0.71016177  0.17456914  1  0  0.295778  0  3.754027  0  0  0.242487  0  4.031551  0  0  0.26039  0  4.043005  0  0  0.160857  0.230942  0  4.02388  0
C  C37  1  0.28983556  0.93714476  0.32542913  1  0  0.295854  0  3.754038  0  0  0.242583  0  4.031525  0  0  0.260486  0  4.042987  0  0  0.160854  0.231026  0  4.023867  0
C  C38  1  0.93714735  0.28983582  0.82543072  1  0  0.295739  0  3.753947  0  0  0.242451  0  4.031471  0  0  0.260353  0  4.042927  0  0  0.160871  0.230905  0  4.023805  0
C  C39  1  0.71016240  0.06285286  0.67456997  1  0  0.29579  0  3.754033  0  0  0.242494  0  4.031549  0  0  0.2604  0  4.043002  0  0  0.160888  0.230939  0  4.023892  0
C  C40  1  0.10053791  0.68817674  0.02141793  1  0  0.294114  0  3.824554  0  0  0.257357  0  4.097056  0  0  0.27224  0  4.113907  0  0  0.219697  0.246884  0  4.08633  0
C  C41  1  0.31182377  0.89945577  0.47857952  1  0  0.294091  0  3.824548  0  0  0.257383  0  4.096965  0  0  0.272268  0  4.113814  0  0  0.219697  0.24691  0  4.086234  0
C  C42  1  0.89945867  0.31182435  0.97858050  1  0  0.294116  0  3.824542  0  0  0.257402  0  4.09698  0  0  0.272289  0  4.113826  0  0  0.219711  0.246925  0  4.086259  0
C  C43  1  0.68817779  0.10054295  0.52142108  1  0  0.294146  0  3.824509  0  0  0.257428  0  4.096954  0  0  0.272315  0  4.113799  0  0  0.219727  0.246957  0  4.086221  0
C  C44  1  0.98281299  0.75839410  0.99509942  1  0  -0.052845  0  3.774508  0  0  -0.049606  0  4.020489  0  0  -0.056141  0  4.044358  0  0  0.075218  -0.044948  0  4.00434  0
C  C45  1  0.24160672  0.01718216  0.50490048  1  0  -0.052959  0  3.774449  0  0  -0.049683  0  4.020406  0  0  -0.056217  0  4.044274  0  0  0.075208  -0.045022  0  4.004253  0
C  C46  1  0.01718637  0.24160467  0.00489901  1  0  -0.052964  0  3.774467  0  0  -0.049702  0  4.020433  0  0  -0.056236  0  4.044298  0  0  0.075185  -0.045038  0  4.004279  0
C  C47  1  0.75839566  0.98281539  0.49510152  1  0  -0.053011  0  3.774431  0  0  -0.049752  0  4.02042  0  0  -0.056288  0  4.04429  0  0  0.075195  -0.045091  0  4.004264  0
C  C48  1  0.90494085  0.81283181  0.07007497  1  0  0.457323  0  3.853503  0  0  0.41921  0  4.11641  0  0  0.441405  0  4.130319  0  0  0.23958  0.403957  0  4.106781  0
C  C49  1  0.18716564  0.09505909  0.42992358  1  0  0.457429  0  3.853493  0  0  0.419266  0  4.116441  0  0  0.441464  0  4.130345  0  0  0.239616  0.404019  0  4.106808  0
C  C50  1  0.09505573  0.18716927  0.92992346  1  0  0.457402  0  3.853325  0  0  0.419269  0  4.116246  0  0  0.441466  0  4.130152  0  0  0.239642  0.40402  0  4.106617  0
C  C51  1  0.81283037  0.90494428  0.57007699  1  0  0.457433  0  3.853176  0  0  0.419299  0  4.116096  0  0  0.441492  0  4.130002  0  0  0.239625  0.404056  0  4.106458  0
C  C52  1  0.08510339  0.69788539  0.86599982  1  0  0.214649  0  3.618291  0  0  0.148292  0  3.889842  0  0  0.165061  0  3.901093  0  0  0.159925  0.13833  0  3.882289  0
C  C53  1  0.30211636  0.91489151  0.63399787  1  0  0.214772  0  3.618514  0  0  0.14837  0  3.890091  0  0  0.165145  0  3.901337  0  0  0.159942  0.138405  0  3.882535  0
C  C54  1  0.91489459  0.30211683  0.13399865  1  0  0.214771  0  3.61845  0  0  0.148415  0  3.890011  0  0  0.165184  0  3.901264  0  0  0.15998  0.138457  0  3.882449  0
C  C55  1  0.69788438  0.08510838  0.36600202  1  0  0.214775  0  3.618431  0  0  0.148408  0  3.890002  0  0  0.165184  0  3.901247  0  0  0.159966  0.13845  0  3.882442  0
C  C56  1  0.30429866  0.59740506  0.93390418  1  0  0.0417  0  3.595023  0  0  -0.022055  0  3.852234  0  0  -0.01689  0  3.862219  0  0  -0.044892  -0.025151  0  3.845103  0
C  C57  1  0.40259386  0.69569453  0.56609435  1  0  0.041719  0  3.594999  0  0  -0.022036  0  3.852197  0  0  -0.016874  0  3.862185  0  0  -0.044911  -0.025135  0  3.845062  0
C  C58  1  0.69569875  0.40259487  0.06609425  1  0  0.041812  0  3.594978  0  0  -0.021962  0  3.852195  0  0  -0.016799  0  3.862182  0  0  -0.044877  -0.02506  0  3.845068  0
C  C59  1  0.59740797  0.30430532  0.43390768  1  0  0.041771  0  3.595106  0  0  -0.022009  0  3.852335  0  0  -0.016847  0  3.862321  0  0  -0.044887  -0.025113  0  3.845208  0
C  C60  1  0.44550628  0.72533389  0.96055860  1  0  -0.328217  0  3.593479  0  0  -0.365032  0  3.85184  0  0  -0.370677  0  3.857644  0  0  -0.155398  -0.361025  0  3.847865  0
C  C61  1  0.27466442  0.55448756  0.53943991  1  0  -0.328193  0  3.593453  0  0  -0.365056  0  3.851887  0  0  -0.370683  0  3.857691  0  0  -0.155434  -0.36106  0  3.84792  0
C  C62  1  0.55449168  0.27466373  0.03943980  1  0  -0.328217  0  3.593429  0  0  -0.36506  0  3.851831  0  0  -0.370692  0  3.857639  0  0  -0.155418  -0.361056  0  3.847858  0
C  C63  1  0.72533935  0.44551115  0.46056142  1  0  -0.328156  0  3.593449  0  0  -0.365005  0  3.851871  0  0  -0.37064  0  3.857676  0  0  -0.155428  -0.360999  0  3.847893  0
S  S64  1  0.50413544  0.85595493  0.86563723  1  0  1.324866  0  5.60403  0  0  1.230852  0  6.129894  0  0  1.276012  0  6.109811  0  0  0.493526  1.199608  0  6.14316  0
S  S65  1  0.14404390  0.49585967  0.63436072  1  0  1.325002  0  5.604047  0  0  1.230942  0  6.129933  0  0  1.276106  0  6.109841  0  0  0.493594  1.1997  0  6.143202  0
S  S66  1  0.49586391  0.14404383  0.13436192  1  0  1.324843  0  5.604161  0  0  1.230826  0  6.13002  0  0  1.275987  0  6.109939  0  0  0.493504  1.199583  0  6.143286  0
S  S67  1  0.85595933  0.50413675  0.36563916  1  0  1.324777  0  5.604251  0  0  1.230703  0  6.130153  0  0  1.275869  0  6.110061  0  0  0.493469  1.199456  0  6.143418  0
N  N68  1  0.95100531  0.78648752  0.16004648  1  0  -0.479619  0  3.292518  0  0  -0.382822  0  3.57264  0  0  -0.411393  0  3.586301  0  0  -0.369233  -0.363639  0  3.562685  0
N  N69  1  0.21351515  0.04898747  0.33995263  1  0  -0.479614  0  3.292606  0  0  -0.382811  0  3.572731  0  0  -0.411385  0  3.5864  0  0  -0.369171  -0.363627  0  3.562777  0
N  N70  1  0.04899126  0.21351356  0.83995266  1  0  -0.479561  0  3.292624  0  0  -0.382768  0  3.572754  0  0  -0.411341  0  3.586421  0  0  -0.369239  -0.363592  0  3.562807  0
N  N71  1  0.78648613  0.95101011  0.66004794  1  0  -0.479639  0  3.292606  0  0  -0.382817  0  3.572715  0  0  -0.411387  0  3.586377  0  0  -0.369236  -0.363645  0  3.562779  0
N  N72  1  0.14372339  0.65914392  0.10925944  1  0  -0.407501  0  3.012021  0  0  -0.376875  0  3.28989  0  0  -0.393349  0  3.300508  0  0  -0.337583  -0.366598  0  3.283881  0
N  N73  1  0.34085635  0.85626957  0.39073929  1  0  -0.407626  0  3.011951  0  0  -0.377028  0  3.289802  0  0  -0.393506  0  3.300427  0  0  -0.337674  -0.366746  0  3.283795  0
N  N74  1  0.85627290  0.34085601  0.89073968  1  0  -0.407484  0  3.011904  0  0  -0.376878  0  3.28976  0  0  -0.393352  0  3.300379  0  0  -0.337594  -0.366595  0  3.283749  0
N  N75  1  0.65914409  0.14372916  0.60926199  1  0  -0.407514  0  3.011862  0  0  -0.3769  0  3.289723  0  0  -0.393376  0  3.300341  0  0  -0.337644  -0.366622  0  3.283714  0
N  N76  1  0.79310564  0.88512229  0.05749307  1  0  -0.650223  0  3.150707  0  0  -0.612176  0  3.386553  0  0  -0.635297  0  3.386145  0  0  -0.565411  -0.595936  0  3.387698  0
N  N77  1  0.11488192  0.20688702  0.44250717  1  0  -0.650049  0  3.15096  0  0  -0.61199  0  3.386757  0  0  -0.635113  0  3.386353  0  0  -0.565359  -0.59575  0  3.387893  0
N  N78  1  0.20689399  0.11487762  0.94250609  1  0  -0.650329  0  3.150574  0  0  -0.612277  0  3.386446  0  0  -0.635399  0  3.386035  0  0  -0.565441  -0.596033  0  3.387589  0
N  N79  1  0.88512185  0.79310710  0.55749338  1  0  -0.650338  0  3.150475  0  0  -0.612296  0  3.386372  0  0  -0.635417  0  3.385961  0  0  -0.56545  -0.596057  0  3.387517  0
N  N80  1  0.97442578  0.76202245  0.89648059  1  0  -0.369429  0  3.290014  0  0  -0.292567  0  3.59528  0  0  -0.313366  0  3.609605  0  0  -0.370985  -0.278243  0  3.585354  0
N  N81  1  0.23797970  0.02557061  0.60351867  1  0  -0.369442  0  3.290096  0  0  -0.292635  0  3.595421  0  0  -0.313437  0  3.609747  0  0  -0.371034  -0.278314  0  3.585496  0
N  N82  1  0.02557218  0.23797977  0.10351859  1  0  -0.369473  0  3.290019  0  0  -0.292651  0  3.59532  0  0  -0.313451  0  3.609646  0  0  -0.371056  -0.278328  0  3.585391  0
N  N83  1  0.76202243  0.97443042  0.39648126  1  0  -0.369448  0  3.289912  0  0  -0.292629  0  3.595232  0  0  -0.31343  0  3.609559  0  0  -0.371083  -0.278311  0  3.585308  0
N  N84  1  0.16377956  0.65172953  0.93859788  1  0  -0.138731  0  3.483851  0  0  -0.048155  0  3.710262  0  0  -0.066632  0  3.733335  0  0  -0.235954  -0.036336  0  3.694816  0
N  N85  1  0.34827038  0.83621612  0.56140172  1  0  -0.138708  0  3.484101  0  0  -0.04814  0  3.710516  0  0  -0.066617  0  3.73359  0  0  -0.23592  -0.036317  0  3.695061  0
N  N86  1  0.83621812  0.34827153  0.06140198  1  0  -0.138759  0  3.484083  0  0  -0.048194  0  3.710486  0  0  -0.066672  0  3.73356  0  0  -0.235931  -0.036375  0  3.69504  0
N  N87  1  0.65172922  0.16378376  0.43859957  1  0  -0.138743  0  3.484102  0  0  -0.048163  0  3.710516  0  0  -0.066641  0  3.733588  0  0  -0.235916  -0.036342  0  3.695064  0
O  O88  1  0.53354824  0.76130656  0.78560923  1  0  -0.675464  0  1.94812  0  0  -0.623851  0  2.201209  0  0  -0.645058  0  2.187384  0  0  -0.354022  -0.609023  0  2.210991  0
O  O89  1  0.23869101  0.46645048  0.71439067  1  0  -0.675489  0  1.948125  0  0  -0.623866  0  2.201218  0  0  -0.645074  0  2.18739  0  0  -0.35402  -0.609044  0  2.211003  0
O  O90  1  0.46645083  0.23869105  0.21438989  1  0  -0.675446  0  1.948176  0  0  -0.623826  0  2.201252  0  0  -0.645034  0  2.187426  0  0  -0.354  -0.609002  0  2.21104  0
O  O91  1  0.76131082  0.53354939  0.28561065  1  0  -0.675421  0  1.948214  0  0  -0.623781  0  2.201296  0  0  -0.644988  0  2.187465  0  0  -0.353975  -0.608952  0  2.211076  0
O  O92  1  0.64495370  0.96762127  0.90097644  1  0  -0.690541  0  1.964295  0  0  -0.631203  0  2.219181  0  0  -0.652674  0  2.205337  0  0  -0.351404  -0.616132  0  2.227936  0
O  O93  1  0.03237839  0.35503908  0.59902427  1  0  -0.690579  0  1.964238  0  0  -0.63122  0  2.219103  0  0  -0.652701  0  2.205287  0  0  -0.351438  -0.61614  0  2.227846  0
O  O94  1  0.35504259  0.03237866  0.09902268  1  0  -0.690572  0  1.964231  0  0  -0.631213  0  2.219104  0  0  -0.652683  0  2.205264  0  0  -0.351409  -0.616138  0  2.227853  0
O  O95  1  0.96762539  0.64495962  0.40097707  1  0  -0.690549  0  1.964252  0  0  -0.631124  0  2.219067  0  0  -0.652599  0  2.205237  0  0  -0.351377  -0.616049  0  2.227816  0
O  O96  1  0.37707253  0.93024637  0.84693357  1  0  -0.687806  0  1.971656  0  0  -0.626758  0  2.220571  0  0  -0.648112  0  2.206762  0  0  -0.348253  -0.611967  0  2.230148  0
O  O97  1  0.06975197  0.62292254  0.65306256  1  0  -0.687926  0  1.971836  0  0  -0.626806  0  2.22072  0  0  -0.648159  0  2.206896  0  0  -0.348267  -0.61202  0  2.230305  0
O  O98  1  0.62292462  0.06975243  0.15306342  1  0  -0.687805  0  1.97177  0  0  -0.626766  0  2.220707  0  0  -0.648115  0  2.206879  0  0  -0.348246  -0.611978  0  2.230286  0
O  O99  1  0.93024987  0.37707734  0.34693735  1  0  -0.687823  0  1.971816  0  0  -0.626763  0  2.220762  0  0  -0.648114  0  2.206933  0  0  -0.348264  -0.611971  0  2.230343  0
