# generated using pymatgen
data_KH8C8NO2
_symmetry_space_group_name_H-M   'P 1'
_cell_length_a   6.98401970
_cell_length_b   8.65800293
_cell_length_c   14.43806632
_cell_angle_alpha   103.17292710
_cell_angle_beta   90.00033876
_cell_angle_gamma   89.99980250
_symmetry_Int_Tables_number   1
_chemical_formula_structural   KH8C8NO2
_chemical_formula_sum   'K4 H32 C32 N4 O8'
_cell_volume   850.06365977
_cell_formula_units_Z   4
loop_
 _symmetry_equiv_pos_site_id
 _symmetry_equiv_pos_as_xyz
  1  'x, y, z'
loop_
 _atom_site_type_symbol
 _atom_site_label
 _atom_site_symmetry_multiplicity
 _atom_site_fract_x
 _atom_site_fract_y
 _atom_site_fract_z
 _atom_site_occupancy
 _atom_site_hle17_bader_spin_density
 _atom_site_hle17_ddec_charge
 _atom_site_hle17_ddec_spin_density
 _atom_site_hle17_ddec_sum_bond_order
 _atom_site_hle17_magmom
 _atom_site_hse06_10hf_bader_spin_density
 _atom_site_hse06_10hf_ddec_charge
 _atom_site_hse06_10hf_ddec_spin_density
 _atom_site_hse06_10hf_ddec_sum_bond_order
 _atom_site_hse06_10hf_magmom
 _atom_site_hse06_bader_spin_density
 _atom_site_hse06_ddec_charge
 _atom_site_hse06_ddec_spin_density
 _atom_site_hse06_ddec_sum_bond_order
 _atom_site_hse06_magmom
 _atom_site_pbe_bader_spin_density
 _atom_site_pbe_cm5_charge
 _atom_site_pbe_ddec_charge
 _atom_site_pbe_ddec_spin_density
 _atom_site_pbe_ddec_sum_bond_order
 _atom_site_pbe_magmom
K  K0  1  0.36256443  0.79581180  0.44388372  1  0  0.914483  0  0.50685  0  0  0.860835  0  0.703227  0  0  0.876938  0  0.679611  0  0  0.802721  0.848819  0  0.720053  0
K  K1  1  0.86256677  0.70418833  0.55611545  1  0  0.91447  0  0.506885  0  0  0.860824  0  0.703246  0  0  0.876926  0  0.679631  0  0  0.802711  0.848807  0  0.720074  0
K  K2  1  0.63743674  0.20418517  0.55611729  1  0  0.914479  0  0.506827  0  0  0.860815  0  0.703213  0  0  0.876918  0  0.679597  0  0  0.802696  0.848798  0  0.720042  0
K  K3  1  0.13743297  0.29581101  0.44388658  1  0  0.914482  0  0.506863  0  0  0.860815  0  0.703268  0  0  0.876915  0  0.679654  0  0  0.802722  0.848797  0  0.720097  0
H  H4  1  0.52677068  0.42725880  0.77639252  1  0  0.266959  0  0.955864  0  0  0.261043  0  1.017683  0  0  0.264496  0  1.016877  0  0  0.272907  0.258634  0  1.018232  0
H  H5  1  0.02676947  0.07274591  0.22360946  1  0  0.266957  0  0.955699  0  0  0.261032  0  1.017544  0  0  0.264474  0  1.016749  0  0  0.272909  0.258624  0  1.018091  0
H  H6  1  0.47322905  0.57274292  0.22360916  1  0  0.266832  0  0.955911  0  0  0.260977  0  1.017673  0  0  0.26443  0  1.016867  0  0  0.272891  0.258571  0  1.018217  0
H  H7  1  0.97322884  0.92725818  0.77639324  1  0  0.266987  0  0.955867  0  0  0.261078  0  1.017691  0  0  0.264535  0  1.016877  0  0  0.27292  0.258669  0  1.018242  0
H  H8  1  0.61767043  0.55662030  0.71898499  1  0  0.267679  0  0.955591  0  0  0.25813  0  1.023625  0  0  0.264096  0  1.017748  0  0  0.280461  0.253855  0  1.027848  0
H  H9  1  0.11767406  0.94338263  0.28101526  1  0  0.267647  0  0.955657  0  0  0.258077  0  1.023722  0  0  0.264044  0  1.017844  0  0  0.280456  0.253803  0  1.027944  0
H  H10  1  0.38232644  0.44338143  0.28101599  1  0  0.267747  0  0.955598  0  0  0.258208  0  1.023619  0  0  0.264178  0  1.017731  0  0  0.280475  0.253931  0  1.027844  0
H  H11  1  0.88232997  0.05662147  0.71898606  1  0  0.267659  0  0.955606  0  0  0.258112  0  1.023647  0  0  0.264079  0  1.017766  0  0  0.280448  0.253836  0  1.027871  0
H  H12  1  0.25493945  0.40009696  0.65699065  1  0  0.065509  0  0.948402  0  0  0.073924  0  1.014242  0  0  0.075845  0  1.013242  0  0  0.114879  0.072496  0  1.015088  0
H  H13  1  0.75493819  0.09989907  0.34300730  1  0  0.065575  0  0.948353  0  0  0.073946  0  1.014176  0  0  0.075887  0  1.013212  0  0  0.114855  0.072518  0  1.015022  0
H  H14  1  0.74505742  0.59990357  0.34301086  1  0  0.065511  0  0.948359  0  0  0.073877  0  1.014215  0  0  0.075826  0  1.013232  0  0  0.11485  0.072467  0  1.015074  0
H  H15  1  0.24505868  0.90009792  0.65699163  1  0  0.065683  0  0.948333  0  0  0.073975  0  1.014197  0  0  0.07596  0  1.013208  0  0  0.114893  0.072541  0  1.015039  0
H  H16  1  0.45822236  0.75938339  0.82593977  1  0  0.087618  0  0.96105  0  0  0.099135  0  1.024352  0  0  0.10223  0  1.022697  0  0  0.100384  0.096762  0  1.025839  0
H  H17  1  0.95822416  0.74061778  0.17405706  1  0  0.087668  0  0.960992  0  0  0.099172  0  1.024301  0  0  0.102273  0  1.022642  0  0  0.100404  0.0968  0  1.025785  0
H  H18  1  0.54177594  0.24061834  0.17406122  1  0  0.087639  0  0.960982  0  0  0.099137  0  1.024305  0  0  0.102232  0  1.022652  0  0  0.100394  0.09679  0  1.025763  0
H  H19  1  0.04178273  0.25938635  0.82594080  1  0  0.087653  0  0.961055  0  0  0.099192  0  1.024329  0  0  0.102296  0  1.022663  0  0  0.100387  0.096819  0  1.025815  0
H  H20  1  0.27177718  0.92229502  0.95795989  1  0  0.084165  0  0.954189  0  0  0.096751  0  1.012172  0  0  0.098957  0  1.01215  0  0  0.097756  0.095177  0  1.012272  0
H  H21  1  0.77178809  0.57770175  0.04203509  1  0  0.08413  0  0.954115  0  0  0.096716  0  1.012102  0  0  0.098924  0  1.01208  0  0  0.097722  0.095139  0  1.012207  0
H  H22  1  0.72820966  0.07770791  0.04203987  1  0  0.084163  0  0.954118  0  0  0.09675  0  1.0121  0  0  0.098956  0  1.012078  0  0  0.097752  0.095173  0  1.012203  0
H  H23  1  0.22822597  0.42229643  0.95796401  1  0  0.084139  0  0.954131  0  0  0.096719  0  1.012121  0  0  0.098925  0  1.012099  0  0  0.097743  0.095142  0  1.012226  0
H  H24  1  0.92783804  0.85671624  0.98060462  1  0  0.082128  0  0.979487  0  0  0.091947  0  1.044766  0  0  0.094106  0  1.044755  0  0  0.09339  0.090405  0  1.044825  0
H  H25  1  0.42784405  0.64327907  0.01938991  1  0  0.08226  0  0.979347  0  0  0.091986  0  1.044714  0  0  0.09414  0  1.044709  0  0  0.093418  0.090443  0  1.044774  0
H  H26  1  0.07215024  0.14328552  0.01939290  1  0  0.082223  0  0.979499  0  0  0.092008  0  1.044801  0  0  0.094172  0  1.044792  0  0  0.093376  0.090465  0  1.044859  0
H  H27  1  0.57216428  0.35671437  0.98060853  1  0  0.082203  0  0.979403  0  0  0.091978  0  1.04472  0  0  0.094133  0  1.044714  0  0  0.093404  0.090435  0  1.044779  0
H  H28  1  0.77345394  0.63412262  0.86612247  1  0  0.078307  0  0.969297  0  0  0.090694  0  1.029584  0  0  0.093406  0  1.028361  0  0  0.096388  0.088615  0  1.030696  0
H  H29  1  0.27346040  0.86587416  0.13387113  1  0  0.078335  0  0.969266  0  0  0.090729  0  1.029547  0  0  0.09343  0  1.028332  0  0  0.096425  0.08865  0  1.03066  0
H  H30  1  0.22653577  0.36587915  0.13387436  1  0  0.078317  0  0.969213  0  0  0.090702  0  1.029511  0  0  0.093412  0  1.028288  0  0  0.096391  0.088622  0  1.030627  0
H  H31  1  0.72654936  0.13412046  0.86612817  1  0  0.078314  0  0.969278  0  0  0.090662  0  1.029608  0  0  0.093373  0  1.028387  0  0  0.096371  0.088584  0  1.030717  0
H  H32  1  0.96262389  0.47199430  0.73104110  1  0  0.101304  0  0.958932  0  0  0.111838  0  1.022034  0  0  0.11572  0  1.019432  0  0  0.111976  0.108987  0  1.024085  0
H  H33  1  0.46262915  0.02800259  0.26895272  1  0  0.101371  0  0.958906  0  0  0.111918  0  1.021982  0  0  0.115802  0  1.019378  0  0  0.112019  0.109072  0  1.024027  0
H  H34  1  0.03737155  0.52800627  0.26895695  1  0  0.101345  0  0.958949  0  0  0.111903  0  1.022008  0  0  0.115787  0  1.019404  0  0  0.111996  0.109049  0  1.024063  0
H  H35  1  0.53737631  0.97199440  0.73104691  1  0  0.101278  0  0.958952  0  0  0.111831  0  1.022024  0  0  0.115714  0  1.019421  0  0  0.111986  0.108967  0  1.024091  0
C  C36  1  0.35714491  0.60450306  0.61058831  1  0  0.663903  0  3.91097  0  0  0.622328  0  4.210635  0  0  0.654168  0  4.203039  0  0  0.191857  0.600681  0  4.214955  0
C  C37  1  0.85714439  0.89549473  0.38940913  1  0  0.664024  0  3.910786  0  0  0.62243  0  4.210399  0  0  0.654311  0  4.202808  0  0  0.191908  0.600782  0  4.214719  0
C  C38  1  0.64285339  0.39549747  0.38941389  1  0  0.664016  0  3.910906  0  0  0.622423  0  4.210523  0  0  0.654301  0  4.202924  0  0  0.191932  0.600797  0  4.214851  0
C  C39  1  0.14285821  0.10450344  0.61059136  1  0  0.664063  0  3.910641  0  0  0.622466  0  4.210219  0  0  0.654361  0  4.202636  0  0  0.191916  0.600811  0  4.214539  0
C  C40  1  0.33844146  0.50683005  0.68787929  1  0  0.018413  0  3.689618  0  0  0.003397  0  3.921743  0  0  0.002518  0  3.933017  0  0  -0.00367  0.00398  0  3.914074  0
C  C41  1  0.83844244  0.99316775  0.31212018  1  0  0.018303  0  3.689802  0  0  0.00347  0  3.921565  0  0  0.002416  0  3.933111  0  0  -0.003603  0.004054  0  3.913896  0
C  C42  1  0.66155541  0.49316928  0.31212413  1  0  0.018389  0  3.68962  0  0  0.003524  0  3.921491  0  0  0.002494  0  3.932988  0  0  -0.003631  0.004005  0  3.913989  0
C  C43  1  0.16156159  0.00683160  0.68788116  1  0  0.018015  0  3.689911  0  0  0.003384  0  3.921514  0  0  0.002239  0  3.933178  0  0  -0.003626  0.004002  0  3.913793  0
C  C44  1  0.22265743  0.60529566  0.76961469  1  0  0.059282  0  3.71382  0  0  0.079261  0  3.943733  0  0  0.079469  0  3.967812  0  0  -0.005101  0.079002  0  3.927543  0
C  C45  1  0.72266069  0.89470117  0.23038293  1  0  0.059226  0  3.713985  0  0  0.079258  0  3.943714  0  0  0.079513  0  3.967821  0  0  -0.005096  0.078997  0  3.927523  0
C  C46  1  0.77733658  0.39470371  0.23038458  1  0  0.05928  0  3.713936  0  0  0.079249  0  3.943776  0  0  0.079496  0  3.967877  0  0  -0.005085  0.079012  0  3.92761  0
C  C47  1  0.27734620  0.10529699  0.76961755  1  0  0.059428  0  3.713794  0  0  0.079275  0  3.943714  0  0  0.079542  0  3.967847  0  0  -0.005047  0.079008  0  3.927512  0
C  C48  1  0.30784202  0.73174546  0.83442132  1  0  -0.113395  0  3.739426  0  0  -0.134175  0  3.986462  0  0  -0.137164  0  4.008041  0  0  -0.092891  -0.132096  0  3.972046  0
C  C49  1  0.80784217  0.76825122  0.16557652  1  0  -0.113449  0  3.739435  0  0  -0.134255  0  3.986456  0  0  -0.137251  0  4.008025  0  0  -0.092898  -0.132173  0  3.972039  0
C  C50  1  0.69215771  0.26825153  0.16557900  1  0  -0.113466  0  3.739437  0  0  -0.134245  0  3.986482  0  0  -0.137236  0  4.008051  0  0  -0.092923  -0.132182  0  3.972047  0
C  C51  1  0.19216472  0.23174696  0.83442258  1  0  -0.113573  0  3.73955  0  0  -0.13437  0  3.986646  0  0  -0.137364  0  4.008212  0  0  -0.092936  -0.13229  0  3.97223  0
C  C52  1  0.20231423  0.82355329  0.90906100  1  0  -0.075373  0  3.806194  0  0  -0.086252  0  4.054147  0  0  -0.08806  0  4.076456  0  0  -0.095462  -0.08494  0  4.038912  0
C  C53  1  0.70232245  0.67644002  0.09093537  1  0  -0.075308  0  3.806032  0  0  -0.086183  0  4.053966  0  0  -0.087991  0  4.076277  0  0  -0.095497  -0.084872  0  4.03873  0
C  C54  1  0.79767834  0.17644609  0.09093688  1  0  -0.0753  0  3.80607  0  0  -0.086169  0  4.054015  0  0  -0.087976  0  4.076324  0  0  -0.095468  -0.084859  0  4.038787  0
C  C55  1  0.29768445  0.32355697  0.90906357  1  0  -0.075212  0  3.805899  0  0  -0.086079  0  4.053846  0  0  -0.087886  0  4.076157  0  0  -0.095421  -0.084768  0  4.038611  0
C  C56  1  0.00978342  0.78842326  0.92088357  1  0  -0.10332  0  3.806266  0  0  -0.11575  0  4.051168  0  0  -0.11792  0  4.072677  0  0  -0.104673  -0.114221  0  4.036484  0
C  C57  1  0.50978848  0.71157044  0.07910816  1  0  -0.103452  0  3.806016  0  0  -0.11581  0  4.05095  0  0  -0.117977  0  4.072449  0  0  -0.104649  -0.11428  0  4.036268  0
C  C58  1  0.99020915  0.21157734  0.07911102  1  0  -0.103453  0  3.806288  0  0  -0.115867  0  4.051184  0  0  -0.118048  0  4.072697  0  0  -0.104672  -0.114338  0  4.036502  0
C  C59  1  0.49021985  0.28842538  0.92088923  1  0  -0.103415  0  3.806031  0  0  -0.11581  0  4.05094  0  0  -0.117978  0  4.072443  0  0  -0.104689  -0.114281  0  4.03626  0
C  C60  1  0.92330162  0.66241395  0.85637825  1  0  -0.079963  0  3.806492  0  0  -0.088605  0  4.048082  0  0  -0.090262  0  4.069163  0  0  -0.096754  -0.087351  0  4.033865  0
C  C61  1  0.42330832  0.83758376  0.14361522  1  0  -0.07991  0  3.806506  0  0  -0.088566  0  4.048091  0  0  -0.090213  0  4.069176  0  0  -0.096844  -0.087315  0  4.033872  0
C  C62  1  0.07668809  0.33758781  0.14361928  1  0  -0.079931  0  3.80634  0  0  -0.088569  0  4.04791  0  0  -0.090224  0  4.068998  0  0  -0.096771  -0.087316  0  4.03369  0
C  C63  1  0.57670143  0.16241205  0.85638355  1  0  -0.080044  0  3.80651  0  0  -0.08865  0  4.048091  0  0  -0.090309  0  4.069171  0  0  -0.096791  -0.087397  0  4.033871  0
C  C64  1  0.02848143  0.57202770  0.78084927  1  0  -0.128841  0  3.742329  0  0  -0.148954  0  3.988394  0  0  -0.15125  0  4.008366  0  0  -0.087868  -0.147308  0  3.974877  0
C  C65  1  0.52848584  0.92796834  0.21914283  1  0  -0.128938  0  3.742463  0  0  -0.149091  0  3.988524  0  0  -0.151384  0  4.008478  0  0  -0.087874  -0.147459  0  3.975032  0
C  C66  1  0.97151401  0.42797287  0.21914809  1  0  -0.128882  0  3.742385  0  0  -0.14902  0  3.988444  0  0  -0.151315  0  4.008401  0  0  -0.087852  -0.147369  0  3.974922  0
C  C67  1  0.47152248  0.07202866  0.78085541  1  0  -0.128743  0  3.742325  0  0  -0.14885  0  3.988386  0  0  -0.15114  0  4.008341  0  0  -0.087855  -0.147197  0  3.974886  0
N  N68  1  0.52991025  0.46024755  0.71279223  1  0  -0.695389  0  3.043564  0  0  -0.679551  0  3.277492  0  0  -0.692293  0  3.276443  0  0  -0.698155  -0.670284  0  3.278033  0
N  N69  1  0.02991281  0.03975597  0.28720959  1  0  -0.695329  0  3.043437  0  0  -0.679523  0  3.277356  0  0  -0.692199  0  3.276383  0  0  -0.698168  -0.670255  0  3.277893  0
N  N70  1  0.47008519  0.53975416  0.28721014  1  0  -0.695335  0  3.043593  0  0  -0.679612  0  3.277389  0  0  -0.692313  0  3.276385  0  0  -0.698169  -0.670317  0  3.277963  0
N  N71  1  0.97008978  0.96024812  0.71279311  1  0  -0.695335  0  3.043636  0  0  -0.679613  0  3.277437  0  0  -0.69229  0  3.276479  0  0  -0.698188  -0.670354  0  3.277967  0
O  O72  1  0.21929416  0.59427252  0.55198359  1  0  -0.781705  0  1.969251  0  0  -0.733351  0  2.215898  0  0  -0.758009  0  2.205066  0  0  -0.535898  -0.715862  0  2.222797  0
O  O73  1  0.71929718  0.90572905  0.44801538  1  0  -0.781696  0  1.969253  0  0  -0.733361  0  2.215906  0  0  -0.758013  0  2.205051  0  0  -0.535898  -0.715871  0  2.222803  0
O  O74  1  0.78070557  0.40573155  0.44802049  1  0  -0.781797  0  1.969179  0  0  -0.733444  0  2.215817  0  0  -0.758099  0  2.204965  0  0  -0.535965  -0.71595  0  2.222704  0
O  O75  1  0.28070542  0.09427031  0.55198458  1  0  -0.78173  0  1.969158  0  0  -0.733405  0  2.215817  0  0  -0.758054  0  2.204956  0  0  -0.535926  -0.715916  0  2.22272  0
O  O76  1  0.50395132  0.69115318  0.61334871  1  0  -0.711798  0  1.924156  0  0  -0.662653  0  2.161205  0  0  -0.687002  0  2.150455  0  0  -0.442236  -0.645353  0  2.168033  0
O  O77  1  0.00395252  0.80884284  0.38664955  1  0  -0.711854  0  1.923891  0  0  -0.662735  0  2.160956  0  0  -0.687078  0  2.150185  0  0  -0.442293  -0.645435  0  2.167786  0
O  O78  1  0.49604555  0.30884971  0.38665451  1  0  -0.711792  0  1.924124  0  0  -0.662672  0  2.161213  0  0  -0.687017  0  2.15044  0  0  -0.442254  -0.645369  0  2.168034  0
O  O79  1  0.99605151  0.19115651  0.61335179  1  0  -0.711833  0  1.923845  0  0  -0.662712  0  2.160906  0  0  -0.687051  0  2.150128  0  0  -0.442295  -0.645413  0  2.16774  0
