# generated using pymatgen
data_Dy2P2H16C14N2O19
_symmetry_space_group_name_H-M   'P 1'
_cell_length_a   11.47698752
_cell_length_b   14.62567231
_cell_length_c   16.31673954
_cell_angle_alpha   90.00010528
_cell_angle_beta   90.00028880
_cell_angle_gamma   89.99957480
_symmetry_Int_Tables_number   1
_chemical_formula_structural   Dy2P2H16C14N2O19
_chemical_formula_sum   'Dy8 P8 H64 C56 N8 O76'
_cell_volume   2738.90601188
_cell_formula_units_Z   4
loop_
 _symmetry_equiv_pos_site_id
 _symmetry_equiv_pos_as_xyz
  1  'x, y, z'
loop_
 _atom_site_type_symbol
 _atom_site_label
 _atom_site_symmetry_multiplicity
 _atom_site_fract_x
 _atom_site_fract_y
 _atom_site_fract_z
 _atom_site_occupancy
 _atom_site_pbe_bader_charge
 _atom_site_pbe_bader_spin_density
 _atom_site_pbe_cm5_charge
 _atom_site_pbe_ddec_charge
 _atom_site_pbe_ddec_spin_density
 _atom_site_pbe_ddec_sum_bond_order
 _atom_site_pbe_magmom
Dy  Dy0  1  0.72617656  0.25881667  0.56703206  1  2.175385  0  1.500586  2.047448  0  2.170196  0
Dy  Dy1  1  0.77382347  0.74118564  0.06703559  1  2.175416  0  1.500568  2.04744  0  2.170203  0
Dy  Dy2  1  0.27382334  0.75881657  0.93296936  1  2.175462  0  1.500552  2.047483  0  2.170226  0
Dy  Dy3  1  0.22617474  0.24118324  0.43296761  1  2.17558  0  1.500552  2.047492  0  2.170226  0
Dy  Dy4  1  0.75848371  0.20102339  0.94703813  1  2.187985  0  1.519847  2.066089  0  2.172734  0
Dy  Dy5  1  0.74151730  0.79897697  0.44703551  1  2.188001  0  1.519883  2.066088  0  2.172719  0
Dy  Dy6  1  0.24152109  0.70102406  0.55295890  1  2.188086  0  1.519889  2.066133  0  2.172758  0
Dy  Dy7  1  0.25847949  0.29897702  0.05296533  1  2.187999  0  1.519827  2.066086  0  2.172658  0
P  P8  1  0.73187734  0.18408669  0.17447196  1  3.387241  0  0.376065  1.333415  0  5.353568  0
P  P9  1  0.76811561  0.81591310  0.67447010  1  3.387515  0  0.376173  1.33378  0  5.353154  0
P  P10  1  0.26812577  0.68408435  0.32552869  1  3.387228  0  0.37612  1.333637  0  5.353425  0
P  P11  1  0.23187939  0.31591181  0.82552773  1  3.386932  0  0.376065  1.333529  0  5.353317  0
P  P12  1  0.68030974  0.04539607  0.45713178  1  3.403273  0  0.380533  1.375731  0  5.292867  0
P  P13  1  0.81969222  0.95460294  0.95713033  1  3.403265  0  0.380567  1.375758  0  5.2928  0
P  P14  1  0.31969121  0.54539559  0.04286926  1  3.403236  0  0.380477  1.375716  0  5.292846  0
P  P15  1  0.18030930  0.45460615  0.54287018  1  3.403287  0  0.380566  1.375833  0  5.292897  0
H  H16  1  0.58955775  0.24436954  0.24784242  1  0.643759  0  0.3457  0.409851  0  0.861567  0
H  H17  1  0.91044184  0.75563041  0.74783729  1  0.643829  0  0.345744  0.409943  0  0.861517  0
H  H18  1  0.41044392  0.74436691  0.25215710  1  0.643768  0  0.345698  0.409846  0  0.861588  0
H  H19  1  0.08955896  0.25563116  0.75215554  1  0.643724  0  0.345684  0.409875  0  0.861549  0
H  H20  1  0.52776276  0.96126758  0.46212958  1  0.643936  0  0.311316  0.387321  0  0.951236  0
H  H21  1  0.97223488  0.03873691  0.96213514  1  0.643882  0  0.311289  0.387305  0  0.95128  0
H  H22  1  0.47223423  0.46126362  0.03786968  1  0.643875  0  0.311298  0.38729  0  0.951288  0
H  H23  1  0.02776624  0.53873673  0.53787081  1  0.643864  0  0.3113  0.387316  0  0.951264  0
H  H24  1  0.70899840  0.47993336  0.53222930  1  0.64802  0  0.350421  0.451307  0  0.817128  0
H  H25  1  0.79100138  0.52006546  0.03223069  1  0.648015  0  0.350408  0.4513  0  0.817138  0
H  H26  1  0.29100375  0.97993255  0.96777064  1  0.64803  0  0.350449  0.451372  0  0.817075  0
H  H27  1  0.20900068  0.02007280  0.46777215  1  0.647882  0  0.350415  0.451199  0  0.81728  0
H  H28  1  0.72720054  0.44344140  0.62296373  1  0.66038  0  0.326504  0.419807  0  0.881554  0
H  H29  1  0.77279902  0.55656034  0.12296327  1  0.659998  0  0.32649  0.419746  0  0.881632  0
H  H30  1  0.27279847  0.94343435  0.87703738  1  0.660125  0  0.326513  0.419791  0  0.881587  0
H  H31  1  0.22720182  0.05656192  0.37703533  1  0.659983  0  0.326526  0.419825  0  0.881535  0
H  H32  1  0.76063334  0.97555737  0.30485532  1  0.517748  0  0.311347  0.255997  0  0.97713  0
H  H33  1  0.73936753  0.02444270  0.80485575  1  0.517754  0  0.31137  0.256032  0  0.977085  0
H  H34  1  0.23937223  0.47555919  0.19514580  1  0.517772  0  0.311347  0.255923  0  0.977298  0
H  H35  1  0.26062937  0.52444150  0.69514467  1  0.517756  0  0.311358  0.255942  0  0.97725  0
H  H36  1  0.13642388  0.83442784  0.25988311  1  0.580952  0  0.311433  0.301661  0  1.00013  0
H  H37  1  0.36357557  0.16557229  0.75988237  1  0.580945  0  0.311446  0.30168  0  1.000187  0
H  H38  1  0.86358564  0.33442887  0.24011411  1  0.580903  0  0.311483  0.301701  0  1.000092  0
H  H39  1  0.63641911  0.66557174  0.74011828  1  0.580964  0  0.311469  0.301726  0  1.000121  0
H  H40  1  0.65619017  0.03050083  0.19590245  1  0.114641  0  0.138173  0.170071  0  0.932075  0
H  H41  1  0.84380555  0.96949627  0.69590050  1  0.114561  0  0.138182  0.170053  0  0.932064  0
H  H42  1  0.34381266  0.53050416  0.30409795  1  0.114688  0  0.138166  0.170097  0  0.932004  0
H  H43  1  0.15618799  0.46949606  0.80409758  1  0.114537  0  0.138161  0.170068  0  0.932031  0
H  H44  1  0.80461144  0.02890797  0.17048832  1  0.126231  0  0.130393  0.159453  0  0.987615  0
H  H45  1  0.69538584  0.97109182  0.67048953  1  0.126325  0  0.130393  0.159423  0  0.98762  0
H  H46  1  0.19539053  0.52890743  0.32950962  1  0.126278  0  0.130412  0.159459  0  0.98761  0
H  H47  1  0.30460855  0.47108875  0.82951040  1  0.1263  0  0.130418  0.159447  0  0.987626  0
H  H48  1  0.59548369  0.08365152  0.32480682  1  0.069644  0  0.129269  0.153438  0  0.964969  0
H  H49  1  0.90451645  0.91635201  0.82480500  1  0.069619  0  0.12926  0.15343  0  0.964974  0
H  H50  1  0.40452212  0.58365150  0.17519428  1  0.069557  0  0.129256  0.15341  0  0.96496  0
H  H51  1  0.09548195  0.41634709  0.67519423  1  0.0696  0  0.129244  0.153379  0  0.964989  0
H  H52  1  0.70150948  0.16670931  0.35526414  1  0.114557  0  0.12761  0.150422  0  1.013094  0
H  H53  1  0.79849872  0.83328745  0.85526119  1  0.114542  0  0.1276  0.150486  0  1.01301  0
H  H54  1  0.29849902  0.66671052  0.14473587  1  0.114557  0  0.127608  0.150493  0  1.013043  0
H  H55  1  0.20150483  0.33328801  0.64473667  1  0.114516  0  0.127597  0.150444  0  1.013031  0
H  H56  1  0.90105379  0.05061427  0.38450247  1  0.120766  0  0.132489  0.130474  0  0.961528  0
H  H57  1  0.59894852  0.94938323  0.88450391  1  0.120679  0  0.132472  0.130444  0  0.961512  0
H  H58  1  0.09895233  0.55061726  0.11549429  1  0.12055  0  0.13254  0.130541  0  0.961454  0
H  H59  1  0.40105131  0.44938258  0.61549659  1  0.120555  0  0.132479  0.130458  0  0.961527  0
H  H60  1  0.89967555  0.14798203  0.31728078  1  0.13686  0  0.122941  0.13498  0  1.003586  0
H  H61  1  0.60032454  0.85201669  0.81728023  1  0.137201  0  0.122944  0.134986  0  1.003622  0
H  H62  1  0.10032704  0.64798310  0.18271797  1  0.136822  0  0.122912  0.13495  0  1.003575  0
H  H63  1  0.39967709  0.35201755  0.68272011  1  0.137201  0  0.122925  0.134937  0  1.003629  0
H  H64  1  0.99406834  0.13588508  0.17805827  1  0.131642  0  0.122076  0.122696  0  0.982157  0
H  H65  1  0.50592638  0.86411199  0.67806231  1  0.131583  0  0.122069  0.122711  0  0.982146  0
H  H66  1  0.00592652  0.63588972  0.32193495  1  0.131582  0  0.122071  0.122681  0  0.982216  0
H  H67  1  0.49407077  0.36411396  0.82194050  1  0.131634  0  0.122083  0.122683  0  0.982168  0
H  H68  1  0.13958810  0.05377910  0.09180111  1  0.165026  0  0.121557  0.137352  0  1.008529  0
H  H69  1  0.36040753  0.94621522  0.59180347  1  0.164765  0  0.121546  0.137325  0  1.008513  0
H  H70  1  0.86040667  0.55378376  0.40819014  1  0.164225  0  0.121563  0.137463  0  1.008449  0
H  H71  1  0.63958797  0.44621926  0.90820193  1  0.164964  0  0.121534  0.137347  0  1.008457  0
H  H72  1  0.20610694  0.89501755  0.13751202  1  0.187837  0  0.140592  0.123077  0  0.985867  0
H  H73  1  0.29389337  0.10498165  0.63751155  1  0.187853  0  0.140586  0.123054  0  0.985865  0
H  H74  1  0.79389416  0.39502060  0.36248346  1  0.187954  0  0.1406  0.123118  0  0.985823  0
H  H75  1  0.70610189  0.60498027  0.86249084  1  0.18774  0  0.140604  0.12311  0  0.985863  0
H  H76  1  0.99914152  0.90690005  0.34582221  1  0.22615  0  0.133764  0.125544  0  1.048982  0
H  H77  1  0.50085703  0.09310078  0.84582558  1  0.226118  0  0.133755  0.125554  0  1.048935  0
H  H78  1  0.00086731  0.40689974  0.15417268  1  0.226051  0  0.133773  0.125488  0  1.048923  0
H  H79  1  0.49913922  0.59310222  0.65417618  1  0.226099  0  0.133764  0.125544  0  1.048937  0
C  C80  1  0.73968583  0.06455442  0.20800676  1  -0.315568  0  -0.065778  -0.386907  0  3.752215  0
C  C81  1  0.76030998  0.93544339  0.70800753  1  -0.31565  0  -0.065806  -0.386864  0  3.75219  0
C  C82  1  0.26031580  0.56455479  0.29199247  1  -0.315688  0  -0.065781  -0.386911  0  3.752169  0
C  C83  1  0.23968475  0.43544335  0.79199173  1  -0.315612  0  -0.065787  -0.386837  0  3.752148  0
C  C84  1  0.68203607  0.09328231  0.35201523  1  -0.236268  0  -0.069635  -0.398283  0  3.741606  0
C  C85  1  0.81796514  0.90671786  0.85201370  1  -0.236286  0  -0.06961  -0.398348  0  3.741716  0
C  C86  1  0.31796878  0.59328273  0.14798588  1  -0.236283  0  -0.069646  -0.398384  0  3.741713  0
C  C87  1  0.18203423  0.40671649  0.64798550  1  -0.236336  0  -0.069626  -0.398266  0  3.741665  0
C  C88  1  0.89225236  0.07351164  0.32080715  1  0.204503  0  -0.052223  -0.129304  0  3.749978  0
C  C89  1  0.60774775  0.92648641  0.82080920  1  0.204216  0  -0.052164  -0.129165  0  3.749856  0
C  C90  1  0.10774919  0.57351334  0.17919026  1  0.20462  0  -0.05218  -0.129255  0  3.749862  0
C  C91  1  0.39225317  0.42648663  0.67919188  1  0.204429  0  -0.052192  -0.1292  0  3.749954  0
C  C92  1  0.98167132  0.02769599  0.26750618  1  0.054165  0  0.006887  0.057745  0  3.953084  0
C  C93  1  0.51832927  0.97230400  0.76750983  1  0.054481  0  0.006835  0.057677  0  3.953084  0
C  C94  1  0.01833153  0.52769627  0.23248870  1  0.054319  0  0.00674  0.057564  0  3.953365  0
C  C95  1  0.48166947  0.47230722  0.73249316  1  0.054097  0  0.006864  0.057639  0  3.953182  0
C  C96  1  0.02455038  0.06799017  0.19562619  1  -0.035011  0  -0.039104  -0.043446  0  3.853227  0
C  C97  1  0.47544426  0.93200436  0.69563200  1  -0.035156  0  -0.039031  -0.043488  0  3.853183  0
C  C98  1  0.97544774  0.56799531  0.30436508  1  -0.034715  0  -0.038958  -0.043336  0  3.853266  0
C  C99  1  0.52455051  0.43200749  0.80437276  1  -0.03496  0  -0.039044  -0.043339  0  3.853139  0
C  C100  1  0.10615720  0.02234548  0.14736237  1  -0.014735  0  -0.059063  -0.084998  0  3.919348  0
C  C101  1  0.39384493  0.97765373  0.64736428  1  -0.014586  0  -0.059013  -0.08484  0  3.919173  0
C  C102  1  0.89384048  0.52234983  0.35262883  1  -0.014326  0  -0.059093  -0.085138  0  3.91938  0
C  C103  1  0.60615637  0.47765443  0.85263872  1  -0.014746  0  -0.058996  -0.084877  0  3.919241  0
C  C104  1  0.14518583  0.93709993  0.17205991  1  0.449103  0  0.083577  0.1106  0  3.816711  0
C  C105  1  0.35481038  0.06289592  0.67206019  1  0.44914  0  0.083549  0.110541  0  3.816571  0
C  C106  1  0.85481662  0.43710461  0.32793748  1  0.449165  0  0.083567  0.110508  0  3.816671  0
C  C107  1  0.64518093  0.56289892  0.82794213  1  0.449239  0  0.083542  0.110467  0  3.816821  0
C  C108  1  0.02553723  0.94254972  0.28980749  1  0.386465  0  0.071715  0.038768  0  3.807271  0
C  C109  1  0.47445982  0.05744843  0.78980818  1  0.386474  0  0.07166  0.038704  0  3.807271  0
C  C110  1  0.97446516  0.44255210  0.21018807  1  0.387115  0  0.071747  0.03892  0  3.807157  0
C  C111  1  0.52553676  0.55744983  0.71019167  1  0.386423  0  0.071683  0.038767  0  3.807268  0
C  C112  1  0.50015601  0.26382553  0.45345873  1  1.584366  0  0.20732  0.495737  0  4.261326  0
C  C113  1  0.99985115  0.73616938  0.95346369  1  1.584718  0  0.20728  0.495721  0  4.261309  0
C  C114  1  0.49985331  0.76382879  0.04654328  1  1.583735  0  0.207294  0.49574  0  4.261396  0
C  C115  1  0.00014461  0.23617432  0.54653892  1  1.584488  0  0.207326  0.495808  0  4.26136  0
C  C116  1  0.45487104  0.24024734  0.54079899  1  1.603081  0  0.214779  0.501418  0  4.242302  0
C  C117  1  0.04513120  0.75975165  0.04080358  1  1.603101  0  0.214827  0.501507  0  4.2425  0
C  C118  1  0.54514037  0.74024367  0.95919994  1  1.602836  0  0.21468  0.501205  0  4.242163  0
C  C119  1  0.95485551  0.25975534  0.45919964  1  1.602769  0  0.214683  0.501208  0  4.242293  0
C  C120  1  0.74225497  0.18214273  0.74913581  1  1.580551  0  0.220771  0.493695  0  4.220835  0
C  C121  1  0.75774724  0.81785722  0.24913756  1  1.580001  0  0.220771  0.493678  0  4.220592  0
C  C122  1  0.25774915  0.68214098  0.75086119  1  1.579998  0  0.220793  0.493693  0  4.220698  0
C  C123  1  0.24224763  0.31785845  0.25086760  1  1.58057  0  0.220683  0.493557  0  4.221076  0
C  C124  1  0.74841990  0.28635195  0.76351623  1  1.615277  0  0.217385  0.510726  0  4.248799  0
C  C125  1  0.75158241  0.71365008  0.26351473  1  1.615509  0  0.217297  0.51055  0  4.248921  0
C  C126  1  0.25158235  0.78635158  0.73648033  1  1.615238  0  0.217384  0.510712  0  4.248468  0
C  C127  1  0.24841520  0.21364851  0.23648842  1  1.615667  0  0.217418  0.510784  0  4.248661  0
C  C128  1  0.53161895  0.30210151  0.01229470  1  1.588  0  0.220017  0.498531  0  4.229523  0
C  C129  1  0.96838940  0.69789522  0.51229274  1  1.588022  0  0.220062  0.498642  0  4.229159  0
C  C130  1  0.46838566  0.80211133  0.48771289  1  1.588077  0  0.22007  0.49865  0  4.229208  0
C  C131  1  0.03161195  0.19789337  0.98771777  1  1.587997  0  0.220109  0.498686  0  4.229347  0
C  C132  1  0.48810102  0.20698838  0.98384526  1  1.616445  0  0.216617  0.501733  0  4.249985  0
C  C133  1  0.01189395  0.79301085  0.48384427  1  1.616422  0  0.216508  0.501511  0  4.250185  0
C  C134  1  0.51189501  0.70699219  0.51615301  1  1.616457  0  0.216531  0.501637  0  4.249921  0
C  C135  1  0.98810029  0.29301275  0.01615717  1  1.616395  0  0.216552  0.501575  0  4.250329  0
N  N136  1  0.76860584  0.04826937  0.29647300  1  -0.977249  0  -0.33244  0.07404  0  3.572458  0
N  N137  1  0.73139322  0.95173068  0.79647369  1  -0.977193  0  -0.332449  0.073927  0  3.572492  0
N  N138  1  0.23139682  0.54827109  0.20352681  1  -0.977221  0  -0.332422  0.074063  0  3.572483  0
N  N139  1  0.26860484  0.45172893  0.70352620  1  -0.977091  0  -0.332419  0.074016  0  3.572503  0
N  N140  1  0.10477060  0.90062453  0.24225643  1  -1.311877  0  -0.328523  -0.120084  0  3.661621  0
N  N141  1  0.39523047  0.09937625  0.74225630  1  -1.31185  0  -0.328566  -0.120108  0  3.661585  0
N  N142  1  0.89523394  0.40062473  0.25774029  1  -1.312439  0  -0.328664  -0.120163  0  3.661458  0
N  N143  1  0.60476746  0.59937661  0.75774485  1  -1.31185  0  -0.328654  -0.120217  0  3.66172  0
O  O144  1  0.82018963  0.23815511  0.22261781  1  -1.471502  0  -0.366049  -0.748497  0  2.204893  0
O  O145  1  0.67980715  0.76184273  0.72261862  1  -1.471453  0  -0.36602  -0.748574  0  2.204815  0
O  O146  1  0.17981209  0.73815592  0.27738599  1  -1.471423  0  -0.366052  -0.748555  0  2.204808  0
O  O147  1  0.32019359  0.26184357  0.77738158  1  -1.471284  0  -0.366028  -0.748543  0  2.204869  0
O  O148  1  0.74210882  0.17860716  0.08294450  1  -1.44142  0  -0.467168  -0.842831  0  2.340274  0
O  O149  1  0.75788609  0.82139176  0.58294261  1  -1.441471  0  -0.467251  -0.842967  0  2.340116  0
O  O150  1  0.25790306  0.67860302  0.41705676  1  -1.441457  0  -0.467238  -0.842949  0  2.340229  0
O  O151  1  0.24210188  0.32138786  0.91705645  1  -1.441417  0  -0.467158  -0.842872  0  2.340096  0
O  O152  1  0.60051438  0.21764931  0.19352397  1  -1.385724  0  -0.378717  -0.643281  0  2.169492  0
O  O153  1  0.89948219  0.78235326  0.69352068  1  -1.386051  0  -0.378792  -0.643487  0  2.169449  0
O  O154  1  0.39948841  0.71764480  0.30647429  1  -1.385767  0  -0.37872  -0.643325  0  2.16954  0
O  O155  1  0.10051574  0.28234790  0.80647525  1  -1.385681  0  -0.378687  -0.643326  0  2.169456  0
O  O156  1  0.74834503  0.95728079  0.45609384  1  -1.461125  0  -0.4503  -0.833795  0  2.298105  0
O  O157  1  0.75165605  0.04271753  0.95609066  1  -1.461078  0  -0.450306  -0.833749  0  2.298019  0
O  O158  1  0.25164938  0.45728428  0.04390542  1  -1.461009  0  -0.450269  -0.833774  0  2.29801  0
O  O159  1  0.24834764  0.54271746  0.54390857  1  -1.461041  0  -0.450292  -0.833783  0  2.298069  0
O  O160  1  0.72328777  0.11912253  0.51394167  1  -1.456794  0  -0.4801  -0.844745  0  2.314687  0
O  O161  1  0.77671187  0.88087761  0.01394054  1  -1.456769  0  -0.480093  -0.844753  0  2.314708  0
O  O162  1  0.27671346  0.61912731  0.98606319  1  -1.456886  0  -0.480075  -0.844744  0  2.314732  0
O  O163  1  0.22329024  0.38087602  0.48606166  1  -1.456859  0  -0.480112  -0.844856  0  2.314733  0
O  O164  1  0.54555763  0.02784515  0.47434269  1  -1.407983  0  -0.387057  -0.665805  0  2.185728  0
O  O165  1  0.95444446  0.97215731  0.97434420  1  -1.407968  0  -0.387069  -0.665813  0  2.185605  0
O  O166  1  0.45444087  0.52784248  0.02565280  1  -1.407921  0  -0.387033  -0.665762  0  2.185743  0
O  O167  1  0.04555864  0.47215785  0.52565512  1  -1.407905  0  -0.387035  -0.665776  0  2.185683  0
O  O168  1  0.60675355  0.28508987  0.44755824  1  -1.183456  0  -0.372872  -0.600717  0  2.267133  0
O  O169  1  0.89325008  0.71490502  0.94756341  1  -1.183517  0  -0.372843  -0.60072  0  2.267113  0
O  O170  1  0.39325034  0.78508761  0.05244073  1  -1.183278  0  -0.372863  -0.60074  0  2.267144  0
O  O171  1  0.10674849  0.21491141  0.55243610  1  -1.183165  0  -0.372867  -0.600756  0  2.267099  0
O  O172  1  0.42682735  0.25895411  0.39551074  1  -1.177207  0  -0.380718  -0.615873  0  2.24216  0
O  O173  1  0.07318266  0.74102853  0.89551972  1  -1.177297  0  -0.380663  -0.615814  0  2.242179  0
O  O174  1  0.57318463  0.75896117  0.10448697  1  -1.176725  0  -0.380698  -0.615809  0  2.242343  0
O  O175  1  0.92681828  0.24103643  0.60448289  1  -1.177405  0  -0.380694  -0.615814  0  2.242352  0
O  O176  1  0.34855668  0.21830747  0.54681102  1  -1.181104  0  -0.37663  -0.603763  0  2.329231  0
O  O177  1  0.15144124  0.78169633  0.04681296  1  -1.181334  0  -0.376629  -0.603791  0  2.329299  0
O  O178  1  0.65145319  0.71830044  0.95318910  1  -1.181071  0  -0.376544  -0.603601  0  2.329098  0
O  O179  1  0.84854700  0.28170130  0.45318786  1  -1.181198  0  -0.376524  -0.603603  0  2.329293  0
O  O180  1  0.52720553  0.24538063  0.59930898  1  -1.18075  0  -0.383623  -0.612428  0  2.277256  0
O  O181  1  0.97279298  0.75462311  0.09931446  1  -1.180706  0  -0.383696  -0.612535  0  2.277387  0
O  O182  1  0.47280233  0.74538478  0.90068997  1  -1.180621  0  -0.383577  -0.612366  0  2.277107  0
O  O183  1  0.02719639  0.25461906  0.40068876  1  -1.180511  0  -0.383627  -0.61241  0  2.277024  0
O  O184  1  0.72339712  0.15262817  0.67844883  1  -1.15763  0  -0.348911  -0.54974  0  2.316213  0
O  O185  1  0.77660720  0.84737574  0.17844887  1  -1.157565  0  -0.348956  -0.549763  0  2.315998  0
O  O186  1  0.27660379  0.65262509  0.82154812  1  -1.157486  0  -0.348883  -0.549755  0  2.316222  0
O  O187  1  0.22338913  0.34737722  0.32155328  1  -1.157719  0  -0.348856  -0.549685  0  2.316373  0
O  O188  1  0.75538693  0.13284862  0.81340843  1  -1.183239  0  -0.367312  -0.599101  0  2.381898  0
O  O189  1  0.74461836  0.86715352  0.31340839  1  -1.182773  0  -0.367287  -0.59906  0  2.381836  0
O  O190  1  0.24462201  0.63284339  0.68658849  1  -1.182759  0  -0.367347  -0.59907  0  2.381781  0
O  O191  1  0.25538127  0.36715591  0.18659563  1  -1.183259  0  -0.367306  -0.59903  0  2.381885  0
O  O192  1  0.75951965  0.31184895  0.83702237  1  -1.167784  0  -0.358102  -0.600238  0  2.273626  0
O  O193  1  0.74047796  0.68815939  0.33701896  1  -1.168047  0  -0.358003  -0.600067  0  2.273798  0
O  O194  1  0.24047016  0.81183959  0.66297423  1  -1.167936  0  -0.358127  -0.600233  0  2.273564  0
O  O195  1  0.25952598  0.18815555  0.16298109  1  -1.167989  0  -0.358031  -0.600164  0  2.273568  0
O  O196  1  0.73941533  0.33578144  0.69991470  1  -1.196155  0  -0.364343  -0.613781  0  2.276913  0
O  O197  1  0.76058478  0.66422046  0.19990886  1  -1.196084  0  -0.364374  -0.61377  0  2.27678  0
O  O198  1  0.26058209  0.83578114  0.80008685  1  -1.196013  0  -0.364337  -0.613772  0  2.276661  0
O  O199  1  0.23940894  0.16421976  0.30008870  1  -1.196289  0  -0.364422  -0.613846  0  2.276819  0
O  O200  1  0.45693723  0.35152924  0.04999822  1  -1.191516  0  -0.362534  -0.617855  0  2.355194  0
O  O201  1  0.04306681  0.64846841  0.55000510  1  -1.191708  0  -0.362592  -0.61789  0  2.354899  0
O  O202  1  0.54305993  0.85153171  0.44999413  1  -1.191668  0  -0.362536  -0.617854  0  2.354903  0
O  O203  1  0.95693152  0.14846728  0.95000411  1  -1.19155  0  -0.362594  -0.617916  0  2.354914  0
O  O204  1  0.63358989  0.32516715  0.99371094  1  -1.173105  0  -0.34681  -0.568313  0  2.293025  0
O  O205  1  0.86641756  0.67483262  0.49370733  1  -1.172999  0  -0.346764  -0.568322  0  2.292946  0
O  O206  1  0.36641373  0.82517247  0.50629732  1  -1.173194  0  -0.346866  -0.568415  0  2.293081  0
O  O207  1  0.13357780  0.17483329  0.00630372  1  -1.173085  0  -0.346804  -0.568264  0  2.29306  0
O  O208  1  0.55988647  0.16146954  0.94092501  1  -1.182748  0  -0.378174  -0.60128  0  2.329808  0
O  O209  1  0.94011537  0.83853150  0.44092622  1  -1.182771  0  -0.378117  -0.6011  0  2.329995  0
O  O210  1  0.44011523  0.66147454  0.55907441  1  -1.182695  0  -0.378091  -0.60118  0  2.329962  0
O  O211  1  0.05988104  0.33853339  0.05907468  1  -1.182765  0  -0.378117  -0.601142  0  2.330028  0
O  O212  1  0.38591573  0.18385915  0.00269622  1  -1.165695  0  -0.368084  -0.578963  0  2.259122  0
O  O213  1  0.11408710  0.81613771  0.50269566  1  -1.165629  0  -0.368075  -0.578957  0  2.259035  0
O  O214  1  0.61408564  0.68386200  0.49730014  1  -1.165622  0  -0.368099  -0.578975  0  2.25893  0
O  O215  1  0.88590877  0.31614120  0.99730523  1  -1.165593  0  -0.368102  -0.578996  0  2.259164  0
O  O216  1  0.70971151  0.42560358  0.56654739  1  -1.268367  0  -0.607401  -0.835173  0  1.980272  0
O  O217  1  0.79028677  0.57439736  0.06654641  1  -1.268006  0  -0.607382  -0.835108  0  1.980405  0
O  O218  1  0.29028854  0.92560065  0.93345553  1  -1.268128  0  -0.607457  -0.835237  0  1.980308  0
O  O219  1  0.20970432  0.07439984  0.43345222  1  -1.267844  0  -0.60743  -0.835078  0  1.980445  0
