# generated using pymatgen
data_AlH9(C5O3)3
_symmetry_space_group_name_H-M   'P 1'
_cell_length_a   3.93061734
_cell_length_b   17.18748320
_cell_length_c   17.18756592
_cell_angle_alpha   120.00049133
_cell_angle_beta   89.99974578
_cell_angle_gamma   90.00002798
_symmetry_Int_Tables_number   1
_chemical_formula_structural   AlH9(C5O3)3
_chemical_formula_sum   'Al2 H18 C30 O18'
_cell_volume   1005.57833983
_cell_formula_units_Z   2
loop_
 _symmetry_equiv_pos_site_id
 _symmetry_equiv_pos_as_xyz
  1  'x, y, z'
loop_
 _atom_site_type_symbol
 _atom_site_label
 _atom_site_symmetry_multiplicity
 _atom_site_fract_x
 _atom_site_fract_y
 _atom_site_fract_z
 _atom_site_occupancy
 _atom_site_pbe_bader_charge
 _atom_site_pbe_bader_spin_density
 _atom_site_pbe_cm5_charge
 _atom_site_pbe_ddec_charge
 _atom_site_pbe_ddec_spin_density
 _atom_site_pbe_ddec_sum_bond_order
 _atom_site_pbe_magmom
Al  Al0  1  0.01702620  0.49999872  0.49999912  1  2.500653  0  0.424599  1.587928  0  2.569  0
Al  Al1  1  0.98272591  0.16666631  0.83333325  1  2.498953  0  0.424612  1.583031  0  2.575957  0
H  H2  1  0.25854993  0.11007006  0.52461137  1  0.052394  0  0.094071  0.099989  0  1.010089  0
H  H3  1  0.71107422  0.10807838  0.52840392  1  0.044634  0  0.094202  0.09992  0  1.004927  0
H  H4  1  0.74151564  0.19116184  0.44343148  1  0.047237  0  0.094078  0.099995  0  1.010393  0
H  H5  1  0.28895316  0.19490655  0.44145712  1  0.025619  0  0.094325  0.099671  0  1.004799  0
H  H6  1  0.25854989  0.91454222  0.88993102  1  0.049488  0  0.094053  0.099957  0  1.010047  0
H  H7  1  0.71107931  0.92032674  0.89192157  1  0.040703  0  0.094254  0.099973  0  1.004856  0
H  H8  1  0.74152296  0.75226998  0.80883806  1  0.05313  0  0.094103  0.100009  0  1.01035  0
H  H9  1  0.28895541  0.74654988  0.80509466  1  0.024204  0  0.094286  0.09962  0  1.004689  0
H  H10  1  0.25855707  0.47539184  0.08545797  1  0.047218  0  0.094056  0.100005  0  1.00998  0
H  H11  1  0.71108146  0.47159587  0.07967325  1  0.048254  0  0.094237  0.099943  0  1.00485  0
H  H12  1  0.74152301  0.55656881  0.24772947  1  0.057885  0  0.094134  0.100058  0  1.010365  0
H  H13  1  0.28895791  0.55854565  0.25345053  1  0.006689  0  0.094289  0.099616  0  1.004748  0
H  H14  1  0.38739340  0.54232418  0.72510560  1  0.615401  0  0.324518  0.360336  0  0.910288  0
H  H15  1  0.61237172  0.39183613  0.87571650  1  0.61167  0  0.324348  0.360055  0  0.911201  0
H  H16  1  0.38739102  0.68278360  0.45767720  1  0.606405  0  0.324499  0.360282  0  0.910496  0
H  H17  1  0.61236222  0.98387728  0.60816143  1  0.618104  0  0.324382  0.360122  0  0.911311  0
H  H18  1  0.38739190  0.27489448  0.31721556  1  0.630988  0  0.324516  0.360318  0  0.910482  0
H  H19  1  0.61235927  0.12428408  0.01611875  1  0.613953  0  0.324315  0.360042  0  0.911327  0
C  C20  1  0.51657492  0.42906116  0.36147026  1  1.558199  0  0.278149  0.678622  0  4.055234  0
C  C21  1  0.51657802  0.43241244  0.57093788  1  1.549982  0  0.278109  0.678746  0  4.055191  0
C  C22  1  0.51658592  0.63852880  0.56759088  1  1.487737  0  0.278156  0.678617  0  4.05524  0
C  C23  1  0.48321477  0.23764072  0.76582762  1  1.520962  0  0.277317  0.677582  0  4.056573  0
C  C24  1  0.48318912  0.02818613  0.76236241  1  1.509525  0  0.277525  0.677949  0  4.056544  0
C  C25  1  0.48321789  0.23417172  0.97181260  1  1.58595  0  0.277399  0.677789  0  4.056491  0
C  C26  1  0.49530246  0.28651577  0.71573237  1  0.079264  0  -0.028403  -0.213277  0  4.032323  0
C  C27  1  0.50469132  0.38231269  0.61983396  1  0.064949  0  -0.028377  -0.213378  0  4.033209  0
C  C28  1  0.48877761  0.24219838  0.62199187  1  -0.071266  0  -0.019609  0.048484  0  3.949982  0
C  C29  1  0.48769314  0.42896666  0.71469976  1  0.484947  0  0.084817  0.195473  0  4.025566  0
C  C30  1  0.51122242  0.28860687  0.57556984  1  0.01563  0  -0.019492  0.048796  0  3.950339  0
C  C31  1  0.51262510  0.38136271  0.76230322  1  0.630541  0  0.085408  0.196086  0  4.024791  0
C  C32  1  0.48931004  0.15068532  0.53724435  1  -0.023504  0  -0.147929  -0.185243  0  3.856762  0
C  C33  1  0.51081105  0.20381173  0.48405676  1  -0.014559  0  -0.147762  -0.184649  0  3.856049  0
C  C34  1  0.49530321  0.92922370  0.71348637  1  -0.076833  0  -0.028388  -0.213256  0  4.031349  0
C  C35  1  0.50468666  0.73751343  0.61768200  1  -0.034021  0  -0.028352  -0.213189  0  4.03266  0
C  C36  1  0.48877958  0.87978207  0.75780170  1  -0.046918  0  -0.019572  0.048418  0  3.950004  0
C  C37  1  0.48768982  0.78574235  0.57104077  1  0.496368  0  0.084979  0.195535  0  4.025757  0
C  C38  1  0.51122169  0.78697224  0.71140231  1  0.18292  0  -0.019524  0.048795  0  3.950719  0
C  C39  1  0.51261686  0.88093015  0.61863570  1  0.729013  0  0.085155  0.195845  0  4.025087  0
C  C40  1  0.48931044  0.88655858  0.84931309  1  -0.004022  0  -0.147938  -0.185235  0  3.856828  0
C  C41  1  0.51081381  0.78024565  0.79618798  1  -0.02777  0  -0.147781  -0.18465  0  3.855961  0
C  C42  1  0.49530098  0.28426831  0.07077962  1  -0.102247  0  -0.028364  -0.21335  0  4.032112  0
C  C43  1  0.50468455  0.38016586  0.26248071  1  -0.019149  0  -0.028404  -0.213326  0  4.033106  0
C  C44  1  0.48877746  0.37801177  0.12020873  1  0.054436  0  -0.019577  0.048527  0  3.950017  0
C  C45  1  0.48769012  0.28530193  0.21426169  1  0.566949  0  0.084901  0.195547  0  4.025748  0
C  C46  1  0.51121840  0.42443196  0.21303219  1  0.00288  0  -0.019425  0.048872  0  3.950143  0
C  C47  1  0.51261835  0.23770034  0.11906233  1  0.575955  0  0.085276  0.195957  0  4.024857  0
C  C48  1  0.48931443  0.46275670  0.11344115  1  -0.010021  0  -0.147947  -0.185287  0  3.856612  0
C  C49  1  0.51081646  0.51594353  0.21975347  1  -0.014795  0  -0.147818  -0.184691  0  3.856018  0
O  O50  1  0.75332968  0.59973989  0.58607954  1  -1.251896  0  -0.23136  -0.58128  0  2.344037  0
O  O51  1  0.75332623  0.48633988  0.40025948  1  -1.255588  0  -0.231323  -0.581256  0  2.343961  0
O  O52  1  0.75332761  0.41391752  0.51365864  1  -1.248879  0  -0.23136  -0.581366  0  2.343921  0
O  O53  1  0.28794043  0.59678446  0.50697796  1  -1.262371  0  -0.241954  -0.620535  0  2.354084  0
O  O54  1  0.28794461  0.49301886  0.58980523  1  -1.259217  0  -0.241918  -0.62052  0  2.354397  0
O  O55  1  0.28793866  0.41019236  0.40321272  1  -1.262019  0  -0.241952  -0.620536  0  2.354266  0
O  O56  1  0.71174975  0.17352152  0.93004676  1  -1.262183  0  -0.241589  -0.619072  0  2.354674  0
O  O57  1  0.71175592  0.25652634  0.82647893  1  -1.26446  0  -0.241542  -0.619012  0  2.354628  0
O  O58  1  0.71175650  0.06995204  0.74347265  1  -1.265935  0  -0.24168  -0.619258  0  2.35429  0
O  O59  1  0.24642850  0.25268769  0.93304973  1  -1.256338  0  -0.231168  -0.580145  0  2.3444  0
O  O60  1  0.24643701  0.06694869  0.81963431  1  -1.257931  0  -0.23113  -0.580056  0  2.34479  0
O  O61  1  0.24643528  0.18036500  0.74731295  1  -1.259591  0  -0.231128  -0.580019  0  2.3446  0
O  O62  1  0.46654342  0.52018962  0.76461881  1  -1.13408  0  -0.348466  -0.412375  0  2.265104  0
O  O63  1  0.53377873  0.43133779  0.85351859  1  -1.134576  0  -0.348297  -0.412266  0  2.265509  0
O  O64  1  0.46653367  0.74442462  0.47980814  1  -1.130094  0  -0.348465  -0.412335  0  2.264939  0
O  O65  1  0.53377182  0.92218402  0.56866540  1  -1.105928  0  -0.348322  -0.412323  0  2.26537  0
O  O66  1  0.46654032  0.23538286  0.25557287  1  -1.145576  0  -0.348508  -0.412402  0  2.265021  0
O  O67  1  0.53376799  0.14648349  0.07781790  1  -1.088025  0  -0.348245  -0.412221  0  2.265515  0
