# generated using pymatgen
data_Al2H5C12S2N(O5F)2
_symmetry_space_group_name_H-M   'P 1'
_cell_length_a   6.64770631
_cell_length_b   8.68165201
_cell_length_c   12.03748485
_cell_angle_alpha   56.05011895
_cell_angle_beta   80.89159902
_cell_angle_gamma   76.37411607
_symmetry_Int_Tables_number   1
_chemical_formula_structural   Al2H5C12S2N(O5F)2
_chemical_formula_sum   'Al2 H5 C12 S2 N1 O10 F2'
_cell_volume   559.76081317
_cell_formula_units_Z   1
loop_
 _symmetry_equiv_pos_site_id
 _symmetry_equiv_pos_as_xyz
  1  'x, y, z'
loop_
 _atom_site_type_symbol
 _atom_site_label
 _atom_site_symmetry_multiplicity
 _atom_site_fract_x
 _atom_site_fract_y
 _atom_site_fract_z
 _atom_site_occupancy
 _atom_site_pbe_bader_charge
 _atom_site_pbe_bader_spin_density
 _atom_site_pbe_cm5_charge
 _atom_site_pbe_ddec_charge
 _atom_site_pbe_ddec_spin_density
 _atom_site_pbe_ddec_sum_bond_order
 _atom_site_pbe_magmom
Al  Al0  1  0.49681922  0.50503996  0.50026578  1  2.501504  0  0.392643  1.632723  0  2.591533  0
Al  Al1  1  0.99412432  0.50447049  0.50306262  1  2.500599  0  0.393986  1.635586  0  2.572179  0
H  H2  1  0.70619740  0.75182340  0.38628412  1  0.622393  0  0.356754  0.438897  0  0.836645  0
H  H3  1  0.28887137  0.25949084  0.60296750  1  0.60692  0  0.352781  0.431319  0  0.849819  0
H  H4  1  0.66140398  0.62870427  0.12838211  1  0.134308  0  0.122052  0.150012  0  0.976032  0
H  H5  1  0.13192381  0.39036807  0.90114854  1  0.455019  0  0.282928  0.27262  0  1.031324  0
H  H6  1  0.30496145  0.36989620  0.78300469  1  0.506152  0  0.311651  0.324693  0  0.957282  0
C  C7  1  0.28433806  0.57579139  0.28003345  1  1.60308  0  0.257954  0.646927  0  4.151339  0
C  C8  1  0.16483756  0.79790622  0.48509748  1  1.652323  0  0.263516  0.602266  0  4.164533  0
C  C9  1  0.70127783  0.43991898  0.72093232  1  1.513479  0  0.241404  0.645894  0  4.164534  0
C  C10  1  0.82699156  0.21120817  0.51724628  1  1.649723  0  0.267263  0.610246  0  4.153093  0
C  C11  1  0.89661791  0.04620472  0.50340527  1  0.524865  0  0.103699  0.04967  0  3.975366  0
C  C12  1  0.09561638  0.96229133  0.49951859  1  0.625403  0  0.103781  0.051702  0  3.971897  0
C  C13  1  0.42277843  0.44204556  0.89093517  1  0.566828  0  0.115179  0.293902  0  4.103611  0
C  C14  1  0.54760398  0.58541031  0.10040094  1  0.051567  0  -0.084745  -0.129411  0  3.953266  0
C  C15  1  0.62090588  0.46777584  0.82752881  1  -0.111215  0  -0.047173  -0.268695  0  3.946063  0
C  C16  1  0.35533167  0.55876427  0.16504611  1  -0.191332  0  -0.019341  -0.118098  0  3.963127  0
C  C17  1  0.57173898  0.54518938  0.00017594  1  -0.146266  0  -0.020839  0.010643  0  4.10893  0
C  C18  1  0.39861168  0.48697312  0.99058748  1  -0.151787  0  -0.026632  -0.119303  0  4.012769  0
S  S19  1  0.76691251  0.55172378  0.88540420  1  0.180655  0  0.058799  0.07336  0  2.875124  0
S  S20  1  0.20400508  0.48354215  0.10489166  1  0.234392  0  0.083933  0.129239  0  2.780332  0
N  N21  1  0.27944023  0.38045402  0.86440315  1  -1.267959  0  -0.572466  -0.563026  0  3.360314  0
O  O22  1  0.41331132  0.61827378  0.32281095  1  -1.267056  0  -0.247402  -0.607437  0  2.334738  0
O  O23  1  0.02996491  0.74684935  0.45458114  1  -1.24545  0  -0.228146  -0.579425  0  2.394283  0
O  O24  1  0.88621790  0.46594712  0.67355886  1  -1.262329  0  -0.253539  -0.602189  0  2.306231  0
O  O25  1  0.63743520  0.28650634  0.49573386  1  -1.235912  0  -0.223756  -0.558007  0  2.335491  0
O  O26  1  0.58003629  0.38889630  0.67769696  1  -1.28284  0  -0.256829  -0.628114  0  2.353229  0
O  O27  1  0.96158876  0.26274460  0.54763916  1  -1.237436  0  -0.228782  -0.580677  0  2.388502  0
O  O28  1  0.10334044  0.54475005  0.33032784  1  -1.246565  0  -0.241719  -0.587193  0  2.321314  0
O  O29  1  0.35434780  0.72217924  0.50619188  1  -1.238642  0  -0.224312  -0.558639  0  2.342744  0
O  O30  1  0.73229329  0.61563390  0.43082916  1  -1.420343  0  -0.44528  -0.979279  0  2.167741  0
O  O31  1  0.25979236  0.39200351  0.57301247  1  -1.40659  0  -0.444003  -0.974099  0  2.155011  0
F  F32  1  0.74044742  0.98477235  0.48923948  1  -0.60901  0  -0.07105  -0.072272  0  1.446971  0
F  F33  1  0.25199093  0.02364276  0.51376779  1  -0.608481  0  -0.07231  -0.073834  0  1.441426  0
