# generated using pymatgen
data_AlH6C11SBrO5
_symmetry_space_group_name_H-M   'P 1'
_cell_length_a   6.97473289
_cell_length_b   11.12888014
_cell_length_c   12.86158419
_cell_angle_alpha   80.20229556
_cell_angle_beta   72.33189632
_cell_angle_gamma   71.33015239
_symmetry_Int_Tables_number   1
_chemical_formula_structural   AlH6C11SBrO5
_chemical_formula_sum   'Al2 H12 C22 S2 Br2 O10'
_cell_volume   898.23000546
_cell_formula_units_Z   2
loop_
 _symmetry_equiv_pos_site_id
 _symmetry_equiv_pos_as_xyz
  1  'x, y, z'
loop_
 _atom_site_type_symbol
 _atom_site_label
 _atom_site_symmetry_multiplicity
 _atom_site_fract_x
 _atom_site_fract_y
 _atom_site_fract_z
 _atom_site_occupancy
 _atom_site_pbe_bader_charge
 _atom_site_pbe_bader_spin_density
 _atom_site_pbe_cm5_charge
 _atom_site_pbe_ddec_charge
 _atom_site_pbe_ddec_spin_density
 _atom_site_pbe_ddec_sum_bond_order
 _atom_site_pbe_magmom
Al  Al0  1  0.49306555  0.49959706  0.50570438  1  2.509968  0  0.409061  1.643422  0  2.544616  0
Al  Al1  1  0.99306868  0.49882043  0.50521044  1  2.507578  0  0.405939  1.645594  0  2.537881  0
H  H2  1  0.27645323  0.35008814  0.58038781  1  0.614347  0  0.342147  0.417641  0  0.871091  0
H  H3  1  0.72354507  0.64336837  0.42078316  1  0.619105  0  0.323662  0.397722  0  0.918823  0
H  H4  1  0.25401643  0.23826942  0.34863516  1  0.091667  0  0.110649  0.134247  0  1.021618  0
H  H5  1  0.46128594  0.76663710  0.36079034  1  0.114629  0  0.111548  0.123779  0  1.037588  0
H  H6  1  0.74855008  0.88048429  0.57946218  1  0.121206  0  0.114377  0.121365  0  0.975966  0
H  H7  1  0.63818141  0.11836867  0.56781153  1  0.104404  0  0.111121  0.114172  0  0.988504  0
H  H8  1  0.20327743  0.50087357  0.78375803  1  0.096293  0  0.102458  0.160004  0  1.008848  0
H  H9  1  0.05793904  0.58196269  0.90405161  1  0.044849  0  0.089387  0.127953  0  1.011287  0
H  H10  1  0.14105723  0.41353443  0.91258326  1  0.048741  0  0.088822  0.126038  0  1.01204  0
H  H11  1  0.84628183  0.59042807  0.09920524  1  0.066597  0  0.08365  0.119467  0  1.033747  0
H  H12  1  0.92884607  0.42195588  0.10512510  1  0.039454  0  0.085595  0.124228  0  1.016487  0
H  H13  1  0.78409525  0.50106578  0.22661409  1  0.093867  0  0.099167  0.157479  0  1.013091  0
C  C14  1  0.86594948  0.27528826  0.48563755  1  1.591456  0  0.27412  0.659728  0  4.05936  0
C  C15  1  0.63772996  0.49298980  0.70037859  1  1.612346  0  0.26121  0.66471  0  4.11768  0
C  C16  1  0.12671994  0.72457989  0.50575949  1  1.601862  0  0.271465  0.652174  0  4.066633  0
C  C17  1  0.34987870  0.50817773  0.30929219  1  1.553632  0  0.254282  0.649853  0  4.131591  0
C  C18  1  0.38083472  0.49961169  0.89502270  1  0.08402  0  -0.004313  0.159402  0  3.988919  0
C  C19  1  0.60580573  0.50568026  0.11474942  1  0.022132  0  -0.00962  0.155775  0  3.993967  0
C  C20  1  0.57290053  0.49708482  0.81974441  1  -0.201106  0  -0.027024  -0.207958  0  3.947341  0
C  C21  1  0.41365980  0.50812622  0.18979613  1  -0.139644  0  -0.032629  -0.219544  0  3.978209  0
C  C22  1  0.59243006  0.50256170  0.00741641  1  -0.146921  0  -0.028007  -0.08601  0  4.076881  0
C  C23  1  0.39458322  0.50260901  0.00223401  1  -0.204585  0  -0.025755  -0.083523  0  4.073699  0
C  C24  1  0.94073254  0.13500241  0.47513338  1  -0.058761  0  -0.00619  -0.083938  0  3.926479  0
C  C25  1  0.15091818  0.07009358  0.41845261  1  0.057291  0  0.002918  0.0718  0  3.941446  0
C  C26  1  0.79847978  0.06656983  0.52779987  1  0.044207  0  -0.077327  -0.083969  0  3.991188  0
C  C27  1  0.29850382  0.13491506  0.35422827  1  0.05679  0  -0.091278  -0.171775  0  3.940299  0
C  C28  1  0.49828946  0.06927532  0.29875881  1  -0.059348  0  -0.022831  0.06102  0  3.991429  0
C  C29  1  0.06530627  0.86634363  0.48669923  1  -0.040041  0  -0.005174  -0.079769  0  3.92835  0
C  C30  1  0.86004469  0.93313448  0.53415643  1  -0.082504  0  -0.077036  -0.08558  0  3.984292  0
C  C31  1  0.21277702  0.93327112  0.42347381  1  -0.00519  0  0.004097  0.075739  0  3.942249  0
C  C32  1  0.41640332  0.86931972  0.36212182  1  -0.02247  0  -0.094564  -0.173973  0  3.965643  0
C  C33  1  0.55779299  0.93458365  0.30256060  1  -0.084249  0  -0.023281  0.061402  0  3.993587  0
C  C34  1  0.18673670  0.49904825  0.87119917  1  -0.063904  0  -0.246769  -0.417648  0  4.003533  0
C  C35  1  0.80044161  0.50450358  0.13906525  1  -0.068057  0  -0.250833  -0.422383  0  4.009298  0
S  S36  1  0.76422793  0.49870871  0.87892101  1  0.263771  0  0.093708  0.135958  0  3.01349  0
S  S37  1  0.22275929  0.50604275  0.13065756  1  0.254542  0  0.092875  0.143009  0  3.050211  0
Br  Br38  1  0.68735034  0.16261678  0.21697029  1  -0.036453  0  0.041859  -0.033464  0  1.478192  0
Br  Br39  1  0.82947557  0.83824353  0.22780003  1  -0.046277  0  0.042122  -0.049184  0  1.489163  0
O  O40  1  0.67249499  0.32928269  0.49078184  1  -1.264667  0  -0.234055  -0.601902  0  2.351241  0
O  O41  1  0.82888356  0.49222463  0.65378965  1  -1.265487  0  -0.242185  -0.604596  0  2.347168  0
O  O42  1  0.98797463  0.67057833  0.51054495  1  -1.259442  0  -0.231314  -0.590715  0  2.342364  0
O  O43  1  0.48271108  0.51408166  0.35685864  1  -1.258457  0  -0.238639  -0.589291  0  2.36196  0
O  O44  1  0.31093644  0.66954953  0.51706374  1  -1.261114  0  -0.231234  -0.585021  0  2.347753  0
O  O45  1  0.16118396  0.50340591  0.35572914  1  -1.264678  0  -0.244788  -0.605803  0  2.361987  0
O  O46  1  0.99843925  0.32804335  0.49315643  1  -1.257096  0  -0.23156  -0.588733  0  2.346886  0
O  O47  1  0.50301589  0.48934540  0.65320307  1  -1.265271  0  -0.233802  -0.586539  0  2.347129  0
O  O48  1  0.24848337  0.43828551  0.55100189  1  -1.425086  0  -0.451691  -0.973968  0  2.103341  0
O  O49  1  0.73909941  0.55919069  0.45906787  1  -1.433942  0  -0.454339  -0.978397  0  2.126558  0
