# generated using pymatgen
data_CdH10C12N2O5
_symmetry_space_group_name_H-M   'P 1'
_cell_length_a   7.11847659
_cell_length_b   11.02960371
_cell_length_c   16.20469580
_cell_angle_alpha   89.99982362
_cell_angle_beta   90.00004473
_cell_angle_gamma   89.99987287
_symmetry_Int_Tables_number   1
_chemical_formula_structural   CdH10C12N2O5
_chemical_formula_sum   'Cd4 H40 C48 N8 O20'
_cell_volume   1272.29509411
_cell_formula_units_Z   4
loop_
 _symmetry_equiv_pos_site_id
 _symmetry_equiv_pos_as_xyz
  1  'x, y, z'
loop_
 _atom_site_type_symbol
 _atom_site_label
 _atom_site_symmetry_multiplicity
 _atom_site_fract_x
 _atom_site_fract_y
 _atom_site_fract_z
 _atom_site_occupancy
 _atom_site_hle17_bader_spin_density
 _atom_site_hle17_ddec_charge
 _atom_site_hle17_ddec_spin_density
 _atom_site_hle17_ddec_sum_bond_order
 _atom_site_hle17_magmom
 _atom_site_hse06_10hf_bader_spin_density
 _atom_site_hse06_10hf_ddec_charge
 _atom_site_hse06_10hf_ddec_spin_density
 _atom_site_hse06_10hf_ddec_sum_bond_order
 _atom_site_hse06_10hf_magmom
 _atom_site_hse06_bader_spin_density
 _atom_site_hse06_ddec_charge
 _atom_site_hse06_ddec_spin_density
 _atom_site_hse06_ddec_sum_bond_order
 _atom_site_hse06_magmom
 _atom_site_pbe_bader_spin_density
 _atom_site_pbe_cm5_charge
 _atom_site_pbe_ddec_charge
 _atom_site_pbe_ddec_spin_density
 _atom_site_pbe_ddec_sum_bond_order
 _atom_site_pbe_magmom
Cd  Cd0  1  0.45129365  0.13265092  0.77672541  1  0  1.25826  0  1.598521  0  0  1.088176  0  2.043262  0  0  1.148353  0  1.982355  0  0  0.78593  1.044735  0  2.085301  0
Cd  Cd1  1  0.54870359  0.63265012  0.22327422  1  0  1.258257  0  1.598508  0  0  1.088177  0  2.043246  0  0  1.148355  0  1.982341  0  0  0.78595  1.044755  0  2.085296  0
Cd  Cd2  1  0.04870480  0.63265217  0.27672530  1  0  1.258252  0  1.598553  0  0  1.088178  0  2.043297  0  0  1.148353  0  1.98239  0  0  0.785946  1.044754  0  2.085344  0
Cd  Cd3  1  0.95129384  0.13265069  0.72327371  1  0  1.25823  0  1.598549  0  0  1.088147  0  2.043295  0  0  1.148324  0  1.982387  0  0  0.785925  1.044713  0  2.085335  0
H  H4  1  0.67713214  0.87649972  0.00552105  1  0  0.106493  0  0.953215  0  0  0.113229  0  1.02169  0  0  0.117484  0  1.017142  0  0  0.10823  0.11014  0  1.024959  0
H  H5  1  0.32286145  0.37649791  0.99447930  1  0  0.10652  0  0.953187  0  0  0.113253  0  1.021661  0  0  0.117508  0  1.017113  0  0  0.108245  0.110163  0  1.02493  0
H  H6  1  0.82286687  0.37650047  0.50551926  1  0  0.106516  0  0.953188  0  0  0.11325  0  1.021666  0  0  0.117503  0  1.017119  0  0  0.108248  0.110161  0  1.024936  0
H  H7  1  0.17713233  0.87649897  0.49448109  1  0  0.106513  0  0.953193  0  0  0.11324  0  1.021675  0  0  0.117494  0  1.017128  0  0  0.108234  0.110151  0  1.024943  0
H  H8  1  0.19027130  0.67125424  0.01079373  1  0  0.118992  0  0.939144  0  0  0.126377  0  1.003659  0  0  0.13021  0  1.000647  0  0  0.113528  0.123598  0  1.005808  0
H  H9  1  0.80972440  0.17125357  0.98920705  1  0  0.118987  0  0.939108  0  0  0.126368  0  1.003625  0  0  0.1302  0  1.000615  0  0  0.1135  0.123583  0  1.005771  0
H  H10  1  0.30972935  0.17125591  0.51079317  1  0  0.119017  0  0.939071  0  0  0.126406  0  1.00359  0  0  0.130234  0  1.000579  0  0  0.113549  0.123622  0  1.005738  0
H  H11  1  0.69027478  0.67125643  0.48920638  1  0  0.119017  0  0.939041  0  0  0.126408  0  1.003548  0  0  0.130242  0  1.000535  0  0  0.113537  0.12363  0  1.005696  0
H  H12  1  0.04525185  0.88186757  0.79490570  1  0  0.121207  0  0.976995  0  0  0.12613  0  1.045803  0  0  0.129871  0  1.042656  0  0  0.109576  0.123413  0  1.048117  0
H  H13  1  0.95474594  0.38186570  0.20509587  1  0  0.121247  0  0.976905  0  0  0.12617  0  1.045707  0  0  0.129912  0  1.042559  0  0  0.109589  0.123452  0  1.048022  0
H  H14  1  0.45474718  0.38186858  0.29490432  1  0  0.121204  0  0.976926  0  0  0.12613  0  1.04575  0  0  0.129869  0  1.042597  0  0  0.109567  0.123404  0  1.048064  0
H  H15  1  0.54525481  0.88186833  0.70509540  1  0  0.121179  0  0.976957  0  0  0.126102  0  1.045776  0  0  0.129844  0  1.042627  0  0  0.109549  0.123376  0  1.048083  0
H  H16  1  0.57090191  0.31843600  0.91016804  1  0  0.046647  0  0.952113  0  0  0.056006  0  1.021452  0  0  0.057894  0  1.016071  0  0  0.123389  0.054438  0  1.025441  0
H  H17  1  0.42909750  0.81843506  0.08983182  1  0  0.046664  0  0.952131  0  0  0.056004  0  1.021479  0  0  0.057889  0  1.016102  0  0  0.1234  0.054447  0  1.025468  0
H  H18  1  0.92909943  0.81843670  0.41016806  1  0  0.046625  0  0.952111  0  0  0.055989  0  1.021446  0  0  0.057877  0  1.016063  0  0  0.123385  0.05443  0  1.025439  0
H  H19  1  0.07090279  0.31843526  0.58983241  1  0  0.046634  0  0.952128  0  0  0.056002  0  1.021457  0  0  0.05789  0  1.016075  0  0  0.12339  0.05444  0  1.025449  0
H  H20  1  0.87832828  0.44776353  0.75632798  1  0  0.116959  0  0.942234  0  0  0.135106  0  1.004698  0  0  0.136895  0  1.003286  0  0  0.110337  0.13372  0  1.005783  0
H  H21  1  0.12166928  0.94776506  0.24367222  1  0  0.116931  0  0.942269  0  0  0.135055  0  1.004747  0  0  0.136845  0  1.003333  0  0  0.110315  0.133668  0  1.005832  0
H  H22  1  0.62167234  0.94776558  0.25632790  1  0  0.116877  0  0.942301  0  0  0.134997  0  1.004782  0  0  0.136786  0  1.00337  0  0  0.110283  0.133611  0  1.005867  0
H  H23  1  0.37832943  0.44776482  0.74367169  1  0  0.116894  0  0.942267  0  0  0.135018  0  1.004756  0  0  0.136808  0  1.003343  0  0  0.110293  0.133632  0  1.005838  0
H  H24  1  0.03456066  0.49424069  0.83658415  1  0  0.099388  0  0.920278  0  0  0.122678  0  0.977876  0  0  0.122517  0  0.978604  0  0  0.104093  0.122676  0  0.977453  0
H  H25  1  0.96543814  0.99424137  0.16341472  1  0  0.099358  0  0.920278  0  0  0.122654  0  0.977861  0  0  0.122483  0  0.978601  0  0  0.104089  0.122652  0  0.977438  0
H  H26  1  0.46543946  0.99424225  0.33658419  1  0  0.099405  0  0.920277  0  0  0.122661  0  0.977893  0  0  0.122499  0  0.978622  0  0  0.104101  0.122658  0  0.97747  0
H  H27  1  0.53456074  0.49424253  0.66341468  1  0  0.099368  0  0.920272  0  0  0.122655  0  0.977865  0  0  0.122494  0  0.978592  0  0  0.104102  0.122652  0  0.977441  0
H  H28  1  0.85199378  0.59407876  0.80296183  1  0  0.104561  0  0.951152  0  0  0.121337  0  1.020467  0  0  0.121215  0  1.021564  0  0  0.104098  0.121375  0  1.019715  0
H  H29  1  0.14800499  0.09407989  0.19703726  1  0  0.104554  0  0.95115  0  0  0.121324  0  1.020461  0  0  0.121202  0  1.021557  0  0  0.104094  0.12136  0  1.019705  0
H  H30  1  0.64800533  0.09408020  0.30296158  1  0  0.104554  0  0.951149  0  0  0.121323  0  1.020453  0  0  0.121201  0  1.02155  0  0  0.104096  0.121359  0  1.019697  0
H  H31  1  0.35199204  0.59408026  0.69703690  1  0  0.10455  0  0.95115  0  0  0.121327  0  1.020455  0  0  0.121205  0  1.021553  0  0  0.104107  0.121364  0  1.019703  0
H  H32  1  0.63566277  0.46595784  0.99142891  1  0  0.111343  0  0.956231  0  0  0.128455  0  1.023638  0  0  0.129777  0  1.022516  0  0  0.10558  0.127384  0  1.024533  0
H  H33  1  0.36433613  0.96595736  0.00857064  1  0  0.111363  0  0.956258  0  0  0.128483  0  1.023656  0  0  0.129806  0  1.022533  0  0  0.105596  0.12741  0  1.024555  0
H  H34  1  0.86433680  0.96595864  0.49142891  1  0  0.111326  0  0.956279  0  0  0.128454  0  1.023665  0  0  0.129774  0  1.022543  0  0  0.10559  0.127383  0  1.024564  0
H  H35  1  0.13566491  0.46595747  0.50857002  1  0  0.111374  0  0.95624  0  0  0.128499  0  1.023632  0  0  0.129822  0  1.02251  0  0  0.105602  0.127429  0  1.024528  0
H  H36  1  0.69268873  0.60381690  0.94020041  1  0  0.105462  0  0.950636  0  0  0.123609  0  1.015018  0  0  0.123806  0  1.016088  0  0  0.10166  0.123352  0  1.014405  0
H  H37  1  0.30731141  0.10381661  0.05979804  1  0  0.105485  0  0.950603  0  0  0.123637  0  1.014994  0  0  0.123833  0  1.016064  0  0  0.101665  0.123378  0  1.014376  0
H  H38  1  0.80731199  0.10381721  0.44020083  1  0  0.105458  0  0.950613  0  0  0.123603  0  1.015007  0  0  0.123801  0  1.016078  0  0  0.101655  0.123344  0  1.014389  0
H  H39  1  0.19268956  0.60381540  0.55979763  1  0  0.10543  0  0.950641  0  0  0.123575  0  1.015045  0  0  0.123773  0  1.016118  0  0  0.101647  0.123318  0  1.014431  0
H  H40  1  0.87490910  0.51363392  0.98523748  1  0  0.094288  0  0.954925  0  0  0.111614  0  1.023297  0  0  0.110773  0  1.026365  0  0  0.097207  0.112099  0  1.021242  0
H  H41  1  0.12509136  0.01363319  0.01476239  1  0  0.094312  0  0.95494  0  0  0.111644  0  1.023303  0  0  0.110802  0  1.026374  0  0  0.097211  0.112128  0  1.021245  0
H  H42  1  0.62509202  0.01363449  0.48523722  1  0  0.094275  0  0.954955  0  0  0.111601  0  1.023329  0  0  0.110761  0  1.026394  0  0  0.097191  0.112085  0  1.02127  0
H  H43  1  0.37490984  0.51363262  0.51476204  1  0  0.094318  0  0.954952  0  0  0.11166  0  1.023296  0  0  0.110815  0  1.026378  0  0  0.097219  0.112145  0  1.02124  0
C  C44  1  0.71061180  0.97183303  0.85308145  1  0  0.665981  0  3.886101  0  0  0.610918  0  4.180299  0  0  0.646594  0  4.174071  0  0  0.207196  0.586635  0  4.18382  0
C  C45  1  0.28938848  0.47182965  0.14691993  1  0  0.66608  0  3.885979  0  0  0.611006  0  4.180195  0  0  0.646691  0  4.173944  0  0  0.207247  0.586732  0  4.183717  0
C  C46  1  0.78939171  0.47182974  0.35307939  1  0  0.666059  0  3.886076  0  0  0.611003  0  4.180222  0  0  0.64669  0  4.173996  0  0  0.207309  0.58673  0  4.183746  0
C  C47  1  0.21060857  0.97183022  0.64692014  1  0  0.666012  0  3.886094  0  0  0.610956  0  4.180256  0  0  0.646637  0  4.174023  0  0  0.207258  0.586678  0  4.183774  0
C  C48  1  0.84655961  0.88910729  0.89584571  1  0  -0.057284  0  3.736208  0  0  -0.032157  0  3.977088  0  0  -0.04257  0  3.999674  0  0  -0.009704  -0.02571  0  3.962122  0
C  C49  1  0.15343675  0.38910520  0.10415585  1  0  -0.057339  0  3.736274  0  0  -0.032207  0  3.977171  0  0  -0.042613  0  3.999739  0  0  -0.009749  -0.025773  0  3.962219  0
C  C50  1  0.65344146  0.38910691  0.39584360  1  0  -0.057546  0  3.736437  0  0  -0.032353  0  3.977246  0  0  -0.042805  0  3.999879  0  0  -0.009785  -0.025914  0  3.962291  0
C  C51  1  0.34655911  0.88910649  0.60415672  1  0  -0.057411  0  3.736407  0  0  -0.032268  0  3.977262  0  0  -0.042688  0  3.999854  0  0  -0.009756  -0.025824  0  3.962292  0
C  C52  1  0.80641352  0.84775751  0.97557079  1  0  -0.045392  0  3.667112  0  0  -0.085266  0  3.918058  0  0  -0.079704  0  3.93325  0  0  -0.063893  -0.088532  0  3.907781  0
C  C53  1  0.19358298  0.34775845  0.02443024  1  0  -0.045489  0  3.667067  0  0  -0.085361  0  3.918022  0  0  -0.079803  0  3.933214  0  0  -0.063934  -0.088625  0  3.907745  0
C  C54  1  0.69358783  0.34775889  0.47556869  1  0  -0.045311  0  3.667136  0  0  -0.085236  0  3.91809  0  0  -0.079661  0  3.933292  0  0  -0.06392  -0.088505  0  3.907817  0
C  C55  1  0.30641288  0.84775979  0.52443172  1  0  -0.045411  0  3.667165  0  0  -0.085307  0  3.918111  0  0  -0.079744  0  3.933306  0  0  -0.063928  -0.088572  0  3.907831  0
C  C56  1  0.92798516  0.76846390  0.01655320  1  0  -0.07182  0  3.757315  0  0  -0.046332  0  3.995672  0  0  -0.056413  0  4.018009  0  0  -0.014452  -0.040098  0  3.980802  0
C  C57  1  0.07201020  0.26846612  0.98344676  1  0  -0.071781  0  3.757393  0  0  -0.046285  0  3.995729  0  0  -0.056369  0  4.01807  0  0  -0.014467  -0.04005  0  3.980845  0
C  C58  1  0.57201564  0.26846591  0.51655194  1  0  -0.071913  0  3.757322  0  0  -0.04636  0  3.995665  0  0  -0.056439  0  4.017993  0  0  -0.014406  -0.040121  0  3.980788  0
C  C59  1  0.42798534  0.76846683  0.48344926  1  0  -0.071931  0  3.757406  0  0  -0.046365  0  3.995718  0  0  -0.056445  0  4.018051  0  0  -0.014403  -0.040126  0  3.980851  0
C  C60  1  0.87532940  0.71606749  0.09945452  1  0  0.673374  0  3.894793  0  0  0.62248  0  4.183879  0  0  0.659252  0  4.175996  0  0  0.214188  0.597497  0  4.188376  0
C  C61  1  0.12467177  0.21607001  0.90054617  1  0  0.673456  0  3.894598  0  0  0.622559  0  4.183683  0  0  0.659334  0  4.175797  0  0  0.214255  0.597571  0  4.18819  0
C  C62  1  0.62467455  0.21606943  0.59945328  1  0  0.673554  0  3.894499  0  0  0.622597  0  4.183686  0  0  0.659367  0  4.175801  0  0  0.214231  0.597601  0  4.188193  0
C  C63  1  0.37532521  0.71606989  0.40054679  1  0  0.67356  0  3.894454  0  0  0.622597  0  4.183658  0  0  0.659365  0  4.17577  0  0  0.214232  0.597607  0  4.188169  0
C  C64  1  0.09530792  0.73271217  0.97859645  1  0  -0.082491  0  3.671423  0  0  -0.118854  0  3.919225  0  0  -0.115531  0  3.935527  0  0  -0.063332  -0.12054  0  3.908046  0
C  C65  1  0.90468897  0.23271302  0.02140358  1  0  -0.082421  0  3.671471  0  0  -0.118793  0  3.919236  0  0  -0.115473  0  3.935537  0  0  -0.063215  -0.120469  0  3.908042  0
C  C66  1  0.40469335  0.23271506  0.47859443  1  0  -0.082484  0  3.671339  0  0  -0.118886  0  3.919169  0  0  -0.115556  0  3.935463  0  0  -0.063395  -0.12057  0  3.907979  0
C  C67  1  0.59530916  0.73271557  0.52140499  1  0  -0.082408  0  3.671392  0  0  -0.118803  0  3.919205  0  0  -0.115479  0  3.935504  0  0  -0.063336  -0.120486  0  3.908022  0
C  C68  1  0.13702457  0.77465762  0.89883126  1  0  0.021794  0  3.863734  0  0  0.048125  0  4.09373  0  0  0.043987  0  4.114599  0  0  0.007729  0.050528  0  4.079735  0
C  C69  1  0.86297078  0.27465454  0.10116930  1  0  0.021799  0  3.863792  0  0  0.048185  0  4.093719  0  0  0.04406  0  4.114562  0  0  0.007665  0.050565  0  4.079754  0
C  C70  1  0.36297361  0.27465966  0.39882923  1  0  0.021712  0  3.863813  0  0  0.048067  0  4.093799  0  0  0.043926  0  4.114663  0  0  0.007722  0.050468  0  4.079801  0
C  C71  1  0.63703016  0.77465975  0.60116948  1  0  0.021777  0  3.863829  0  0  0.048102  0  4.093844  0  0  0.043963  0  4.114716  0  0  0.007718  0.050506  0  4.07984  0
C  C72  1  0.30897852  0.73783758  0.86094540  1  0  0.279004  0  3.719273  0  0  0.267799  0  3.981106  0  0  0.278317  0  3.999463  0  0  0.196173  0.260627  0  3.968995  0
C  C73  1  0.69103240  0.23783548  0.13905401  1  0  0.278806  0  3.718715  0  0  0.267586  0  3.980551  0  0  0.278102  0  3.998905  0  0  0.196052  0.260412  0  3.96845  0
C  C74  1  0.19102955  0.23783806  0.36094639  1  0  0.278953  0  3.719193  0  0  0.267743  0  3.981028  0  0  0.278262  0  3.999385  0  0  0.196115  0.260563  0  3.968922  0
C  C75  1  0.80897576  0.73783954  0.63905240  1  0  0.278777  0  3.719245  0  0  0.267565  0  3.981104  0  0  0.278082  0  3.999463  0  0  0.196025  0.260391  0  3.968988  0
C  C76  1  0.01150175  0.85125802  0.85682729  1  0  -0.048407  0  3.618708  0  0  -0.088317  0  3.864668  0  0  -0.084064  0  3.880423  0  0  -0.057284  -0.090703  0  3.853894  0
C  C77  1  0.98849332  0.35125729  0.14317311  1  0  -0.048423  0  3.618618  0  0  -0.088356  0  3.864587  0  0  -0.084107  0  3.880327  0  0  -0.057288  -0.090744  0  3.85383  0
C  C78  1  0.48849889  0.35125988  0.35682530  1  0  -0.048259  0  3.618562  0  0  -0.088197  0  3.864511  0  0  -0.083922  0  3.880265  0  0  -0.057245  -0.090574  0  3.853735  0
C  C79  1  0.51150602  0.85125996  0.64317387  1  0  -0.048251  0  3.618604  0  0  -0.088162  0  3.864562  0  0  -0.083897  0  3.880295  0  0  -0.057202  -0.090529  0  3.853767  0
C  C80  1  0.66350870  0.34694478  0.85942779  1  0  0.401904  0  3.794528  0  0  0.324059  0  4.082224  0  0  0.353093  0  4.082809  0  0  0.173192  0.30458  0  4.081244  0
C  C81  1  0.33649201  0.84694646  0.14057447  1  0  0.401814  0  3.794663  0  0  0.324009  0  4.08233  0  0  0.353044  0  4.082912  0  0  0.173197  0.304531  0  4.081359  0
C  C82  1  0.83649104  0.84694561  0.35942717  1  0  0.401941  0  3.794593  0  0  0.324109  0  4.082263  0  0  0.353144  0  4.082845  0  0  0.173236  0.304629  0  4.081293  0
C  C83  1  0.16350968  0.34694563  0.64057263  1  0  0.401918  0  3.794583  0  0  0.324069  0  4.082268  0  0  0.353104  0  4.082852  0  0  0.173217  0.304592  0  4.081292  0
C  C84  1  0.88909318  0.49896106  0.81387791  1  0  -0.164989  0  3.626885  0  0  -0.265496  0  3.87181  0  0  -0.261288  0  3.881487  0  0  -0.133979  -0.268072  0  3.86523  0
C  C85  1  0.11090419  0.99896196  0.18612156  1  0  -0.164899  0  3.62684  0  0  -0.265369  0  3.871733  0  0  -0.261152  0  3.881415  0  0  -0.133942  -0.267948  0  3.865145  0
C  C86  1  0.61090595  0.99896222  0.31387783  1  0  -0.164905  0  3.626935  0  0  -0.265336  0  3.871818  0  0  -0.261124  0  3.881495  0  0  -0.133943  -0.267915  0  3.86523  0
C  C87  1  0.38909424  0.49896170  0.68612103  1  0  -0.164872  0  3.626831  0  0  -0.265352  0  3.871742  0  0  -0.261141  0  3.881416  0  0  -0.133966  -0.267932  0  3.865157  0
C  C88  1  0.74003752  0.51085974  0.95230997  1  0  -0.183979  0  3.655903  0  0  -0.285519  0  3.907276  0  0  -0.282767  0  3.919747  0  0  -0.137984  -0.287047  0  3.898766  0
C  C89  1  0.25996154  0.01085957  0.04768868  1  0  -0.184074  0  3.655937  0  0  -0.285633  0  3.907315  0  0  -0.28288  0  3.919783  0  0  -0.138044  -0.287172  0  3.898811  0
C  C90  1  0.75996214  0.01086012  0.45231037  1  0  -0.183945  0  3.655953  0  0  -0.2855  0  3.907336  0  0  -0.282746  0  3.919807  0  0  -0.137987  -0.287032  0  3.89882  0
C  C91  1  0.24003832  0.51085829  0.54768890  1  0  -0.184041  0  3.65605  0  0  -0.285612  0  3.90744  0  0  -0.282864  0  3.919911  0  0  -0.138027  -0.287148  0  3.898935  0
N  N92  1  0.45147674  0.70645473  0.83220009  1  0  -0.394618  0  2.569536  0  0  -0.368249  0  2.781932  0  0  -0.379166  0  2.796028  0  0  -0.299157  -0.361047  0  2.772641  0
N  N93  1  0.54851884  0.20644998  0.16780371  1  0  -0.394484  0  2.568747  0  0  -0.368117  0  2.781157  0  0  -0.379036  0  2.795256  0  0  -0.299053  -0.36091  0  2.771855  0
N  N94  1  0.04852156  0.20645722  0.33219856  1  0  -0.394588  0  2.569196  0  0  -0.368225  0  2.781606  0  0  -0.379141  0  2.795699  0  0  -0.299128  -0.361021  0  2.772313  0
N  N95  1  0.95148245  0.70645656  0.66779968  1  0  -0.394488  0  2.569231  0  0  -0.368113  0  2.78163  0  0  -0.379025  0  2.795723  0  0  -0.299066  -0.360914  0  2.772342  0
N  N96  1  0.76151687  0.44708970  0.87443385  1  0  -0.075204  0  3.515657  0  0  0.031051  0  3.745952  0  0  0.010556  0  3.771987  0  0  -0.27666  0.044723  0  3.727975  0
N  N97  1  0.23848209  0.94709069  0.12556574  1  0  -0.075199  0  3.515644  0  0  0.031032  0  3.745949  0  0  0.010537  0  3.771978  0  0  -0.276693  0.044716  0  3.727966  0
N  N98  1  0.73848536  0.94708977  0.37443381  1  0  -0.075221  0  3.515729  0  0  0.031023  0  3.746008  0  0  0.010527  0  3.772042  0  0  -0.276663  0.044704  0  3.728027  0
N  N99  1  0.26151641  0.44708971  0.62556516  1  0  -0.075213  0  3.515696  0  0  0.031052  0  3.745975  0  0  0.010557  0  3.77201  0  0  -0.276655  0.044734  0  3.727991  0
O  O100  1  0.57051891  0.01222286  0.89220443  1  0  -0.6125  0  1.929043  0  0  -0.553971  0  2.16178  0  0  -0.582397  0  2.153294  0  0  -0.310512  -0.534081  0  2.16685  0
O  O101  1  0.42947734  0.51221822  0.10779668  1  0  -0.612468  0  1.929076  0  0  -0.553942  0  2.161827  0  0  -0.582367  0  2.153327  0  0  -0.310457  -0.534048  0  2.166897  0
O  O102  1  0.92948767  0.51221631  0.39220199  1  0  -0.612424  0  1.929043  0  0  -0.553941  0  2.161803  0  0  -0.582357  0  2.153299  0  0  -0.31052  -0.534053  0  2.16689  0
O  O103  1  0.07051280  0.01221570  0.60779728  1  0  -0.612447  0  1.929082  0  0  -0.553942  0  2.161831  0  0  -0.582365  0  2.153334  0  0  -0.310504  -0.534044  0  2.166899  0
O  O104  1  0.73695581  0.99720037  0.77598835  1  0  -0.7058  0  2.072567  0  0  -0.627529  0  2.337706  0  0  -0.659825  0  2.322871  0  0  -0.337179  -0.604604  0  2.346943  0
O  O105  1  0.26304439  0.49720303  0.22401545  1  0  -0.705861  0  2.072429  0  0  -0.627601  0  2.33759  0  0  -0.659899  0  2.322743  0  0  -0.337227  -0.604673  0  2.34683  0
O  O106  1  0.76304467  0.49720165  0.27598751  1  0  -0.705845  0  2.072598  0  0  -0.627563  0  2.337712  0  0  -0.659861  0  2.322886  0  0  -0.33722  -0.604637  0  2.346956  0
O  O107  1  0.23695693  0.99720084  0.72401258  1  0  -0.7058  0  2.072457  0  0  -0.62753  0  2.337598  0  0  -0.659824  0  2.322752  0  0  -0.337201  -0.604619  0  2.346878  0
O  O108  1  0.70579874  0.73066645  0.12189180  1  0  -0.647519  0  2.057392  0  0  -0.579411  0  2.310431  0  0  -0.61066  0  2.298408  0  0  -0.320508  -0.557362  0  2.317807  0
O  O109  1  0.29420097  0.23066883  0.87810947  1  0  -0.64755  0  2.057342  0  0  -0.579443  0  2.310388  0  0  -0.610688  0  2.298351  0  0  -0.320542  -0.557398  0  2.317767  0
O  O110  1  0.79420379  0.23066815  0.62189062  1  0  -0.647596  0  2.057304  0  0  -0.579461  0  2.310363  0  0  -0.610709  0  2.298338  0  0  -0.320534  -0.557414  0  2.317745  0
O  O111  1  0.20579732  0.73066714  0.37810942  1  0  -0.647569  0  2.057302  0  0  -0.579441  0  2.310368  0  0  -0.610686  0  2.298343  0  0  -0.320518  -0.557385  0  2.317748  0
O  O112  1  0.00326935  0.65973780  0.13811051  1  0  -0.655153  0  2.070634  0  0  -0.590086  0  2.327931  0  0  -0.621628  0  2.319179  0  0  -0.323191  -0.567823  0  2.332991  0
O  O113  1  0.99673061  0.15974016  0.86188968  1  0  -0.655201  0  2.070485  0  0  -0.590146  0  2.327806  0  0  -0.621684  0  2.31904  0  0  -0.323225  -0.567881  0  2.332863  0
O  O114  1  0.49673438  0.15974103  0.63810878  1  0  -0.655199  0  2.070468  0  0  -0.590112  0  2.327784  0  0  -0.62166  0  2.319049  0  0  -0.32321  -0.567856  0  2.332866  0
O  O115  1  0.50326557  0.65974057  0.36189079  1  0  -0.655232  0  2.070449  0  0  -0.590146  0  2.327758  0  0  -0.621703  0  2.319049  0  0  -0.323221  -0.567891  0  2.332855  0
O  O116  1  0.66853510  0.28844690  0.79254354  1  0  -0.58049  0  2.132343  0  0  -0.515946  0  2.407473  0  0  -0.544576  0  2.399013  0  0  -0.314267  -0.495887  0  2.412518  0
O  O117  1  0.33146160  0.78844557  0.20745576  1  0  -0.580427  0  2.132449  0  0  -0.515887  0  2.407541  0  0  -0.544516  0  2.399082  0  0  -0.314236  -0.495831  0  2.412598  0
O  O118  1  0.83146613  0.78844684  0.29254353  1  0  -0.580511  0  2.132392  0  0  -0.515974  0  2.407508  0  0  -0.544604  0  2.399049  0  0  -0.314278  -0.495916  0  2.412565  0
O  O119  1  0.16853479  0.28844745  0.70745639  1  0  -0.580483  0  2.132397  0  0  -0.51594  0  2.407525  0  0  -0.54457  0  2.399064  0  0  -0.314261  -0.495874  0  2.412571  0
