# generated using pymatgen
data_CuH10C11S2(NCl)2
_symmetry_space_group_name_H-M   'P 1'
_cell_length_a   8.35936425
_cell_length_b   12.21120126
_cell_length_c   13.21603831
_cell_angle_alpha   98.98562218
_cell_angle_beta   90.00033678
_cell_angle_gamma   90.00010328
_symmetry_Int_Tables_number   1
_chemical_formula_structural   CuH10C11S2(NCl)2
_chemical_formula_sum   'Cu4 H40 C44 S8 N8 Cl8'
_cell_volume   1332.50884788
_cell_formula_units_Z   4
loop_
 _symmetry_equiv_pos_site_id
 _symmetry_equiv_pos_as_xyz
  1  'x, y, z'
loop_
 _atom_site_type_symbol
 _atom_site_label
 _atom_site_symmetry_multiplicity
 _atom_site_fract_x
 _atom_site_fract_y
 _atom_site_fract_z
 _atom_site_occupancy
 _atom_site_hle17_ddec_charge
 _atom_site_hle17_ddec_spin_density
 _atom_site_hle17_ddec_sum_bond_order
 _atom_site_hle17_magmom
 _atom_site_hse06_10hf_ddec_charge
 _atom_site_hse06_10hf_ddec_spin_density
 _atom_site_hse06_10hf_ddec_sum_bond_order
 _atom_site_hse06_10hf_magmom
 _atom_site_hse06_ddec_charge
 _atom_site_hse06_ddec_spin_density
 _atom_site_hse06_ddec_sum_bond_order
 _atom_site_hse06_magmom
 _atom_site_pbe_cm5_charge
 _atom_site_pbe_ddec_charge
 _atom_site_pbe_ddec_spin_density
 _atom_site_pbe_ddec_sum_bond_order
 _atom_site_pbe_magmom
Cu  Cu0  1  0.00374695  0.87534444  0.57687588  1  0.723353  -0.616212  1.899916  -0.437  0.701844  -0.712861  2.292628  -0.549  0.792815  -0.78307  2.215515  -0.633  0.586456  0.652327  -0.669625  2.339868  -0.502
Cu  Cu1  1  0.49625391  0.37534242  0.07687509  1  0.72336  -0.616217  1.899935  -0.437  0.701851  -0.712877  2.292601  -0.549  0.792847  -0.78307  2.215507  -0.633  0.586432  0.652338  -0.669631  2.33982  -0.502
Cu  Cu2  1  0.99624655  0.12465734  0.42312226  1  0.723409  -0.61621  1.899902  -0.437  0.701874  -0.712854  2.292592  -0.549  0.79297  -0.783078  2.215452  -0.633  0.586489  0.652375  -0.669629  2.339835  -0.502
Cu  Cu3  1  0.50375036  0.62465438  0.92312459  1  0.723358  -0.616211  1.899905  -0.437  0.701822  -0.712866  2.292619  -0.549  0.792844  -0.783074  2.215505  -0.633  0.58645  0.652308  -0.669628  2.339853  -0.502
H  H4  1  0.74579907  0.00261836  0.92989125  1  0.119655  -0.00142  0.942177  -0.001  0.128665  -0.001549  1.002733  -0.001  0.132362  -0.001181  1.000873  -0.001  0.104042  0.126055  -0.001831  1.004122  -0.001
H  H5  1  0.75420236  0.50261878  0.42988991  1  0.119658  -0.00142  0.9422  -0.001  0.128659  -0.001549  1.002763  -0.001  0.132358  -0.001181  1.000899  -0.001  0.10405  0.126057  -0.001831  1.004147  -0.001
H  H6  1  0.25420281  0.99738507  0.07010865  1  0.119685  -0.00142  0.942159  -0.001  0.128697  -0.001549  1.00271  -0.001  0.132392  -0.001181  1.000859  -0.001  0.104047  0.126087  -0.001831  1.004101  -0.001
H  H7  1  0.24580190  0.49738217  0.57011189  1  0.119673  -0.001421  0.942237  -0.001  0.128697  -0.001549  1.002771  -0.001  0.1324  -0.001181  1.000898  -0.001  0.10404  0.12609  -0.001831  1.004163  -0.001
H  H8  1  0.48701359  0.05911972  0.85886970  1  0.103319  -0.000366  0.93282  -0.001  0.114009  -0.000172  0.989649  0.0  0.116849  -7.5e-05  0.987619  0.0  0.108029  0.11197  -0.000262  0.991131  0.0
H  H9  1  0.01299024  0.55912215  0.35887305  1  0.103257  -0.000367  0.932833  -0.001  0.114011  -0.000172  0.989602  0.0  0.116854  -7.5e-05  0.987562  0.0  0.107997  0.111976  -0.000262  0.991087  0.0
H  H10  1  0.51298949  0.94088537  0.14113195  1  0.103312  -0.000367  0.932766  -0.001  0.114002  -0.000172  0.989607  0.0  0.116842  -7.5e-05  0.987576  0.0  0.108008  0.111964  -0.000262  0.991089  0.0
H  H11  1  0.98701283  0.44088294  0.64112709  1  0.103309  -0.000367  0.932773  -0.001  0.114048  -0.000173  0.989561  0.0  0.11689  -7.5e-05  0.987523  0.0  0.10803  0.112014  -0.000262  0.991046  0.0
H  H12  1  0.45603662  0.03777946  0.66630942  1  0.106509  -0.000628  0.974143  0.0  0.113748  -0.000698  1.038669  0.0  0.117294  -0.000512  1.036984  0.0  0.096288  0.111301  -0.000842  1.039792  -0.001
H  H13  1  0.04397014  0.53778278  0.16631454  1  0.106529  -0.000628  0.97402  0.0  0.113836  -0.000698  1.038515  0.0  0.117424  -0.000512  1.036779  0.0  0.096305  0.11134  -0.000843  1.039681  -0.001
H  H14  1  0.54396166  0.96222397  0.33369123  1  0.106544  -0.000627  0.974147  0.0  0.113789  -0.000698  1.038658  0.0  0.117336  -0.000512  1.036969  0.0  0.096292  0.111324  -0.000843  1.0398  -0.001
H  H15  1  0.95603412  0.46222148  0.83368624  1  0.10654  -0.000628  0.974132  0.0  0.113816  -0.000698  1.038625  0.0  0.117368  -0.000512  1.03693  0.0  0.096319  0.111331  -0.000843  1.039783  -0.001
H  H16  1  0.68812557  0.96338162  0.55633546  1  0.086207  -0.001026  0.968522  -0.002  0.095225  -0.001036  1.03292  -0.001  0.097587  -0.000735  1.030766  -0.001  0.102746  0.093356  -0.001264  1.0347  -0.002
H  H17  1  0.81188559  0.46338423  0.05633768  1  0.08626  -0.001026  0.968497  -0.002  0.095266  -0.001036  1.032881  -0.001  0.097634  -0.000735  1.030731  -0.001  0.102758  0.093396  -0.001264  1.034665  -0.002
H  H18  1  0.31187391  0.03662098  0.44366583  1  0.086174  -0.001026  0.968572  -0.002  0.095218  -0.001036  1.032928  -0.001  0.097577  -0.000735  1.030779  -0.001  0.102755  0.093346  -0.001264  1.034707  -0.002
H  H19  1  0.18812107  0.53661838  0.94366360  1  0.086216  -0.001026  0.968559  -0.002  0.095247  -0.001036  1.032918  -0.001  0.097612  -0.000735  1.030769  -0.001  0.102765  0.093377  -0.001264  1.034699  -0.002
H  H20  1  0.02405164  0.73052986  0.72995474  1  0.106464  0.000552  1.00351  0.0  0.110054  0.000472  1.084126  0.0  0.111447  0.000514  1.084175  0.0  0.083718  0.108808  0.000413  1.084585  0.0
H  H21  1  0.47594427  0.23052781  0.22995387  1  0.106439  0.000552  1.003507  0.0  0.110024  0.000471  1.084126  0.0  0.111416  0.000514  1.084174  0.0  0.083702  0.108772  0.000413  1.084587  0.0
H  H22  1  0.97594904  0.26947109  0.27004479  1  0.106509  0.000552  1.003508  0.0  0.110095  0.000472  1.084108  0.0  0.111484  0.000514  1.08416  0.0  0.083735  0.108848  0.000413  1.084567  0.0
H  H23  1  0.52405282  0.76947314  0.77004642  1  0.106476  0.000552  1.00353  0.0  0.110058  0.000472  1.084141  0.0  0.111452  0.000514  1.084191  0.0  0.083726  0.108808  0.000413  1.0846  0.0
H  H24  1  0.11363559  0.73475008  0.85331733  1  0.122183  0.000262  0.981708  0.0  0.135426  0.000106  1.043006  0.0  0.137657  0.000125  1.042054  0.0  0.091531  0.134008  8.4e-05  1.043505  0.0
H  H25  1  0.38636148  0.23475118  0.35331507  1  0.122172  0.000262  0.981721  0.0  0.135409  0.000106  1.043019  0.0  0.137639  0.000125  1.042066  0.0  0.091528  0.133993  8.4e-05  1.04352  0.0
H  H26  1  0.88636270  0.26525003  0.14668284  1  0.122182  0.000262  0.981738  0.0  0.135419  0.000106  1.043031  0.0  0.137647  0.000125  1.042077  0.0  0.091519  0.134  8.3e-05  1.043529  0.0
H  H27  1  0.61363442  0.76524977  0.64668295  1  0.122207  0.000262  0.981762  0.0  0.135416  0.000105  1.043082  0.0  0.137647  0.000125  1.042133  0.0  0.09153  0.134  8.4e-05  1.043582  0.0
H  H28  1  0.05375760  0.80145455  0.01067176  1  0.112602  -0.000925  0.986702  -0.001  0.119826  -0.000976  1.05339  -0.001  0.123614  -0.000724  1.051611  -0.001  0.096016  0.117155  -0.001172  1.054748  -0.001
H  H29  1  0.44624245  0.30144955  0.51067014  1  0.112625  -0.000924  0.98671  -0.001  0.119846  -0.000975  1.053378  -0.001  0.123633  -0.000724  1.051598  -0.001  0.09602  0.117173  -0.001171  1.054737  -0.001
H  H30  1  0.94625145  0.19854474  0.98932678  1  0.112737  -0.000924  0.986668  -0.001  0.119907  -0.000975  1.053392  -0.001  0.123693  -0.000724  1.051617  -0.001  0.096041  0.117239  -0.001171  1.05475  -0.001
H  H31  1  0.55375823  0.69854643  0.48932639  1  0.11266  -0.000925  0.986658  -0.001  0.119886  -0.000976  1.053328  -0.001  0.123678  -0.000724  1.05155  -0.001  0.096037  0.117217  -0.001172  1.054694  -0.001
H  H32  1  0.00237902  0.84148119  0.19812849  1  0.092309  -0.00018  0.954246  -0.001  0.104244  3e-05  1.013154  0.0  0.10616  8.2e-05  1.011942  0.0  0.101949  0.10281  -2.6e-05  1.014106  0.0
H  H33  1  0.49761570  0.34147629  0.69812482  1  0.092359  -0.00018  0.954219  -0.001  0.10428  3e-05  1.013152  0.0  0.106195  8.2e-05  1.011936  0.0  0.101968  0.102843  -2.6e-05  1.014104  0.0
H  H34  1  0.99762166  0.15851644  0.80187207  1  0.092329  -0.00018  0.954333  -0.001  0.104262  3e-05  1.013249  0.0  0.106178  8.2e-05  1.012037  0.0  0.101958  0.10283  -2.6e-05  1.014202  0.0
H  H35  1  0.50237541  0.65852467  0.30187093  1  0.092407  -0.000181  0.954157  -0.001  0.104317  3e-05  1.013106  0.0  0.106231  8.2e-05  1.011888  0.0  0.10198  0.102881  -2.6e-05  1.014059  0.0
H  H36  1  0.73789453  0.79100593  0.26705926  1  0.11001  -0.001446  0.963992  -0.001  0.1217  -0.001467  1.021635  -0.001  0.125071  -0.001112  1.020488  -0.001  0.098102  0.11936  -0.001737  1.022471  -0.001
H  H37  1  0.76210137  0.29100555  0.76705915  1  0.109965  -0.001445  0.964067  -0.001  0.12166  -0.001468  1.021709  -0.001  0.12503  -0.001112  1.020564  -0.001  0.098091  0.119318  -0.001737  1.022544  -0.001
H  H38  1  0.26210734  0.20899005  0.73293804  1  0.110005  -0.001445  0.963962  -0.001  0.12171  -0.001467  1.021588  -0.001  0.125079  -0.001112  1.020444  -0.001  0.098116  0.119369  -0.001737  1.022423  -0.001
H  H39  1  0.23789093  0.70899872  0.23294163  1  0.109993  -0.001446  0.963995  -0.001  0.121666  -0.001467  1.021656  -0.001  0.125037  -0.001112  1.020513  -0.001  0.098119  0.119324  -0.001737  1.022491  -0.001
H  H40  1  0.53418695  0.69557645  0.14175215  1  0.080052  -0.001184  0.987424  -0.002  0.087137  -0.001168  1.057607  -0.002  0.089009  -0.000811  1.055665  -0.001  0.102162  0.085598  -0.001441  1.059253  -0.002
H  H41  1  0.96582429  0.19558225  0.64175522  1  0.080047  -0.001183  0.987373  -0.002  0.087129  -0.001168  1.057591  -0.002  0.089002  -0.000811  1.05565  -0.001  0.10215  0.085589  -0.00144  1.059236  -0.002
H  H42  1  0.46581971  0.30441538  0.85824529  1  0.080035  -0.001184  0.987423  -0.002  0.08711  -0.001168  1.057626  -0.002  0.088982  -0.000811  1.055683  -0.001  0.102152  0.085568  -0.001441  1.059269  -0.002
H  H43  1  0.03417160  0.80442035  0.35824758  1  0.080142  -0.001184  0.987481  -0.002  0.087248  -0.001168  1.057623  -0.002  0.089123  -0.000811  1.055681  -0.001  0.102228  0.085708  -0.00144  1.059268  -0.002
C  C44  1  0.85092606  0.95300647  0.78119295  1  0.174534  0.007397  3.767574  0.005  0.179654  0.000472  4.032374  0.0  0.187676  0.002339  4.055803  0.002  0.109549  0.174431  -0.000907  4.016922  -0.001
C  C45  1  0.64907280  0.45300379  0.28119229  1  0.174547  0.007401  3.767484  0.005  0.179703  0.00047  4.032223  0.0  0.187725  0.00234  4.05565  0.002  0.109596  0.174486  -0.000905  4.016769  -0.001
C  C46  1  0.14907103  0.04699614  0.21880833  1  0.174463  0.007399  3.767499  0.005  0.179613  0.000472  4.032269  0.0  0.187639  0.00234  4.055704  0.002  0.109543  0.174397  -0.000908  4.01681  -0.001
C  C47  1  0.35093147  0.54699549  0.71880927  1  0.174594  0.00739  3.767475  0.005  0.179704  0.000473  4.032287  0.0  0.187727  0.002339  4.055717  0.002  0.109574  0.174483  -0.000906  4.016836  -0.001
C  C48  1  0.72782496  0.99571238  0.84755507  1  -0.133528  -0.00983  3.703869  -0.01  -0.152216  -0.004453  3.949684  -0.005  -0.158284  -0.004061  3.968606  -0.005  -0.078834  -0.148116  -0.004698  3.936585  -0.005
C  C49  1  0.77217702  0.49571159  0.34755438  1  -0.133529  -0.009832  3.703839  -0.01  -0.152237  -0.004453  3.949663  -0.005  -0.158305  -0.004062  3.968583  -0.005  -0.078877  -0.148145  -0.004699  3.93658  -0.005
C  C50  1  0.27217213  0.00429023  0.15244622  1  -0.133514  -0.009832  3.703846  -0.01  -0.152212  -0.004453  3.949651  -0.005  -0.158282  -0.004062  3.96857  -0.005  -0.078778  -0.148113  -0.004695  3.936552  -0.005
C  C51  1  0.22782724  0.50429101  0.65244691  1  -0.13355  -0.009824  3.70393  -0.01  -0.15225  -0.004454  3.949741  -0.005  -0.158318  -0.004061  3.968666  -0.005  -0.078783  -0.148155  -0.004696  3.936653  -0.005
C  C52  1  0.58398479  0.02743089  0.80749421  1  0.018138  0.012333  3.689584  0.008  0.00122  0.004029  3.935703  0.003  0.005868  0.005012  3.951302  0.003  -0.060567  -0.001609  0.00322  3.924781  0.002
C  C53  1  0.91601916  0.52742994  0.30749857  1  0.018175  0.012338  3.689674  0.008  0.001227  0.00403  3.935766  0.003  0.005867  0.005013  3.951389  0.003  -0.060534  -0.001607  0.003218  3.924847  0.002
C  C54  1  0.41601469  0.97257338  0.19250505  1  0.018184  0.012337  3.689491  0.008  0.001269  0.00403  3.935612  0.003  0.005915  0.005014  3.95121  0.003  -0.060579  -0.001564  0.003214  3.924691  0.002
C  C55  1  0.08398391  0.47257350  0.69250132  1  0.018165  0.012326  3.68962  0.008  0.001212  0.00403  3.935723  0.003  0.005857  0.005012  3.951328  0.003  -0.060585  -0.001623  0.003215  3.924805  0.002
C  C56  1  0.56709185  0.01604644  0.70154592  1  -0.111821  -0.009519  3.723734  -0.01  -0.121925  -0.003916  3.969816  -0.005  -0.128635  -0.003641  3.990634  -0.004  -0.082194  -0.117472  -0.004111  3.955474  -0.005
C  C57  1  0.93291467  0.51604717  0.20155135  1  -0.111782  -0.009524  3.723731  -0.01  -0.121996  -0.003918  3.969772  -0.005  -0.128741  -0.003642  3.990576  -0.004  -0.082208  -0.117495  -0.00411  3.955457  -0.005
C  C58  1  0.43290882  0.98395617  0.29845309  1  -0.111888  -0.009522  3.723748  -0.01  -0.122009  -0.003917  3.969833  -0.005  -0.128718  -0.003642  3.990643  -0.004  -0.082173  -0.117533  -0.004107  3.9555  -0.005
C  C59  1  0.06708959  0.48395460  0.79844830  1  -0.111838  -0.009516  3.723773  -0.01  -0.122011  -0.003916  3.969857  -0.005  -0.128723  -0.003641  3.990676  -0.004  -0.082249  -0.117515  -0.004107  3.955535  -0.005
C  C60  1  0.69437525  0.97331129  0.63968545  1  0.133104  0.011215  3.662721  0.008  0.103023  0.002621  3.914562  0.002  0.110539  0.004585  3.934888  0.003  0.039605  0.098335  0.00114  3.901379  0.001
C  C61  1  0.80562594  0.47331223  0.13968816  1  0.132975  0.011219  3.662864  0.008  0.102949  0.002622  3.914637  0.002  0.110451  0.004586  3.934989  0.003  0.039608  0.098262  0.001139  3.901436  0.001
C  C62  1  0.30562303  0.02669131  0.36031508  1  0.133171  0.011217  3.662673  0.008  0.103081  0.002621  3.914511  0.002  0.110602  0.004586  3.934845  0.003  0.039599  0.098395  0.001137  3.901323  0.001
C  C63  1  0.19437713  0.52668706  0.86031264  1  0.133073  0.011209  3.662743  0.008  0.103016  0.00262  3.914535  0.002  0.110524  0.004585  3.934875  0.003  0.039622  0.09833  0.001136  3.901335  0.001
C  C64  1  0.01153796  0.76294819  0.81183116  1  -0.213031  0.002208  3.652854  0.002  -0.236369  0.001329  3.910957  0.001  -0.234229  0.001497  3.918073  0.001  -0.154989  -0.237623  0.001106  3.905976  0.001
C  C65  1  0.48846000  0.26294782  0.31182982  1  -0.213003  0.002206  3.652936  0.002  -0.236294  0.00133  3.910962  0.001  -0.234144  0.001496  3.918063  0.001  -0.154953  -0.237546  0.001109  3.90598  0.001
C  C66  1  0.98846153  0.23705193  0.18816825  1  -0.213109  0.002207  3.65291  0.002  -0.236453  0.00133  3.911055  0.001  -0.234295  0.001497  3.918142  0.001  -0.155005  -0.237703  0.001109  3.90607  0.001
C  C67  1  0.51153710  0.73705313  0.68817046  1  -0.213174  0.002204  3.653146  0.002  -0.236391  0.001329  3.911049  0.001  -0.234258  0.001497  3.918171  0.001  -0.155019  -0.237637  0.001107  3.906061  0.001
C  C68  1  0.81769329  0.73029141  0.97719187  1  0.193807  0.007575  3.751481  0.006  0.196093  0.000715  4.013726  0.001  0.209163  0.002696  4.032691  0.002  0.115614  0.187788  -0.000723  4.000871  0.0
C  C69  1  0.68231039  0.23028962  0.47719297  1  0.193821  0.007592  3.751437  0.006  0.196098  0.000722  4.013699  0.001  0.209168  0.002694  4.032667  0.002  0.115626  0.187793  -0.000723  4.00085  0.0
C  C70  1  0.18231337  0.26970290  0.02280820  1  0.193867  0.007588  3.751608  0.006  0.196211  0.000713  4.013718  0.001  0.209279  0.002699  4.032684  0.002  0.115647  0.187904  -0.000724  4.000866  0.0
C  C71  1  0.31768670  0.76970635  0.52280734  1  0.193884  0.007574  3.75158  0.006  0.196224  0.000717  4.013724  0.001  0.209292  0.002695  4.032694  0.002  0.115668  0.187918  -0.000725  4.000876  0.0
C  C72  1  0.93957388  0.77985616  0.04189790  1  -0.158389  -0.00993  3.704791  -0.01  -0.174604  -0.004303  3.948584  -0.005  -0.182962  -0.003989  3.967474  -0.004  -0.092625  -0.16914  -0.004507  3.935678  -0.005
C  C73  1  0.56042708  0.27985623  0.54189862  1  -0.15836  -0.009944  3.70477  -0.01  -0.174562  -0.004309  3.948594  -0.005  -0.182918  -0.003987  3.967482  -0.004  -0.092608  -0.169098  -0.004506  3.935686  -0.005
C  C74  1  0.06043278  0.22013649  0.95810193  1  -0.158558  -0.009943  3.704979  -0.01  -0.174756  -0.0043  3.948793  -0.005  -0.183115  -0.003991  3.967681  -0.004  -0.092686  -0.169296  -0.004507  3.935889  -0.005
C  C75  1  0.43957001  0.72014223  0.45810055  1  -0.158456  -0.009928  3.70488  -0.01  -0.174682  -0.004303  3.94865  -0.005  -0.183049  -0.003988  3.967545  -0.004  -0.09266  -0.169226  -0.004507  3.935753  -0.005
C  C76  1  0.91068703  0.80148915  0.14658929  1  0.01324  0.01245  3.7239  0.009  -0.003611  0.004117  3.970751  0.003  0.002671  0.005097  3.986687  0.003  -0.070041  -0.007572  0.003315  3.959759  0.002
C  C77  1  0.58931855  0.30149010  0.64658949  1  0.013104  0.012463  3.724108  0.009  -0.003746  0.004119  3.970975  0.003  0.002536  0.005095  3.986914  0.003  -0.070118  -0.007702  0.003312  3.959979  0.002
C  C78  1  0.08931604  0.19850599  0.85341015  1  0.01327  0.012464  3.724041  0.009  -0.003584  0.004114  3.970878  0.003  0.002696  0.005101  3.986816  0.003  -0.070017  -0.007547  0.003313  3.95989  0.002
C  C79  1  0.41067615  0.69851002  0.35341143  1  0.013007  0.012445  3.724069  0.009  -0.003837  0.004115  3.97093  0.003  0.00245  0.005096  3.986866  0.003  -0.070109  -0.007789  0.003313  3.959934  0.002
C  C80  1  0.76362336  0.77316542  0.18546282  1  -0.134414  -0.010698  3.740098  -0.011  -0.148932  -0.004863  3.991791  -0.006  -0.156423  -0.004373  4.011402  -0.005  -0.095661  -0.144046  -0.005222  3.978354  -0.006
C  C81  1  0.73637892  0.27316416  0.68546248  1  -0.134313  -0.01071  3.740191  -0.011  -0.148816  -0.004859  3.991869  -0.006  -0.156306  -0.004372  4.011482  -0.005  -0.095631  -0.143924  -0.005219  3.978428  -0.006
C  C82  1  0.23637852  0.22683056  0.81453447  1  -0.13441  -0.010712  3.740027  -0.011  -0.148931  -0.004862  3.991704  -0.006  -0.15642  -0.004375  4.011314  -0.005  -0.095672  -0.144046  -0.005217  3.978267  -0.006
C  C83  1  0.26361339  0.72683512  0.31453832  1  -0.134337  -0.010694  3.74014  -0.011  -0.148824  -0.004862  3.991806  -0.006  -0.156315  -0.004372  4.011417  -0.005  -0.095719  -0.143939  -0.00522  3.978364  -0.006
C  C84  1  0.65051868  0.72189506  0.11732000  1  0.130504  0.011053  3.70541  0.008  0.098637  0.002382  3.962672  0.002  0.108094  0.004431  3.981963  0.003  0.037856  0.092675  0.000857  3.950091  0.001
C  C85  1  0.84949121  0.22189567  0.61732112  1  0.130514  0.011068  3.705224  0.008  0.098608  0.00238  3.962538  0.002  0.10806  0.004429  3.981837  0.003  0.03791  0.092651  0.000855  3.949966  0.001
C  C86  1  0.34948319  0.27810091  0.88267805  1  0.130441  0.011068  3.705488  0.008  0.098565  0.00238  3.962763  0.002  0.108022  0.004434  3.982052  0.003  0.03782  0.092607  0.000854  3.950179  0.001
C  C87  1  0.15050349  0.77810693  0.38267941  1  0.130429  0.01105  3.705455  0.008  0.098524  0.002382  3.962727  0.002  0.107971  0.00443  3.98202  0.003  0.037871  0.092569  0.000856  3.950149  0.001
S  S88  1  0.03201709  0.91354588  0.83447764  1  -0.03471  -0.002295  2.421598  -0.003  -0.048832  -0.002248  2.770279  -0.002  -0.05172  -0.00121  2.77011  -0.002  -0.008192  -0.046609  -0.003218  2.770595  -0.003
S  S89  1  0.46798147  0.41354381  0.33447446  1  -0.034717  -0.002295  2.421633  -0.003  -0.048878  -0.002248  2.770296  -0.002  -0.05177  -0.00121  2.770123  -0.002  -0.008211  -0.04666  -0.003219  2.770617  -0.003
S  S90  1  0.96798000  0.08645673  0.16552289  1  -0.034676  -0.002294  2.421597  -0.003  -0.048815  -0.002248  2.770276  -0.002  -0.051712  -0.00121  2.770105  -0.002  -0.008203  -0.046602  -0.003219  2.770587  -0.003
S  S91  1  0.53201921  0.58645714  0.66552355  1  -0.034691  -0.002294  2.421613  -0.003  -0.048843  -0.002248  2.770264  -0.002  -0.051732  -0.00121  2.7701  -0.002  -0.008213  -0.046626  -0.003218  2.770585  -0.003
S  S92  1  0.82630932  0.70322719  0.84400412  1  0.04407  0.001273  2.603597  -0.002  0.038295  0.000922  2.960571  -0.002  0.028914  0.001852  2.962914  -0.001  0.042615  0.043468  3.4e-05  2.960527  -0.002
S  S93  1  0.67368946  0.20322622  0.34400303  1  0.044018  0.001274  2.603627  -0.002  0.038249  0.000923  2.960575  -0.002  0.028859  0.001851  2.962923  -0.001  0.0426  0.043419  3.2e-05  2.960531  -0.002
S  S94  1  0.17369734  0.29676961  0.15599632  1  0.044075  0.001275  2.60356  -0.002  0.038289  0.00092  2.960491  -0.002  0.02891  0.001852  2.962818  -0.001  0.042616  0.043459  3.2e-05  2.960444  -0.002
S  S95  1  0.32630284  0.79676727  0.65599541  1  0.044097  0.001272  2.603665  -0.002  0.038279  0.000922  2.960582  -0.002  0.028907  0.001851  2.962913  -0.001  0.042603  0.043445  3.2e-05  2.960542  -0.002
N  N96  1  0.83388361  0.94263099  0.67809336  1  -0.322691  -0.076031  3.333544  -0.095  -0.267487  -0.054406  3.612989  -0.072  -0.299654  -0.046145  3.639469  -0.065  -0.340188  -0.248932  -0.058549  3.59745  -0.074
N  N97  1  0.66611786  0.44263332  0.17809348  1  -0.322633  -0.076036  3.333557  -0.095  -0.267448  -0.054408  3.612955  -0.072  -0.29962  -0.046148  3.639452  -0.065  -0.340187  -0.248892  -0.058552  3.597394  -0.074
N  N98  1  0.16611348  0.05737161  0.32190793  1  -0.322722  -0.076028  3.333513  -0.095  -0.267533  -0.054404  3.612957  -0.072  -0.299737  -0.046142  3.63948  -0.065  -0.34024  -0.248987  -0.058547  3.59742  -0.074
N  N99  1  0.33388880  0.55736679  0.82190819  1  -0.322734  -0.076027  3.333547  -0.095  -0.26752  -0.054406  3.612967  -0.072  -0.299698  -0.046144  3.639468  -0.065  -0.340219  -0.248971  -0.058548  3.597424  -0.074
N  N100  1  0.67711231  0.70009691  0.01575519  1  -0.328628  -0.086294  3.353328  -0.108  -0.270632  -0.060819  3.626539  -0.081  -0.303978  -0.051167  3.650726  -0.073  -0.349823  -0.251284  -0.065683  3.612254  -0.083
N  N101  1  0.82288820  0.20009250  0.51575547  1  -0.328646  -0.086308  3.353437  -0.108  -0.270624  -0.060824  3.626654  -0.081  -0.303986  -0.051167  3.650865  -0.073  -0.349851  -0.251278  -0.065682  3.612383  -0.083
N  N102  1  0.32288957  0.29990238  0.98424410  1  -0.328646  -0.086306  3.353499  -0.108  -0.270646  -0.060819  3.626674  -0.081  -0.303989  -0.051173  3.650858  -0.073  -0.349818  -0.251293  -0.065684  3.612385  -0.083
N  N103  1  0.17711008  0.79990513  0.48424509  1  -0.328628  -0.086299  3.353354  -0.108  -0.270648  -0.060823  3.626578  -0.081  -0.303983  -0.051169  3.65075  -0.073  -0.34984  -0.251292  -0.065684  3.612298  -0.083
Cl  Cl104  1  0.87425064  0.70793314  0.55734643  1  -0.498241  -0.130881  0.902374  -0.154  -0.489207  -0.087613  1.163983  -0.109  -0.520244  -0.068303  1.143942  -0.092  -0.30471  -0.47095  -0.098754  1.177839  -0.117
Cl  Cl105  1  0.62574550  0.20793456  0.05734552  1  -0.498252  -0.130878  0.902416  -0.154  -0.489205  -0.08761  1.16401  -0.109  -0.520249  -0.068302  1.143976  -0.092  -0.304729  -0.470962  -0.098752  1.177859  -0.117
Cl  Cl106  1  0.12574406  0.29206946  0.44265712  1  -0.498258  -0.130889  0.902388  -0.154  -0.489218  -0.087618  1.163979  -0.109  -0.520283  -0.068308  1.143933  -0.092  -0.304728  -0.470968  -0.09876  1.177834  -0.117
Cl  Cl107  1  0.37425399  0.79206638  0.94265704  1  -0.498251  -0.130888  0.902371  -0.154  -0.489215  -0.087617  1.163965  -0.109  -0.520264  -0.068308  1.143927  -0.092  -0.304726  -0.470966  -0.098758  1.177816  -0.117
Cl  Cl108  1  0.14857871  0.03790661  0.59699487  1  -0.53459  -0.107448  1.063128  -0.127  -0.534978  -0.07464  1.364499  -0.094  -0.566664  -0.057113  1.340233  -0.078  -0.278445  -0.516077  -0.08559  1.381524  -0.102
Cl  Cl109  1  0.35142383  0.53790390  0.09699343  1  -0.534572  -0.107449  1.063133  -0.127  -0.534942  -0.074639  1.364485  -0.094  -0.566634  -0.057114  1.340231  -0.078  -0.278427  -0.516048  -0.085585  1.381494  -0.102
Cl  Cl110  1  0.85141599  0.96209101  0.40300569  1  -0.534617  -0.107448  1.063154  -0.127  -0.534999  -0.074641  1.364524  -0.094  -0.566705  -0.057114  1.340263  -0.078  -0.278438  -0.516099  -0.085586  1.381539  -0.102
Cl  Cl111  1  0.64858284  0.46209042  0.90300437  1  -0.534601  -0.107452  1.0631  -0.127  -0.534986  -0.074641  1.364479  -0.094  -0.56668  -0.057115  1.340219  -0.078  -0.278455  -0.516088  -0.085591  1.381478  -0.102
