# generated using pymatgen
data_Fe3H14C12(NO4)4
_symmetry_space_group_name_H-M   'P 1'
_cell_length_a   7.36681675
_cell_length_b   8.51335621
_cell_length_c   8.92806619
_cell_angle_alpha   114.79559609
_cell_angle_beta   107.36958207
_cell_angle_gamma   95.74654616
_symmetry_Int_Tables_number   1
_chemical_formula_structural   Fe3H14C12(NO4)4
_chemical_formula_sum   'Fe3 H14 C12 N4 O16'
_cell_volume   468.44164250
_cell_formula_units_Z   1
loop_
 _symmetry_equiv_pos_site_id
 _symmetry_equiv_pos_as_xyz
  1  'x, y, z'
loop_
 _atom_site_type_symbol
 _atom_site_label
 _atom_site_symmetry_multiplicity
 _atom_site_fract_x
 _atom_site_fract_y
 _atom_site_fract_z
 _atom_site_occupancy
 _atom_site_pbe_cm5_charge
 _atom_site_pbe_ddec_charge
 _atom_site_pbe_ddec_spin_density
 _atom_site_pbe_ddec_sum_bond_order
 _atom_site_pbe_magmom
Fe  Fe0  1  0.12495707  0.24746615  0.77154016  1  0.746358  1.041097  4.049005  2.521029  3.68
Fe  Fe1  1  0.87433098  0.75180836  0.23639926  1  0.644536  0.775553  -0.029608  2.990375  0.027
Fe  Fe2  1  0.00394864  0.00100935  0.00150628  1  0.650325  0.691973  -0.020117  2.988428  0.052
H  H3  1  0.33682722  0.61288291  0.51223928  1  0.117404  0.137937  0.000649  1.003923  0.001
H  H4  1  0.65739152  0.39276927  0.48670895  1  0.118944  0.142016  -0.000148  0.998904  0.0
H  H5  1  0.52717402  0.36573668  0.84856112  1  0.299366  0.395741  0.000792  0.943078  0.002
H  H6  1  0.48803436  0.63215985  0.15267146  1  0.305098  0.390756  -0.000864  0.945391  -0.001
H  H7  1  0.48882385  0.25198466  0.94398188  1  0.30257  0.384817  0.000154  0.95322  0.001
H  H8  1  0.52785958  0.74506377  0.05665584  1  0.310241  0.386855  -0.000355  0.933995  -0.001
H  H9  1  0.74516870  0.28572725  0.70707189  1  0.302644  0.393001  0.000457  0.941213  0.001
H  H10  1  0.23665492  0.69933670  0.28331254  1  0.306482  0.393208  0.000308  0.940492  0.001
H  H11  1  0.76010270  0.11212692  0.54763321  1  0.322713  0.41071  0.000123  0.875273  0.0
H  H12  1  0.23000563  0.87732161  0.44627947  1  0.32916  0.40974  -0.000589  0.864202  0.0
H  H13  1  0.25909093  0.90680093  0.17616274  1  0.304695  0.38641  0.000653  0.93009  0.001
H  H14  1  0.73730144  0.08127704  0.81770871  1  0.301577  0.387478  0.000343  0.93596  0.001
H  H15  1  0.31108387  0.87892261  0.00636968  1  0.299552  0.383164  -0.000246  0.957371  0.0
H  H16  1  0.70018794  0.12317834  0.99751851  1  0.299155  0.382786  -0.000201  0.959775  0.0
C  C17  1  0.25646676  0.57940564  0.78808416  1  0.207371  0.52053  -0.005417  4.226567  0.0
C  C18  1  0.74158579  0.42813691  0.21370950  1  0.202881  0.500454  -0.003768  4.21392  -0.002
C  C19  1  0.20244010  0.44710785  0.59843598  1  0.099571  0.129527  -0.042361  4.055141  -0.03
C  C20  1  0.78204151  0.56083788  0.39843561  1  0.096248  0.116075  -0.006364  4.025201  -0.005
C  C21  1  0.24822693  0.48297838  0.47518713  1  -0.087413  -0.212046  0.002295  3.98663  0.009
C  C22  1  0.74427612  0.52365600  0.52449004  1  -0.087372  -0.212182  0.005301  3.98633  0.008
C  C23  1  0.17916991  0.34293047  0.30232299  1  0.100127  0.108565  -0.046436  3.99372  -0.031
C  C24  1  0.82116690  0.66015360  0.69916429  1  0.102979  0.110364  -0.006261  3.992676  -0.005
C  C25  1  0.22027000  0.37049652  0.16294462  1  0.228036  0.560357  -0.016945  4.140792  -0.008
C  C26  1  0.78388189  0.63053102  0.84076965  1  0.232642  0.559375  -0.001115  4.123316  0.0
C  C27  1  0.01806946  0.15283438  0.37783627  1  0.332402  0.628113  -0.002256  4.076952  0.001
C  C28  1  0.98054258  0.84866066  0.61957577  1  0.329959  0.613528  0.003224  4.063128  0.006
N  N29  1  0.09977231  0.28226063  0.55204847  1  -0.362591  -0.459555  0.020881  3.532915  0.034
N  N30  1  0.88391503  0.72661590  0.44190690  1  -0.364518  -0.379008  0.001482  3.550389  0.004
N  N31  1  0.06401716  0.17820855  0.24957249  1  -0.347434  -0.351488  -0.021762  3.459351  -0.018
N  N32  1  0.94031342  0.82161181  0.74920671  1  -0.345097  -0.358891  0.003905  3.463554  0.008
O  O33  1  0.18462689  0.52401272  0.87721757  1  -0.316938  -0.542695  0.041532  2.320618  0.062
O  O34  1  0.81929983  0.48954593  0.12992639  1  -0.301447  -0.487711  -0.00232  2.376832  0.0
O  O35  1  0.36709631  0.73458036  0.85195105  1  -0.298853  -0.506718  -0.001275  2.183805  0.0
O  O36  1  0.64454192  0.26755198  0.14824983  1  -0.297909  -0.499324  -0.002977  2.195088  -0.002
O  O37  1  0.32071909  0.52049494  0.20092255  1  -0.293267  -0.538136  -0.01264  2.297309  -0.012
O  O38  1  0.68050378  0.48038152  0.79800624  1  -0.290257  -0.530323  -0.001281  2.298457  0.0
O  O39  1  0.14324608  0.23325472  0.00453052  1  -0.286184  -0.492951  0.019247  2.476589  0.027
O  O40  1  0.86408727  0.76508577  0.00117356  1  -0.265314  -0.447915  -0.002336  2.416545  0.0
O  O41  1  0.89405739  0.01359711  0.34174283  1  -0.310921  -0.532404  -0.000431  2.407437  0.001
O  O42  1  0.11031466  0.98539254  0.65901357  1  -0.315836  -0.554202  0.040617  2.376145  0.057
O  O43  1  0.42958676  0.26878580  0.83850400  1  -0.583591  -0.763682  0.030556  2.185608  0.05
O  O44  1  0.58243992  0.73427834  0.16684264  1  -0.556502  -0.689307  -0.001004  2.246872  0.002
O  O45  1  0.79194194  0.17380462  0.67676897  1  -0.543452  -0.742913  0.023794  2.115176  0.033
O  O46  1  0.18559166  0.80999160  0.31586326  1  -0.524016  -0.684395  -0.00168  2.171356  0.0
O  O47  1  0.27021513  0.96377660  0.10206129  1  -0.556216  -0.675737  -0.006963  2.227015  -0.005
O  O48  1  0.73664716  0.03345668  0.90120923  1  -0.557909  -0.678546  -0.007597  2.238845  -0.006
