# generated using pymatgen
data_ZnH12C21N(O2F)2
_symmetry_space_group_name_H-M   'P 1'
_cell_length_a   11.30217995
_cell_length_b   18.33058627
_cell_length_c   19.71672255
_cell_angle_alpha   89.69139311
_cell_angle_beta   89.43254954
_cell_angle_gamma   108.86160858
_symmetry_Int_Tables_number   1
_chemical_formula_structural   ZnH12C21N(O2F)2
_chemical_formula_sum   'Zn2 H24 C42 N2 O8 F4'
_cell_volume   3865.12867534
_cell_formula_units_Z   2
loop_
 _symmetry_equiv_pos_site_id
 _symmetry_equiv_pos_as_xyz
  1  'x, y, z'
loop_
 _atom_site_type_symbol
 _atom_site_label
 _atom_site_symmetry_multiplicity
 _atom_site_fract_x
 _atom_site_fract_y
 _atom_site_fract_z
 _atom_site_occupancy
 _atom_site_pbe_bader_charge
 _atom_site_pbe_bader_spin_density
 _atom_site_pbe_cm5_charge
 _atom_site_pbe_ddec_charge
 _atom_site_pbe_ddec_spin_density
 _atom_site_pbe_ddec_sum_bond_order
 _atom_site_pbe_magmom
Zn  Zn0  1  0.51890423  0.57922213  0.49615773  1  1.289112  0  0.662536  0.837002  0  2.404483  0
Zn  Zn1  1  0.48094041  0.42076276  0.50073474  1  1.287587  0  0.662209  0.836487  0  2.40349  0
H  H2  1  0.87176541  0.43323366  0.49281984  1  0.071671  0  0.103953  0.102229  0  0.991366  0
H  H3  1  0.12808540  0.56729297  0.49093220  1  0.065796  0  0.10434  0.102823  0  0.990615  0
H  H4  1  0.65034070  0.86538700  0.41836082  1  0.094903  0  0.119202  0.148694  0  0.983412  0
H  H5  1  0.35081033  0.13586863  0.58255873  1  0.116248  0  0.119577  0.148451  0  0.98405  0
H  H6  1  0.36435132  0.79741599  0.57610271  1  0.10428  0  0.114791  0.125119  0  0.990614  0
H  H7  1  0.63516925  0.20155367  0.42386658  1  0.091413  0  0.114503  0.125149  0  0.990561  0
H  H8  1  0.38326140  0.66483262  0.57074754  1  0.1676  0  0.133579  0.113423  0  0.969961  0
H  H9  1  0.61635667  0.33421665  0.42772646  1  0.165427  0  0.133331  0.11328  0  0.971403  0
H  H10  1  0.47264622  0.92428905  0.60761826  1  0.087735  0  0.108974  0.108804  0  0.99253  0
H  H11  1  0.52659998  0.07554931  0.39315480  1  0.047951  0  0.10888  0.108383  0  0.992696  0
H  H12  1  0.46945915  0.05800675  0.60998292  1  0.064662  0  0.108465  0.109208  0  0.991007  0
H  H13  1  0.52989906  0.94189108  0.39080477  1  0.071266  0  0.108754  0.108968  0  0.991634  0
H  H14  1  0.93667878  0.61014651  0.49202686  1  0.10399  0  0.103797  0.120586  0  0.99074  0
H  H15  1  0.06332778  0.39047119  0.49636411  1  0.116273  0  0.103364  0.120466  0  0.992139  0
H  H16  1  0.50504065  0.37679508  0.28094310  1  0.084824  0  0.101604  0.104344  0  1.004705  0
H  H17  1  0.49209573  0.62187475  0.71549966  1  0.090695  0  0.101323  0.103702  0  1.004721  0
H  H18  1  0.51084078  0.37867539  0.15448243  1  0.057662  0  0.0989  0.102413  0  1.004473  0
H  H19  1  0.48678225  0.62070610  0.84192444  1  0.064265  0  0.098523  0.102545  0  1.004669  0
H  H20  1  0.49912332  0.61142894  0.15581414  1  0.065013  0  0.099188  0.098556  0  1.00446  0
H  H21  1  0.50315552  0.38901086  0.84169445  1  0.045816  0  0.098839  0.098305  0  1.004877  0
H  H22  1  0.49770632  0.60885741  0.28250895  1  0.093592  0  0.103029  0.108379  0  1.001872  0
H  H23  1  0.50522342  0.39098129  0.71502446  1  0.10005  0  0.102925  0.108131  0  1.00189  0
H  H24  1  0.35996007  0.55227581  0.06584043  1  0.092317  0  0.113819  0.137999  0  0.982613  0
H  H25  1  0.64053476  0.44821396  0.93119927  1  0.092267  0  0.113859  0.138041  0  0.983581  0
C  C26  1  0.50034465  0.50705452  0.63162195  1  1.503721  0  0.21375  0.593616  0  4.17091  0
C  C27  1  0.49971231  0.49184992  0.36522941  1  1.49539  0  0.212344  0.591722  0  4.174196  0
C  C28  1  0.50118390  0.49270479  0.28914093  1  0.066202  0  -0.017599  -0.02819  0  3.960612  0
C  C29  1  0.49888958  0.50652483  0.70774386  1  0.088033  0  -0.018046  -0.029567  0  3.959953  0
C  C30  1  0.42373707  0.53017790  0.03714163  1  0.020635  0  -0.09945  -0.241815  0  4.00562  0
C  C31  1  0.57669505  0.47030036  0.95985725  1  0.038368  0  -0.10019  -0.242916  0  4.008097  0
C  C32  1  0.42264681  0.53300804  0.96692411  1  0.394629  0  0.089638  0.22914  0  4.060936  0
C  C33  1  0.57777311  0.46746091  0.03005152  1  0.389781  0  0.09044  0.230849  0  4.059756  0
C  C34  1  0.49780030  0.50342411  0.92559379  1  0.08793  0  -0.012792  -0.015045  0  4.025167  0
C  C35  1  0.50250542  0.49695845  0.07138911  1  0.095969  0  -0.012766  -0.015235  0  4.025856  0
C  C36  1  0.58898686  0.74832957  0.45439325  1  1.052854  0  0.245676  0.455362  0  4.070533  0
C  C37  1  0.41177408  0.25241907  0.54514870  1  1.056303  0  0.245785  0.454069  0  4.068603  0
C  C38  1  0.58732760  0.82372321  0.45274650  1  0.067986  0  -0.090573  -0.307938  0  3.938946  0
C  C39  1  0.41346949  0.17703499  0.54765902  1  0.057235  0  -0.090771  -0.306192  0  3.938859  0
C  C40  1  0.50631310  0.84369499  0.49769243  1  -0.027854  0  0.017831  0.141698  0  4.002853  0
C  C41  1  0.49384009  0.15638092  0.50278548  1  -0.018811  0  0.018024  0.14249  0  4.004649  0
C  C42  1  0.43116668  0.78559328  0.54126316  1  -0.035401  0  -0.086804  -0.20495  0  3.956284  0
C  C43  1  0.56872792  0.21389877  0.45860884  1  0.035276  0  -0.087117  -0.206093  0  3.956344  0
C  C44  1  0.43993658  0.71196049  0.53858578  1  0.486113  0  0.066357  0.137523  0  3.905637  0
C  C45  1  0.55994718  0.28754370  0.46041385  1  0.428491  0  0.066297  0.137018  0  3.904716  0
C  C46  1  0.48266535  0.95689047  0.56027496  1  -0.033175  0  -0.082503  -0.119158  0  3.978127  0
C  C47  1  0.51674915  0.04301208  0.44050339  1  0.019512  0  -0.082  -0.116926  0  3.978951  0
C  C48  1  0.25718150  0.46851314  0.49749934  1  1.543264  0  0.204812  0.633583  0  4.18344  0
C  C49  1  0.74274958  0.53232261  0.49493456  1  1.554377  0  0.205543  0.633847  0  4.180796  0
C  C50  1  0.48087514  0.03236688  0.56159223  1  -0.037233  0  -0.081181  -0.116897  0  3.977535  0
C  C51  1  0.51857036  0.96756028  0.43919455  1  -0.067113  0  -0.082096  -0.117421  0  3.976989  0
C  C52  1  0.49785534  0.07675328  0.50174688  1  -0.040295  0  -0.004273  0.061252  0  3.993167  0
C  C53  1  0.50181338  0.92320797  0.49904101  1  -0.001971  0  -0.003759  0.064455  0  3.987664  0
C  C54  1  0.11977307  0.45133819  0.49506756  1  -0.105145  0  -0.091941  -0.225573  0  3.885362  0
C  C55  1  0.88018252  0.54928731  0.49245374  1  -0.103002  0  -0.093455  -0.225222  0  3.882261  0
C  C56  1  0.06631773  0.50740599  0.49219343  1  0.024605  0  -0.080422  -0.035516  0  4.033197  0
C  C57  1  0.93360205  0.49312454  0.49199859  1  -0.036634  0  -0.078613  -0.035486  0  4.032843  0
C  C58  1  0.50478803  0.42801782  0.25273924  1  -0.005401  0  -0.086463  -0.089923  0  3.993725  0
C  C59  1  0.49364948  0.57103569  0.74389592  1  -0.023494  0  -0.086213  -0.087848  0  3.993115  0
C  C60  1  0.50771978  0.42930734  0.18216742  1  -0.036017  0  -0.093341  -0.135185  0  3.98956  0
C  C61  1  0.49089322  0.57015263  0.81445420  1  -0.038978  0  -0.093191  -0.136459  0  3.98972  0
C  C62  1  0.50434526  0.49506730  0.14619206  1  -0.086453  0  -0.008316  0.08573  0  4.008324  0
C  C63  1  0.49571057  0.50492718  0.85077822  1  -0.094315  0  -0.007469  0.087267  0  4.006102  0
C  C64  1  0.49973820  0.55959368  0.18306857  1  -0.039283  0  -0.094265  -0.138749  0  3.99315  0
C  C65  1  0.50159438  0.44049295  0.81416508  1  -0.032264  0  -0.094247  -0.139592  0  3.99352  0
C  C66  1  0.49924697  0.55867901  0.25360246  1  -0.048142  0  -0.084572  -0.085937  0  3.989428  0
C  C67  1  0.50235266  0.44107785  0.74363477  1  -0.040696  0  -0.084422  -0.085263  0  3.98899  0
N  N68  1  0.51916500  0.69338081  0.49538332  1  -1.226698  0  -0.315961  -0.291777  0  3.473047  0
N  N69  1  0.48102514  0.30672619  0.50340440  1  -1.249283  0  -0.316112  -0.291162  0  3.469727  0
O  O70  1  0.50820565  0.57025276  0.60164137  1  -1.169743  0  -0.321163  -0.556452  0  2.312474  0
O  O71  1  0.48566468  0.42765947  0.39496877  1  -1.162716  0  -0.321605  -0.554997  0  2.308094  0
O  O72  1  0.49360608  0.44378875  0.60280823  1  -1.163349  0  -0.321547  -0.555659  0  2.337723  0
O  O73  1  0.51260340  0.55595218  0.39410692  1  -1.166525  0  -0.320741  -0.554764  0  2.340065  0
O  O74  1  0.32564252  0.53909564  0.49786965  1  -1.158689  0  -0.323593  -0.566168  0  2.329888  0
O  O75  1  0.67393017  0.46184267  0.49364014  1  -1.175549  0  -0.323055  -0.566588  0  2.331243  0
O  O76  1  0.29587367  0.41024519  0.49929685  1  -1.150894  0  -0.327272  -0.551864  0  2.275101  0
O  O77  1  0.70435070  0.59060214  0.49851825  1  -1.14464  0  -0.32811  -0.552288  0  2.273285  0
F  F78  1  0.34031127  0.56396074  0.93750671  1  -0.638733  0  -0.112046  -0.15597  0  1.326226  0
F  F79  1  0.66008065  0.43652278  0.05952121  1  -0.639109  0  -0.112348  -0.156484  0  1.324919  0
F  F80  1  0.66700092  0.72814887  0.41220584  1  -0.620082  0  -0.073288  -0.134297  0  1.324455  0
F  F81  1  0.33414249  0.27319688  0.58712597  1  -0.621403  0  -0.073069  -0.133543  0  1.323929  0
