# generated using pymatgen
data_CdH9C11O6
_symmetry_space_group_name_H-M   'P 1'
_cell_length_a   8.33069782
_cell_length_b   9.15982823
_cell_length_c   19.50301243
_cell_angle_alpha   89.99961698
_cell_angle_beta   89.99989212
_cell_angle_gamma   105.24597614
_symmetry_Int_Tables_number   1
_chemical_formula_structural   CdH9C11O6
_chemical_formula_sum   'Cd4 H36 C44 O24'
_cell_volume   1435.85409628
_cell_formula_units_Z   4
loop_
 _symmetry_equiv_pos_site_id
 _symmetry_equiv_pos_as_xyz
  1  'x, y, z'
loop_
 _atom_site_type_symbol
 _atom_site_label
 _atom_site_symmetry_multiplicity
 _atom_site_fract_x
 _atom_site_fract_y
 _atom_site_fract_z
 _atom_site_occupancy
 _atom_site_pbe_bader_charge
 _atom_site_pbe_bader_spin_density
 _atom_site_pbe_cm5_charge
 _atom_site_pbe_ddec_charge
 _atom_site_pbe_ddec_spin_density
 _atom_site_pbe_ddec_sum_bond_order
 _atom_site_pbe_magmom
Cd  Cd0  1  0.74529996  0.43724604  0.27569953  1  1.324922  0  0.776506  1.056667  0  2.015879  0
Cd  Cd1  1  0.25470771  0.06275526  0.77569536  1  1.324998  0  0.776507  1.0566  0  2.015896  0
Cd  Cd2  1  0.25470965  0.56275620  0.72430306  1  1.325051  0  0.776492  1.056633  0  2.015865  0
Cd  Cd3  1  0.74529531  0.93724433  0.22430108  1  1.324931  0  0.77651  1.056652  0  2.015829  0
H  H4  1  0.25002282  0.44486344  0.95137124  1  0.120523  0  0.112365  0.120809  0  1.005573  0
H  H5  1  0.42427782  0.38617814  0.23392517  1  0.111037  0  0.096067  0.090842  0  1.067845  0
H  H6  1  0.25062963  0.51896568  0.16933553  1  0.057661  0  0.10189  0.105731  0  0.989334  0
H  H7  1  0.22473459  0.20859859  0.00077076  1  0.099376  0  0.100517  0.107677  0  1.027824  0
H  H8  1  0.40947110  0.08218736  0.06452461  1  0.122717  0  0.108396  0.116461  0  0.990447  0
H  H9  1  0.92871983  0.37690385  0.37793503  1  0.598896  0  0.309457  0.393817  0  0.902395  0
H  H10  1  0.82465525  0.20898680  0.35817940  1  0.644885  0  0.287696  0.388614  0  0.953014  0
H  H11  1  0.10667878  0.59788155  0.29400903  1  0.614778  0  0.313971  0.395632  0  0.896888  0
H  H12  1  0.98928680  0.68833230  0.32731160  1  0.664374  0  0.289684  0.399266  0  0.941927  0
H  H13  1  0.74996346  0.05512688  0.45136988  1  0.120975  0  0.112342  0.120756  0  1.005668  0
H  H14  1  0.57570803  0.11382689  0.73391699  1  0.111205  0  0.09608  0.09089  0  1.067799  0
H  H15  1  0.74935240  0.98103871  0.66932714  1  0.057853  0  0.101876  0.10576  0  0.989361  0
H  H16  1  0.77527636  0.29141640  0.50076497  1  0.099373  0  0.100558  0.107892  0  1.027439  0
H  H17  1  0.59053828  0.41782758  0.56451808  1  0.122614  0  0.108374  0.116453  0  0.990369  0
H  H18  1  0.07129887  0.12308980  0.87793493  1  0.59898  0  0.309396  0.393733  0  0.902505  0
H  H19  1  0.17535093  0.29100971  0.85817820  1  0.644907  0  0.287664  0.388645  0  0.952986  0
H  H20  1  0.89332406  0.90212213  0.79401153  1  0.614812  0  0.313971  0.395596  0  0.896952  0
H  H21  1  0.01071889  0.81167436  0.82731508  1  0.664379  0  0.289716  0.399314  0  0.941859  0
H  H22  1  0.74995703  0.55512907  0.04863033  1  0.121182  0  0.112323  0.120769  0  1.005563  0
H  H23  1  0.57574689  0.61384402  0.76607333  1  0.110649  0  0.096099  0.090888  0  1.067875  0
H  H24  1  0.74937239  0.48104608  0.83066758  1  0.057726  0  0.101928  0.105778  0  0.989469  0
H  H25  1  0.77525329  0.79140335  0.99923183  1  0.099443  0  0.100524  0.107749  0  1.027796  0
H  H26  1  0.59053264  0.91782118  0.93547234  1  0.122814  0  0.108376  0.116408  0  0.990526  0
H  H27  1  0.07127611  0.62310195  0.62207115  1  0.598683  0  0.309398  0.393787  0  0.902462  0
H  H28  1  0.17534996  0.79101739  0.64182370  1  0.644866  0  0.287653  0.388602  0  0.953059  0
H  H29  1  0.89332693  0.40211933  0.70599664  1  0.614737  0  0.313957  0.395614  0  0.896916  0
H  H30  1  0.01070622  0.31166552  0.67268689  1  0.664448  0  0.289669  0.399267  0  0.941922  0
H  H31  1  0.25001933  0.94485692  0.54862810  1  0.120537  0  0.112392  0.120823  0  1.005631  0
H  H32  1  0.42429427  0.88616931  0.26608202  1  0.111201  0  0.096007  0.090873  0  1.067753  0
H  H33  1  0.25063892  0.01895678  0.33066879  1  0.057904  0  0.101883  0.105738  0  0.989305  0
H  H34  1  0.22472130  0.70858062  0.49923455  1  0.099303  0  0.100592  0.107887  0  1.027452  0
H  H35  1  0.40946767  0.58217443  0.43548195  1  0.122581  0  0.108394  0.116506  0  0.990411  0
H  H36  1  0.92871491  0.87690381  0.12206459  1  0.598958  0  0.309437  0.393789  0  0.902366  0
H  H37  1  0.82465112  0.70898537  0.14182234  1  0.64487  0  0.287672  0.38858  0  0.953052  0
H  H38  1  0.10668262  0.09788326  0.20599260  1  0.614735  0  0.313951  0.395583  0  0.896923  0
H  H39  1  0.98929071  0.18833345  0.17268905  1  0.664386  0  0.28967  0.399262  0  0.94193  0
C  C40  1  0.96290223  0.47350027  0.07037059  1  -0.006997  0  -0.010842  -0.066767  0  3.929858  0
C  C41  1  0.10523756  0.43803351  0.04274757  1  -0.001899  0  0.003534  0.058999  0  3.956712  0
C  C42  1  0.13791823  0.46669027  0.97286537  1  -0.040198  0  -0.078941  -0.140034  0  3.945154  0
C  C43  1  0.90598868  0.44680746  0.14348449  1  1.538629  0  0.210629  0.578698  0  4.193351  0
C  C44  1  0.42842147  0.22497918  0.15325479  1  -0.027405  0  -0.028743  -0.059381  0  4.009777  0
C  C45  1  0.38250579  0.34831208  0.18243319  1  -0.033657  0  -0.09325  -0.107113  0  4.003292  0
C  C46  1  0.28179096  0.42118498  0.14660533  1  -0.046122  0  -0.088403  -0.108767  0  3.964676  0
C  C47  1  0.22012648  0.36987630  0.08147241  1  -0.065507  0  -0.00184  0.074668  0  3.989168  0
C  C48  1  0.26964938  0.24855731  0.05175255  1  -0.036538  0  -0.087243  -0.122507  0  3.95478  0
C  C49  1  0.37252830  0.17716342  0.08711690  1  -0.066371  0  -0.082685  -0.082348  0  3.977725  0
C  C50  1  0.53650374  0.14598165  0.19163099  1  1.532457  0  0.198769  0.568398  0  4.228212  0
C  C51  1  0.03708982  0.02648451  0.57036055  1  -0.012612  0  -0.01074  -0.06648  0  3.929375  0
C  C52  1  0.89474593  0.06196674  0.54274390  1  -0.001741  0  0.003481  0.058669  0  3.957001  0
C  C53  1  0.86206932  0.03330089  0.47286398  1  -0.046348  0  -0.078844  -0.139834  0  3.945362  0
C  C54  1  0.09399877  0.05318582  0.64348970  1  1.538556  0  0.210522  0.578427  0  4.193234  0
C  C55  1  0.57158149  0.27502496  0.65324613  1  -0.028192  0  -0.028582  -0.059081  0  4.009515  0
C  C56  1  0.61748689  0.15168980  0.68242641  1  -0.033461  0  -0.093359  -0.107402  0  4.003636  0
C  C57  1  0.71819473  0.07881704  0.64659919  1  -0.045544  0  -0.088352  -0.108698  0  3.964749  0
C  C58  1  0.77986469  0.13013272  0.58146966  1  -0.065341  0  -0.00181  0.074904  0  3.989267  0
C  C59  1  0.73035671  0.25145317  0.55174691  1  -0.036765  0  -0.087293  -0.122826  0  3.954647  0
C  C60  1  0.62747843  0.32285097  0.58711010  1  -0.066358  0  -0.082685  -0.082376  0  3.977599  0
C  C61  1  0.46349932  0.35403522  0.69162577  1  1.533577  0  0.198642  0.568002  0  4.227946  0
C  C62  1  0.03708836  0.52649183  0.92963097  1  -0.012487  0  -0.010745  -0.066656  0  3.929462  0
C  C63  1  0.89475448  0.56196536  0.95725194  1  -0.001398  0  0.003591  0.058927  0  3.956602  0
C  C64  1  0.86207139  0.53329731  0.02714081  1  -0.046416  0  -0.078874  -0.139919  0  3.945224  0
C  C65  1  0.09399898  0.55318779  0.85651451  1  1.53882  0  0.21059  0.578687  0  4.19324  0
C  C66  1  0.57159718  0.77502031  0.84673704  1  -0.02784  0  -0.028733  -0.059261  0  4.009149  0
C  C67  1  0.61750942  0.65169944  0.81756120  1  -0.032926  0  -0.093246  -0.107067  0  4.003401  0
C  C68  1  0.71821547  0.57881929  0.85339624  1  -0.046275  0  -0.088406  -0.108848  0  3.965243  0
C  C69  1  0.77985898  0.63011992  0.91852146  1  -0.065647  0  -0.001839  0.07475  0  3.989036  0
C  C70  1  0.73034166  0.75145374  0.94825107  1  -0.036871  0  -0.087391  -0.122764  0  3.954787  0
C  C71  1  0.62748496  0.82284463  0.91288775  1  -0.066198  0  -0.082623  -0.082293  0  3.97765  0
C  C72  1  0.46351438  0.85403784  0.80836340  1  1.532443  0  0.198901  0.568398  0  4.227869  0
C  C73  1  0.96290495  0.97349340  0.42963025  1  -0.006991  0  -0.010834  -0.066651  0  3.929375  0
C  C74  1  0.10523246  0.93802456  0.45725408  1  -0.001975  0  0.003515  0.058883  0  3.95695  0
C  C75  1  0.13791762  0.96668541  0.52713707  1  -0.040377  0  -0.078948  -0.139993  0  3.945811  0
C  C76  1  0.90599280  0.94680523  0.35651186  1  1.538349  0  0.210477  0.578489  0  4.193194  0
C  C77  1  0.42843303  0.72496091  0.34675441  1  -0.027814  0  -0.02867  -0.058958  0  4.009239  0
C  C78  1  0.38251199  0.84830730  0.31757465  1  -0.032874  0  -0.093291  -0.107604  0  4.003415  0
C  C79  1  0.28179440  0.92117386  0.35339982  1  -0.046477  0  -0.088336  -0.108477  0  3.964598  0
C  C80  1  0.22012737  0.86985503  0.41853242  1  -0.064778  0  -0.001782  0.074656  0  3.989455  0
C  C81  1  0.26963924  0.74854707  0.44825312  1  -0.036693  0  -0.087333  -0.122776  0  3.954843  0
C  C82  1  0.37252924  0.67714781  0.41289095  1  -0.066712  0  -0.08266  -0.082412  0  3.977516  0
C  C83  1  0.53650027  0.64597083  0.30837579  1  1.533621  0  0.198735  0.568186  0  4.228195  0
O  O84  1  0.82612283  0.53739088  0.16860820  1  -1.154259  0  -0.312877  -0.567966  0  2.312934  0
O  O85  1  0.93045965  0.33984739  0.17926886  1  -1.183273  0  -0.307703  -0.562662  0  2.277127  0
O  O86  1  0.55970918  0.02532026  0.16499578  1  -1.136835  0  -0.32745  -0.545921  0  2.20411  0
O  O87  1  0.59883268  0.19732485  0.24917635  1  -1.173793  0  -0.336095  -0.583644  0  2.308247  0
O  O88  1  0.81610641  0.31250141  0.37151924  1  -1.199331  0  -0.576016  -0.732438  0  2.033365  0
O  O89  1  0.00463477  0.58364063  0.32037117  1  -1.252652  0  -0.577484  -0.776817  0  2.069445  0
O  O90  1  0.17388365  0.96259843  0.66860392  1  -1.153912  0  -0.312874  -0.567924  0  2.312786  0
O  O91  1  0.06951037  0.16014972  0.67927069  1  -1.183581  0  -0.307627  -0.562544  0  2.27722  0
O  O92  1  0.44031436  0.47471286  0.66499228  1  -1.136678  0  -0.327345  -0.545659  0  2.203874  0
O  O93  1  0.40115278  0.30267878  0.74916980  1  -1.175145  0  -0.336122  -0.583559  0  2.308138  0
O  O94  1  0.18391306  0.18750130  0.87151834  1  -1.199488  0  -0.575928  -0.732357  0  2.03347  0
O  O95  1  0.99537221  0.91636622  0.82037252  1  -1.252667  0  -0.57754  -0.776814  0  2.069413  0
O  O96  1  0.17385849  0.46259728  0.83139183  1  -1.154333  0  -0.31286  -0.567958  0  2.312888  0
O  O97  1  0.06954434  0.66016228  0.82073425  1  -1.183307  0  -0.307719  -0.56271  0  2.277013  0
O  O98  1  0.44032356  0.97471132  0.83499809  1  -1.136945  0  -0.327514  -0.545852  0  2.203856  0
O  O99  1  0.40117595  0.80267844  0.75082060  1  -1.173812  0  -0.336121  -0.583735  0  2.308422  0
O  O100  1  0.18389294  0.68750350  0.62848540  1  -1.199165  0  -0.575899  -0.732386  0  2.033423  0
O  O101  1  0.99536581  0.41635880  0.67963039  1  -1.252552  0  -0.577452  -0.776797  0  2.069467  0
O  O102  1  0.82611914  0.03740003  0.33139200  1  -1.153689  0  -0.312828  -0.567921  0  2.312616  0
O  O103  1  0.93046826  0.83984271  0.32072677  1  -1.183448  0  -0.307626  -0.562585  0  2.277143  0
O  O104  1  0.55969182  0.52529584  0.33500570  1  -1.137005  0  -0.327317  -0.545744  0  2.204041  0
O  O105  1  0.59884390  0.69731928  0.25083125  1  -1.1751  0  -0.336199  -0.583685  0  2.308094  0
O  O106  1  0.81609704  0.81249764  0.12848220  1  -1.199347  0  -0.575971  -0.732346  0  2.033355  0
O  O107  1  0.00463617  0.08364151  0.17963059  1  -1.252592  0  -0.577453  -0.776766  0  2.069468  0
