# generated using pymatgen
data_VH13C12SNO5
_symmetry_space_group_name_H-M   'P 1'
_cell_length_a   6.75649321
_cell_length_b   13.19085987
_cell_length_c   16.44909188
_cell_angle_alpha   89.99987777
_cell_angle_beta   90.00023358
_cell_angle_gamma   90.00026428
_symmetry_Int_Tables_number   1
_chemical_formula_structural   VH13C12SNO5
_chemical_formula_sum   'V4 H52 C48 S4 N4 O20'
_cell_volume   1466.00812713
_cell_formula_units_Z   4
loop_
 _symmetry_equiv_pos_site_id
 _symmetry_equiv_pos_as_xyz
  1  'x, y, z'
loop_
 _atom_site_type_symbol
 _atom_site_label
 _atom_site_symmetry_multiplicity
 _atom_site_fract_x
 _atom_site_fract_y
 _atom_site_fract_z
 _atom_site_occupancy
 _atom_site_pbe_bader_charge
 _atom_site_pbe_bader_spin_density
 _atom_site_pbe_cm5_charge
 _atom_site_pbe_ddec_charge
 _atom_site_pbe_ddec_spin_density
 _atom_site_pbe_ddec_sum_bond_order
 _atom_site_pbe_magmom
V  V0  1  0.08034638  0.73097065  0.00034231  1  2.098317  -0.76448  1.420715  1.827292  -0.808098  3.016026  -0.777
V  V1  1  0.41962960  0.26903011  0.50034262  1  2.098176  -0.764435  1.420773  1.827037  -0.808058  3.016315  -0.777
V  V2  1  0.91963291  0.23098094  0.49966521  1  2.09857  0.76447  1.420692  1.826755  0.8081  3.0166  0.777
V  V3  1  0.58034030  0.76901602  0.99966472  1  2.098579  0.764514  1.420604  1.82688  0.808162  3.016217  0.777
H  H4  1  0.06150263  0.47454801  0.84847384  1  0.126262  7.2e-05  0.099012  0.09717  0.000162  1.055318  0.0
H  H5  1  0.43849614  0.52545032  0.34848115  1  0.126237  7.2e-05  0.098983  0.097102  0.000163  1.055281  0.0
H  H6  1  0.93849555  0.97454108  0.65153316  1  0.126372  -7.2e-05  0.09899  0.097173  -0.000162  1.055454  0.0
H  H7  1  0.56150074  0.02546059  0.15153585  1  0.126413  -7.2e-05  0.09901  0.097212  -0.000162  1.055345  0.0
H  H8  1  0.45890281  0.57477403  0.81660788  1  0.114537  -2.9e-05  0.112681  0.120896  -0.000117  0.99118  0.0
H  H9  1  0.04108824  0.42521528  0.31659769  1  0.114167  -2.9e-05  0.112615  0.120821  -0.000117  0.991162  0.0
H  H10  1  0.54109662  0.07476900  0.68340345  1  0.114741  2.9e-05  0.112577  0.12074  0.000117  0.991174  0.0
H  H11  1  0.95889408  0.92522652  0.18339491  1  0.114613  2.9e-05  0.112591  0.120834  0.000117  0.990987  0.0
H  H12  1  0.42242720  0.46266394  0.69630282  1  0.113569  0.000101  0.108205  0.112678  0.000193  1.022627  0.0
H  H13  1  0.07754634  0.53732039  0.19629068  1  0.113357  0.0001  0.108105  0.112436  0.000193  1.022727  0.0
H  H14  1  0.57757236  0.96264884  0.80369751  1  0.113558  -0.000101  0.108187  0.112626  -0.000193  1.022746  0.0
H  H15  1  0.92241364  0.03734106  0.30369590  1  0.11347  -0.000101  0.108211  0.112663  -0.000193  1.022631  0.0
H  H16  1  0.02552875  0.36088684  0.72710733  1  0.111759  -3.4e-05  0.112717  0.120708  -0.000116  0.980515  0.0
H  H17  1  0.47445546  0.63911332  0.22711025  1  0.111813  -3.4e-05  0.112737  0.120667  -0.000116  0.980454  0.0
H  H18  1  0.97445372  0.86088652  0.77290594  1  0.11136  3.4e-05  0.112702  0.120661  0.000116  0.980297  0.0
H  H19  1  0.52552753  0.13911105  0.27290656  1  0.11059  3.4e-05  0.11271  0.12066  0.000116  0.980415  0.0
H  H20  1  0.01526888  0.43184895  0.07077802  1  0.080127  -1.4e-05  0.091019  0.102871  1e-06  0.99263  0.0
H  H21  1  0.48473889  0.56815011  0.57077306  1  0.080132  -1.4e-05  0.090965  0.102798  1e-06  0.99262  0.0
H  H22  1  0.98475493  0.93185506  0.42922309  1  0.080189  1.4e-05  0.091028  0.102949  -1e-06  0.992411  0.0
H  H23  1  0.51526344  0.06814967  0.92920606  1  0.080277  1.4e-05  0.09106  0.102888  -1e-06  0.992671  0.0
H  H24  1  0.96566503  0.31233493  0.02302246  1  0.092246  5e-06  0.084738  0.081336  -1e-06  1.063981  0.0
H  H25  1  0.53434474  0.68766936  0.52302264  1  0.092151  5e-06  0.084756  0.081382  -1e-06  1.06389  0.0
H  H26  1  0.03434894  0.81233539  0.47696852  1  0.092177  -5e-06  0.084778  0.081403  1e-06  1.063863  0.0
H  H27  1  0.46567186  0.18766866  0.97695445  1  0.092073  -5e-06  0.084756  0.081371  1e-06  1.063887  0.0
H  H28  1  0.21130190  0.22650318  0.10832267  1  0.025707  5e-06  0.080636  0.04305  4e-06  1.011229  0.0
H  H29  1  0.28870922  0.77349502  0.60832495  1  0.025753  5e-06  0.080678  0.04314  4e-06  1.011211  0.0
H  H30  1  0.78869363  0.72651419  0.39167635  1  0.025919  -5e-06  0.080674  0.043089  -4e-06  1.011274  0.0
H  H31  1  0.71131991  0.27349064  0.89166051  1  0.025819  -5e-06  0.080618  0.043083  -4e-06  1.011412  0.0
H  H32  1  0.03406112  0.29010221  0.17029368  1  0.05156  -2e-06  0.098277  0.07503  3e-06  0.975296  0.0
H  H33  1  0.46595212  0.70989431  0.67029331  1  0.051454  -2e-06  0.098272  0.075047  3e-06  0.975268  0.0
H  H34  1  0.96593196  0.79011081  0.32969916  1  0.051625  2e-06  0.098271  0.07506  -4e-06  0.975247  0.0
H  H35  1  0.53407799  0.20989570  0.82968496  1  0.051143  2e-06  0.098246  0.075082  -4e-06  0.975269  0.0
H  H36  1  0.60256504  0.41100260  0.15877668  1  0.032093  5e-06  0.09465  0.069574  2e-06  1.014037  0.0
H  H37  1  0.89744464  0.58899906  0.65877154  1  0.032213  5e-06  0.094662  0.069596  2e-06  1.014037  0.0
H  H38  1  0.39743641  0.91101422  0.34123297  1  0.032216  -5e-06  0.094656  0.069589  -2e-06  1.014205  0.0
H  H39  1  0.10257857  0.08899625  0.84121362  1  0.031982  -5e-06  0.094664  0.069668  -2e-06  1.014142  0.0
H  H40  1  0.55341158  0.29941322  0.10082096  1  -0.008154  3.9e-05  0.080046  0.042974  2.8e-05  1.018964  0.0
H  H41  1  0.94660195  0.70058935  0.60082179  1  -0.008195  3.9e-05  0.080053  0.043093  2.8e-05  1.018939  0.0
H  H42  1  0.44658897  0.79942254  0.39917977  1  -0.008035  -3.9e-05  0.080077  0.043075  -2.8e-05  1.018951  0.0
H  H43  1  0.05342068  0.20058398  0.89916197  1  -0.008226  -3.9e-05  0.080096  0.043146  -2.8e-05  1.019023  0.0
H  H44  1  0.58827742  0.44667141  0.00955685  1  0.065645  9e-05  0.096375  0.11061  4.3e-05  0.9794  0.0
H  H45  1  0.91172630  0.55333670  0.50955241  1  0.065657  9e-05  0.096393  0.110699  4.3e-05  0.979243  0.0
H  H46  1  0.41174503  0.94667661  0.49045395  1  0.065724  -9.1e-05  0.096368  0.110632  -4.3e-05  0.979278  0.0
H  H47  1  0.08828184  0.05333043  0.99043403  1  0.065813  -9.1e-05  0.096359  0.110579  -4.3e-05  0.979263  0.0
H  H48  1  0.40010194  0.51424819  0.06248479  1  0.112219  3.1e-05  0.097312  0.120993  0.000149  0.988441  0.0
H  H49  1  0.09990427  0.48575316  0.56247874  1  0.112365  3.1e-05  0.097328  0.120956  0.000149  0.988511  0.0
H  H50  1  0.59992445  0.01425174  0.43751946  1  0.11194  -3.1e-05  0.097316  0.120974  -0.000149  0.98852  0.0
H  H51  1  0.90010288  0.98575069  0.93750149  1  0.112172  -3.1e-05  0.097341  0.12103  -0.000149  0.988362  0.0
H  H52  1  0.34502167  0.32796816  0.22316490  1  0.381897  -5e-05  0.285338  0.228374  -4.4e-05  0.972387  0.0
H  H53  1  0.15498767  0.67203125  0.72316470  1  0.381957  -5e-05  0.285323  0.228336  -4.4e-05  0.97246  0.0
H  H54  1  0.65497023  0.82798291  0.27683273  1  0.382059  5e-05  0.285359  0.228414  4.4e-05  0.972359  0.0
H  H55  1  0.84503622  0.17202526  0.77681728  1  0.381647  5e-05  0.285325  0.228445  4.4e-05  0.972137  0.0
C  C56  1  0.78613083  0.60746516  0.90451996  1  1.499341  0.000255  0.232477  0.620997  0.000416  4.113668  0.001
C  C57  1  0.71386360  0.39253357  0.40452105  1  1.499311  0.000259  0.232495  0.62103  0.00042  4.113545  0.001
C  C58  1  0.21384369  0.10747619  0.59549131  1  1.499136  -0.000274  0.232407  0.620963  -0.000431  4.113983  -0.001
C  C59  1  0.28615546  0.89252508  0.09548680  1  1.499415  -0.000273  0.232377  0.620934  -0.000429  4.11378  -0.001
C  C60  1  0.76303389  0.53226770  0.83840146  1  -0.044611  -0.000321  -0.011711  -0.037615  -0.000313  3.959431  0.0
C  C61  1  0.73696430  0.46772742  0.33840003  1  -0.044673  -0.000322  -0.011663  -0.037497  -0.000314  3.959152  0.0
C  C62  1  0.23696963  0.03227481  0.66161116  1  -0.044449  0.000318  -0.011675  -0.037771  0.00031  3.959343  0.0
C  C63  1  0.26302871  0.96772780  0.16160891  1  -0.04418  0.000316  -0.011696  -0.037741  0.000309  3.959328  0.0
C  C64  1  0.92287384  0.47101947  0.81456081  1  -0.019653  7.2e-05  -0.076969  -0.084698  4.9e-05  3.949839  0.0
C  C65  1  0.57713299  0.52897950  0.31456084  1  -0.019564  7.3e-05  -0.076999  -0.084724  4.9e-05  3.950111  0.0
C  C66  1  0.07711247  0.97101853  0.68544740  1  -0.01987  -7.7e-05  -0.076949  -0.08468  -5.3e-05  3.94965  0.0
C  C67  1  0.42288464  0.02898477  0.18545189  1  -0.020279  -7.6e-05  -0.076952  -0.084685  -5.2e-05  3.949761  0.0
C  C68  1  0.58133733  0.52698052  0.79704888  1  0.000499  -0.000411  -0.075665  -0.084496  -0.000363  3.949113  0.0
C  C69  1  0.91865748  0.47301395  0.29703862  1  0.001525  -0.000411  -0.075646  -0.084486  -0.000364  3.948966  0.0
C  C70  1  0.41864543  0.02697739  0.70296131  1  0.001052  0.000404  -0.075529  -0.08419  0.000358  3.949375  0.0
C  C71  1  0.08135630  0.97302056  0.20295572  1  0.000896  0.000407  -0.075584  -0.084308  0.00036  3.949357  0.0
C  C72  1  0.56084090  0.46352376  0.73032548  1  -0.001512  0.000101  -0.077797  -0.091841  8e-05  3.957802  0.0
C  C73  1  0.93913695  0.53646179  0.23032062  1  -0.001706  0.0001  -0.077607  -0.091412  7.9e-05  3.957851  0.0
C  C74  1  0.43916163  0.96351976  0.76968153  1  -0.001923  -0.000101  -0.077766  -0.091696  -8e-05  3.95776  0.0
C  C75  1  0.06083486  0.03647498  0.26967691  1  -0.001875  -0.000104  -0.077776  -0.091847  -8.3e-05  3.957704  0.0
C  C76  1  0.90209768  0.40730268  0.74786538  1  -0.070575  -0.000334  -0.074722  -0.082821  -0.000295  3.944063  0.0
C  C77  1  0.59789368  0.59269116  0.24787080  1  -0.070761  -0.000336  -0.074679  -0.082673  -0.000297  3.943946  0.0
C  C78  1  0.09790293  0.90730693  0.75214173  1  -0.070645  0.000333  -0.074729  -0.082706  0.000294  3.944173  0.0
C  C79  1  0.40209190  0.09269013  0.25214061  1  -0.069812  0.000331  -0.074713  -0.082692  0.000292  3.944363  0.0
C  C80  1  0.72253980  0.40479167  0.70467014  1  -0.071645  -0.000291  -0.012038  -0.041439  -0.000297  3.969264  0.0
C  C81  1  0.77745259  0.59520304  0.20466491  1  -0.071746  -0.000289  -0.012137  -0.041686  -0.000296  3.969218  0.0
C  C82  1  0.27744154  0.90478566  0.79533880  1  -0.07049  0.000279  -0.012183  -0.041848  0.000288  3.969524  0.0
C  C83  1  0.22254929  0.09520977  0.29533920  1  -0.070435  0.000282  -0.012146  -0.04172  0.000291  3.969359  0.0
C  C84  1  0.70756395  0.34497988  0.62880581  1  1.494524  -0.000988  0.231757  0.621472  -0.000979  4.114804  0.0
C  C85  1  0.79239658  0.65501655  0.12880598  1  1.495773  -0.00099  0.231536  0.621345  -0.000983  4.114972  0.0
C  C86  1  0.29242431  0.84497068  0.87120262  1  1.494614  0.000975  0.231629  0.621557  0.000972  4.114523  0.0
C  C87  1  0.20755841  0.15502303  0.37120168  1  1.494435  0.000972  0.231664  0.621604  0.000969  4.114781  0.0
C  C88  1  0.07974277  0.35846188  0.05309934  1  -0.18742  1.2e-05  -0.156791  -0.198681  9e-06  3.939563  0.0
C  C89  1  0.42026334  0.64154177  0.55309841  1  -0.18729  1.2e-05  -0.156715  -0.198559  9e-06  3.939256  0.0
C  C90  1  0.92027897  0.85846323  0.44689337  1  -0.187106  -1.2e-05  -0.156763  -0.198652  -9e-06  3.939181  0.0
C  C91  1  0.57974550  0.14153691  0.94688119  1  -0.187078  -1.2e-05  -0.156919  -0.19872  -9e-06  3.93981  0.0
C  C92  1  0.15730092  0.30235334  0.12757226  1  0.309449  1e-05  -0.078896  -0.016598  1.4e-05  4.00036  0.0
C  C93  1  0.34270744  0.69764785  0.62757293  1  0.309467  1e-05  -0.07899  -0.016866  1.4e-05  4.000483  0.0
C  C94  1  0.84270558  0.80236529  0.37242724  1  0.309354  -1e-05  -0.078961  -0.016716  -1.4e-05  4.000451  0.0
C  C95  1  0.65731221  0.19764338  0.87240962  1  0.309271  -1e-05  -0.078679  -0.016576  -1.4e-05  4.000584  0.0
C  C96  1  0.49092838  0.37330291  0.12060187  1  0.325492  1.9e-05  -0.079231  -0.013723  1.5e-05  3.982227  0.0
C  C97  1  0.00907251  0.62670056  0.62060029  1  0.32544  1.9e-05  -0.079301  -0.01391  1.5e-05  3.982117  0.0
C  C98  1  0.50906833  0.87330790  0.37940055  1  0.325412  -1.9e-05  -0.079285  -0.013825  -1.5e-05  3.982209  0.0
C  C99  1  0.99094657  0.12670151  0.87938359  1  0.325923  -1.9e-05  -0.079446  -0.014135  -1.5e-05  3.982924  0.0
C  C100  1  0.45235647  0.43818577  0.04554111  1  -0.15536  0.00025  -0.151172  -0.189081  0.000211  3.89934  0.0
C  C101  1  0.04764957  0.56182397  0.54553849  1  -0.155462  0.00025  -0.151149  -0.189197  0.000211  3.899431  0.0
C  C102  1  0.54766591  0.93818460  0.45446485  1  -0.15521  -0.00025  -0.151151  -0.189133  -0.000211  3.899296  0.0
C  C103  1  0.95235863  0.06182082  0.95444551  1  -0.15579  -0.00025  -0.151124  -0.189004  -0.000211  3.899365  0.0
S  S104  1  0.27232678  0.37987195  0.97805754  1  -0.046304  0.000282  -0.03538  -0.038782  0.000257  2.602628  0.0
S  S105  1  0.22768072  0.62013665  0.47805340  1  -0.046437  0.000282  -0.035406  -0.038745  0.000257  2.602414  0.0
S  S106  1  0.72769581  0.87987164  0.52194476  1  -0.046764  -0.000282  -0.035486  -0.038923  -0.000257  2.602423  0.0
S  S107  1  0.77232580  0.12013038  0.02192635  1  -0.046243  -0.000282  -0.035422  -0.038853  -0.000257  2.602583  0.0
N  N108  1  0.31047402  0.36153234  0.16911931  1  -1.056652  -9e-06  -0.490012  -0.37232  -1.6e-05  3.393649  0.0
N  N109  1  0.18954216  0.63846646  0.66911861  1  -1.056706  -9e-06  -0.489945  -0.372148  -1.6e-05  3.39351  0.0
N  N110  1  0.68952259  0.86154476  0.33088192  1  -1.056973  9e-06  -0.489971  -0.372362  1.6e-05  3.393446  0.0
N  N111  1  0.81049181  0.13846251  0.83086525  1  -1.056311  9e-06  -0.489977  -0.372412  1.6e-05  3.393397  0.0
O  O112  1  0.30984106  0.69153985  0.00936917  1  -0.848349  0.062803  -0.608028  -0.776372  0.058261  1.850164  0.059
O  O113  1  0.19016461  0.30845331  0.50936661  1  -0.847986  0.062787  -0.608077  -0.776243  0.058249  1.850494  0.059
O  O114  1  0.69016159  0.19156169  0.49063660  1  -0.848444  -0.062796  -0.607984  -0.776136  -0.058258  1.850474  -0.059
O  O115  1  0.80983964  0.80844591  0.99063945  1  -0.848305  -0.062812  -0.607927  -0.776332  -0.058272  1.850346  -0.059
O  O116  1  0.86841929  0.30757999  0.60063846  1  -1.122594  -0.003672  -0.349832  -0.588414  -0.004798  2.387623  -0.017
O  O117  1  0.63154688  0.69241651  0.10064256  1  -1.123088  -0.003671  -0.349782  -0.588378  -0.004801  2.38779  -0.017
O  O118  1  0.13154943  0.80756953  0.89936578  1  -1.122678  0.00369  -0.349849  -0.588569  0.004802  2.387075  0.017
O  O119  1  0.36843654  0.19242335  0.39936443  1  -1.122415  0.003685  -0.349848  -0.588509  0.0048  2.387134  0.017
O  O120  1  0.62771019  0.64986625  0.92995585  1  -1.129148  -0.000693  -0.348181  -0.584147  -0.002165  2.410761  -0.015
O  O121  1  0.87228598  0.35012787  0.42995545  1  -1.129098  -0.000698  -0.348188  -0.584177  -0.002169  2.410836  -0.015
O  O122  1  0.37228243  0.14988610  0.57006143  1  -1.128803  0.0007  -0.348182  -0.584267  0.002169  2.410669  0.015
O  O123  1  0.12771498  0.85011372  0.07005552  1  -1.128811  0.0007  -0.348196  -0.584283  0.002165  2.410592  0.015
O  O124  1  0.53740003  0.33657009  0.59561175  1  -1.142015  0.001196  -0.350404  -0.598507  0.002982  2.379722  0.015
O  O125  1  0.96256164  0.66343173  0.09560975  1  -1.142801  0.001186  -0.350172  -0.598413  0.002977  2.379606  0.015
O  O126  1  0.46256893  0.83655443  0.90439426  1  -1.142816  -0.001181  -0.350118  -0.598263  -0.002975  2.379963  -0.015
O  O127  1  0.03741118  0.16343920  0.40439243  1  -1.142864  -0.001185  -0.350158  -0.598357  -0.002975  2.379906  -0.015
O  O128  1  0.96076897  0.62678934  0.93022181  1  -1.131437  0.001901  -0.349181  -0.596286  0.003605  2.379705  0.016
O  O129  1  0.53922720  0.37321387  0.43022630  1  -1.131573  0.001903  -0.349161  -0.596292  0.00361  2.379615  0.016
O  O130  1  0.03923087  0.12679770  0.56978822  1  -1.131637  -0.001903  -0.349107  -0.59603  -0.003609  2.379989  -0.016
O  O131  1  0.46076802  0.87320439  0.06978402  1  -1.131756  -0.001889  -0.349096  -0.596076  -0.003607  2.380082  -0.016
