# generated using pymatgen
data_Zn4H7C24S4O15F
_symmetry_space_group_name_H-M   'P 1'
_cell_length_a   19.66669882
_cell_length_b   19.71774886
_cell_length_c   33.36620009
_cell_angle_alpha   79.02419394
_cell_angle_beta   79.17456948
_cell_angle_gamma   63.94334351
_symmetry_Int_Tables_number   1
_chemical_formula_structural   Zn4H7C24S4O15F
_chemical_formula_sum   'Zn16 H28 C96 S16 O60 F4'
_cell_volume   11331.21495573
_cell_formula_units_Z   4
loop_
 _symmetry_equiv_pos_site_id
 _symmetry_equiv_pos_as_xyz
  1  'x, y, z'
loop_
 _atom_site_type_symbol
 _atom_site_label
 _atom_site_symmetry_multiplicity
 _atom_site_fract_x
 _atom_site_fract_y
 _atom_site_fract_z
 _atom_site_occupancy
 _atom_site_pbe_bader_charge
 _atom_site_pbe_bader_spin_density
 _atom_site_pbe_cm5_charge
 _atom_site_pbe_ddec_charge
 _atom_site_pbe_ddec_spin_density
 _atom_site_pbe_ddec_sum_bond_order
 _atom_site_pbe_magmom
Zn  Zn0  1  0.05609740  0.40056894  0.47838693  1  1.318571  0  0.668436  0.970551  0  2.340842  0
Zn  Zn1  1  0.98450104  0.48365812  0.56057207  1  1.309426  0  0.672557  0.956727  0  2.380449  0
Zn  Zn2  1  0.05851734  0.56144414  0.48231381  1  1.3209  0  0.673159  0.962781  0  2.380854  0
Zn  Zn3  1  0.90039514  0.55524906  0.47963764  1  1.317807  0  0.673839  0.964195  0  2.379509  0
Zn  Zn4  1  0.69479503  0.34961619  0.27113017  1  1.318453  0  0.669483  0.966577  0  2.361855  0
Zn  Zn5  1  0.68931037  0.19027712  0.26644779  1  1.313188  0  0.669771  0.966597  0  2.35792  0
Zn  Zn6  1  0.76944278  0.26615052  0.18997114  1  1.323095  0  0.67473  0.965408  0  2.375438  0
Zn  Zn7  1  0.84842261  0.19505298  0.27256685  1  1.317597  0  0.672562  0.959063  0  2.37812  0
Zn  Zn8  1  0.26656901  0.76687018  0.68968771  1  1.31217  0  0.67093  0.961868  0  2.374288  0
Zn  Zn9  1  0.34877266  0.69594721  0.77198054  1  1.313678  0  0.671734  0.963047  0  2.36837  0
Zn  Zn10  1  0.19263002  0.84773856  0.77164122  1  1.320203  0  0.671643  0.968217  0  2.373451  0
Zn  Zn11  1  0.19109108  0.68765028  0.76693672  1  1.315958  0  0.672799  0.963653  0  2.369655  0
Zn  Zn12  1  0.56059798  0.05992228  0.98325311  1  1.316105  0  0.671338  0.964482  0  2.370286  0
Zn  Zn13  1  0.40110229  0.05516315  0.97814484  1  1.313942  0  0.6721  0.962763  0  2.370282  0
Zn  Zn14  1  0.55469630  0.90164926  0.97817897  1  1.317035  0  0.670611  0.965329  0  2.374316  0
Zn  Zn15  1  0.48385090  0.98301057  0.06038077  1  1.315472  0  0.672108  0.966662  0  2.365312  0
H  H16  1  0.95395041  0.24899785  0.35148015  1  0.103814  0  0.109837  0.118404  0  0.99297  0
H  H17  1  0.74679890  0.45520301  0.35085355  1  0.100334  0  0.117959  0.146746  0  0.979894  0
H  H18  1  0.00043190  0.29852120  0.39955658  1  0.075874  0  0.1127  0.12058  0  0.986126  0
H  H19  1  0.09739219  0.59707779  0.70005258  1  0.111274  0  0.109842  0.118587  0  0.992752  0
H  H20  1  0.20157207  0.70143058  0.59719955  1  0.142966  0  0.117535  0.146365  0  0.981555  0
H  H21  1  0.05031066  0.55049090  0.65072343  1  0.089856  0  0.113084  0.121227  0  0.986116  0
H  H22  1  0.46270869  0.24064562  0.34123873  1  0.104606  0  0.121201  0.146334  0  0.967886  0
H  H23  1  0.47983749  0.70236183  0.60128348  1  0.103352  0  0.122563  0.147932  0  0.966642  0
H  H24  1  0.20229502  0.98006633  0.60145426  1  0.103945  0  0.122412  0.147805  0  0.966719  0
H  H25  1  0.94845567  0.96975312  0.34817571  1  0.114405  0  0.122868  0.148415  0  0.966682  0
H  H26  1  0.54995387  0.05011256  0.15302747  1  0.104167  0  0.110293  0.118971  0  0.991412  0
H  H27  1  0.65279465  0.15290581  0.04871725  1  0.143755  0  0.117721  0.146586  0  0.980179  0
H  H28  1  0.59914146  0.09909495  0.19996666  1  0.119734  0  0.113332  0.121097  0  0.986646  0
H  H29  1  0.54789956  0.76953694  0.14850293  1  0.107336  0  0.122701  0.148167  0  0.965843  0
H  H30  1  0.16240826  0.14138775  0.04073749  1  0.118251  0  0.122651  0.148035  0  0.966266  0
H  H31  1  0.50123210  0.79572358  0.89860116  1  0.101916  0  0.109998  0.118152  0  0.993189  0
H  H32  1  0.29521271  0.00314891  0.89915086  1  0.098713  0  0.118232  0.147212  0  0.979985  0
H  H33  1  0.45066700  0.75038657  0.85048495  1  0.092183  0  0.113302  0.121247  0  0.985421  0
H  H34  1  0.30101415  0.28044989  0.90184441  1  0.106056  0  0.12285  0.147926  0  0.966676  0
H  H35  1  0.78766646  0.00908150  0.90871254  1  0.108162  0  0.122636  0.147856  0  0.96575  0
H  H36  1  0.32569015  0.54235762  0.39846192  1  0.595501  0  0.342619  0.367946  0  0.864936  0
H  H37  1  0.75625792  0.53965436  0.68461770  1  0.614609  0  0.339774  0.36402  0  0.871899  0
H  H38  1  0.04014965  0.25606839  0.68414680  1  0.587226  0  0.34009  0.364929  0  0.869181  0
H  H39  1  0.74280532  0.81560834  0.38801960  1  0.616483  0  0.341716  0.366591  0  0.867554  0
H  H40  1  0.71034825  0.49315421  0.06570678  1  0.621225  0  0.341907  0.366345  0  0.866399  0
H  H41  1  0.14874495  0.07555160  0.22081769  1  0.610444  0  0.342232  0.367621  0  0.866465  0
H  H42  1  0.50715177  0.43389461  0.86202482  1  0.598565  0  0.341093  0.366262  0  0.868316  0
H  H43  1  0.92386570  0.70701013  0.85187873  1  0.594306  0  0.341776  0.366591  0  0.868563  0
C  C44  1  0.06147472  0.31652681  0.56211890  1  1.57186  0  0.212925  0.623051  0  4.219241  0
C  C45  1  0.06916494  0.57017525  0.56893625  1  1.572974  0  0.227643  0.61863  0  4.176121  0
C  C46  1  0.18373620  0.44047082  0.43851768  1  1.584903  0  0.212175  0.621128  0  4.222399  0
C  C47  1  0.93606055  0.68438574  0.43868502  1  1.625403  0  0.212616  0.620182  0  4.226023  0
C  C48  1  0.93112238  0.43034593  0.43119704  1  1.589357  0  0.227491  0.620317  0  4.170348  0
C  C49  1  0.81676652  0.56098041  0.56267448  1  1.570565  0  0.212789  0.620379  0  4.224195  0
C  C50  1  0.56584693  0.31131198  0.31116304  1  1.54032  0  0.216605  0.609658  0  4.218362  0
C  C51  1  0.68137221  0.18052940  0.18083112  1  1.595874  0  0.22923  0.621605  0  4.167239  0
C  C52  1  0.68980835  0.43328571  0.18772776  1  1.586305  0  0.212637  0.620988  0  4.220524  0
C  C53  1  0.93583039  0.18735887  0.18990225  1  1.592232  0  0.21323  0.621983  0  4.223741  0
C  C54  1  0.81882056  0.32008761  0.31955688  1  1.571484  0  0.230413  0.604021  0  4.15969  0
C  C55  1  0.81116901  0.06623841  0.31153716  1  1.532352  0  0.216303  0.607649  0  4.22051  0
C  C56  1  0.43355719  0.68954855  0.68830660  1  1.551443  0  0.216334  0.607027  0  4.223842  0
C  C57  1  0.31837306  0.82002556  0.81908181  1  1.591474  0  0.228281  0.620779  0  4.169959  0
C  C58  1  0.18856590  0.93356324  0.68838279  1  1.554101  0  0.217011  0.606819  0  4.225757  0
C  C59  1  0.06555807  0.80886772  0.81122066  1  1.542103  0  0.212978  0.62223  0  4.217469  0
C  C60  1  0.18119090  0.68023104  0.68055353  1  1.556066  0  0.229731  0.603852  0  4.161713  0
C  C61  1  0.31383581  0.56560894  0.81142852  1  1.599521  0  0.212579  0.621255  0  4.223984  0
C  C62  1  0.43824009  0.18386257  0.93862302  1  1.541686  0  0.218107  0.608903  0  4.218853  0
C  C63  1  0.43055785  0.93051968  0.93054585  1  1.554181  0  0.230457  0.6051  0  4.158524  0
C  C64  1  0.68394870  0.93903228  0.93862950  1  1.540488  0  0.2175  0.609403  0  4.219235  0
C  C65  1  0.56131950  0.81613350  0.06151557  1  1.56981  0  0.217378  0.608482  0  4.221137  0
C  C66  1  0.56953490  0.06941224  0.06943677  1  1.548764  0  0.230939  0.605979  0  4.158593  0
C  C67  1  0.31600275  0.06147931  0.06113874  1  1.521458  0  0.216436  0.608555  0  4.221053  0
C  C68  1  0.90083059  0.40367706  0.40227883  1  -0.047848  0  -0.018025  -0.141699  0  3.936558  0
C  C69  1  0.84761682  0.34875444  0.34814969  1  -0.040375  0  -0.009908  0.000102  0  3.978876  0
C  C70  1  0.82929523  0.44662783  0.38782180  1  0.47793  0  0.112277  0.288892  0  4.027302  0
C  C71  1  0.91930901  0.30453208  0.36191469  1  0.009529  0  -0.086502  -0.113404  0  3.981664  0
C  C72  1  0.80254427  0.42019693  0.36123582  1  0.048728  0  -0.091313  -0.225503  0  3.965649  0
C  C73  1  0.94496152  0.33200907  0.38851858  1  0.060254  0  -0.076229  -0.06771  0  3.976225  0
C  C74  1  0.09891584  0.59929403  0.59683522  1  0.013114  0  -0.018012  -0.141982  0  3.940645  0
C  C75  1  0.15236553  0.65202796  0.65179300  1  -0.0345  0  -0.009904  -0.000482  0  3.983349  0
C  C76  1  0.14195553  0.64210898  0.58266108  1  0.452834  0  0.112619  0.289944  0  4.029764  0
C  C77  1  0.10959772  0.60941411  0.66696198  1  -0.071718  0  -0.08738  -0.114619  0  3.98419  0
C  C78  1  0.16849199  0.66839983  0.60940340  1  0.057338  0  -0.091187  -0.225665  0  3.969257  0
C  C79  1  0.08356640  0.58371340  0.63967481  1  0.025187  0  -0.076  -0.066991  0  3.976061  0
C  C80  1  0.30434609  0.45575352  0.40101431  1  0.578087  0  0.083593  0.273899  0  4.100404  0
C  C81  1  0.44590185  0.29736173  0.34906431  1  0.090366  0  -0.086275  -0.127551  0  3.955357  0
C  C82  1  0.25842222  0.41624064  0.41389188  1  -0.093191  0  -0.038863  -0.237368  0  3.928423  0
C  C83  1  0.49121685  0.33666545  0.33628040  1  -0.169887  0  -0.024119  -0.112523  0  3.972853  0
C  C84  1  0.37783006  0.34040568  0.37266693  1  -0.15503  0  -0.023346  0.007897  0  4.101055  0
C  C85  1  0.37270197  0.41200904  0.37739453  1  -0.186999  0  -0.038942  -0.156352  0  4.112221  0
C  C86  1  0.72653779  0.57545159  0.63048631  1  0.574019  0  0.082421  0.271527  0  4.106135  0
C  C87  1  0.52444966  0.67341162  0.62141380  1  0.033117  0  -0.084716  -0.126467  0  3.954769  0
C  C88  1  0.74265871  0.58516346  0.58776904  1  -0.143469  0  -0.038246  -0.236439  0  3.935116  0
C  C89  1  0.50861573  0.66387722  0.66375208  1  -0.074327  0  -0.024505  -0.11087  0  3.974349  0
C  C90  1  0.60372632  0.64129606  0.60912086  1  -0.172237  0  -0.022627  0.008139  0  4.102467  0
C  C91  1  0.64679284  0.60777075  0.64257459  1  -0.130904  0  -0.040394  -0.157804  0  4.12049  0
C  C92  1  0.07578643  0.22631198  0.63008700  1  0.608725  0  0.082855  0.273024  0  4.099327  0
C  C93  1  0.17345142  0.02456363  0.62148557  1  0.031993  0  -0.085691  -0.128259  0  3.955299  0
C  C94  1  0.08555396  0.24243861  0.58732612  1  -0.139318  0  -0.039052  -0.238355  0  3.930222  0
C  C95  1  0.16369298  0.00867968  0.66383502  1  -0.073809  0  -0.023497  -0.109429  0  3.972053  0
C  C96  1  0.14149610  0.10369254  0.60904815  1  -0.176812  0  -0.022533  0.009772  0  4.101667  0
C  C97  1  0.10796111  0.14668526  0.64237493  1  -0.139451  0  -0.039707  -0.157897  0  4.116088  0
C  C98  1  0.84176208  0.80084568  0.39716023  1  0.54104  0  0.083756  0.273632  0  4.104312  0
C  C99  1  0.90392764  0.94957211  0.35260098  1  0.073974  0  -0.085528  -0.12828  0  3.953565  0
C  C100  1  0.91073561  0.75855413  0.41364482  1  -0.131216  0  -0.038588  -0.237628  0  3.932798  0
C  C101  1  0.83550308  0.99137966  0.33632618  1  -0.144015  0  -0.02407  -0.110445  0  3.973435  0
C  C102  1  0.90659969  0.88004890  0.37470929  1  -0.178671  0  -0.022723  0.009122  0  4.100649  0
C  C103  1  0.83973831  0.87041006  0.37483150  1  -0.126719  0  -0.039556  -0.156684  0  4.11681  0
C  C104  1  0.65319216  0.15297294  0.15131886  1  -0.013337  0  -0.017981  -0.142011  0  3.939059  0
C  C105  1  0.59817380  0.09827250  0.09799913  1  0.025388  0  -0.009366  -0.000811  0  3.982362  0
C  C106  1  0.66726539  0.16725168  0.10831152  1  0.451252  0  0.112227  0.288135  0  4.028039  0
C  C107  1  0.58300461  0.08314394  0.14074370  1  -0.021293  0  -0.085916  -0.111889  0  3.981473  0
C  C108  1  0.64053379  0.14063185  0.08180314  1  0.015597  0  -0.09011  -0.223856  0  3.96382  0
C  C109  1  0.61028245  0.11028776  0.16670403  1  -0.047201  0  -0.075801  -0.067018  0  3.976187  0
C  C110  1  0.67463529  0.52337288  0.11970573  1  0.634007  0  0.084039  0.273309  0  4.10286  0
C  C111  1  0.57671704  0.72510350  0.12842497  1  0.034998  0  -0.084663  -0.127268  0  3.952915  0
C  C112  1  0.66491783  0.50726396  0.16247664  1  -0.149761  0  -0.038415  -0.237492  0  3.930875  0
C  C113  1  0.58640416  0.74107136  0.08608007  1  -0.078143  0  -0.0239  -0.11067  0  3.972833  0
C  C114  1  0.60864301  0.64595548  0.14079693  1  -0.17553  0  -0.021853  0.010647  0  4.099245  0
C  C115  1  0.64222473  0.60301371  0.10744123  1  -0.176354  0  -0.03918  -0.156801  0  4.113015  0
C  C116  1  0.08265374  0.12315960  0.17870848  1  0.594358  0  0.083872  0.273181  0  4.103502  0
C  C117  1  0.17026860  0.12471366  0.07311746  1  0.085027  0  -0.084771  -0.126615  0  3.95205  0
C  C118  1  0.01051493  0.16223528  0.16538926  1  -0.205299  0  -0.038773  -0.237579  0  3.931718  0
C  C119  1  0.24166543  0.08600306  0.08641846  1  -0.167199  0  -0.02408  -0.11228  0  3.974549  0
C  C120  1  0.11213000  0.13842199  0.10659235  1  -0.120434  0  -0.022029  0.009061  0  4.098315  0
C  C121  1  0.14069763  0.10965988  0.14487549  1  -0.195303  0  -0.038853  -0.155313  0  4.11402  0
C  C122  1  0.34556369  0.85015372  0.84777766  1  0.04876  0  -0.018054  -0.142854  0  3.939078  0
C  C123  1  0.40159390  0.90213172  0.90191226  1  -0.042001  0  -0.008538  0.000555  0  3.980527  0
C  C124  1  0.30298307  0.92144529  0.86216267  1  0.443805  0  0.11281  0.289853  0  4.028471  0
C  C125  1  0.44550859  0.83068173  0.88817680  1  0.014285  0  -0.086441  -0.112865  0  3.981093  0
C  C126  1  0.32996100  0.94760166  0.88877084  1  0.071424  0  -0.090643  -0.224381  0  3.963716  0
C  C127  1  0.41748353  0.80563558  0.86154371  1  -0.040247  0  -0.07578  -0.066611  0  3.972739  0
C  C128  1  0.40811657  0.44897444  0.85287570  1  0.53173  0  0.083026  0.273377  0  4.103501  0
C  C129  1  0.34562368  0.30050887  0.89744911  1  0.148514  0  -0.084732  -0.126205  0  3.954157  0
C  C130  1  0.33922705  0.49128390  0.83630182  1  -0.12094  0  -0.038581  -0.23752  0  3.933226  0
C  C131  1  0.41396324  0.25865678  0.91377996  1  -0.191603  0  -0.023368  -0.110608  0  3.97392  0
C  C132  1  0.34319952  0.36984624  0.87521197  1  -0.199898  0  -0.022269  0.008809  0  4.100164  0
C  C133  1  0.41011160  0.37937839  0.87513009  1  -0.116237  0  -0.038749  -0.15516  0  4.114937  0
C  C134  1  0.94516962  0.79367020  0.84905783  1  0.613494  0  0.083877  0.274903  0  4.100779  0
C  C135  1  0.80421396  0.95238922  0.90093040  1  0.074832  0  -0.084233  -0.125006  0  3.950417  0
C  C136  1  0.99115511  0.83305293  0.83603766  1  -0.1023  0  -0.038706  -0.238664  0  3.931237  0
C  C137  1  0.75866620  0.91334925  0.91372300  1  -0.169086  0  -0.02433  -0.11319  0  3.97489  0
C  C138  1  0.87217154  0.90908145  0.87735970  1  -0.16611  0  -0.021671  0.009422  0  4.09758  0
C  C139  1  0.87699337  0.83753430  0.87272659  1  -0.146419  0  -0.03941  -0.15751  0  4.114156  0
S  S140  1  0.29890419  0.32645575  0.39723115  1  0.279857  0  0.070049  0.11523  0  2.752795  0
S  S141  1  0.45154534  0.42630976  0.35282938  1  0.237257  0  0.066283  0.110264  0  2.770294  0
S  S142  1  0.66088955  0.63325667  0.56277357  1  0.27673  0  0.076981  0.124561  0  2.752042  0
S  S143  1  0.58983539  0.61572234  0.68906831  1  0.214052  0  0.061887  0.10409  0  2.776628  0
S  S144  1  0.13358285  0.16074386  0.56258803  1  0.266298  0  0.073069  0.11922  0  2.752767  0
S  S145  1  0.11561460  0.08974782  0.68896404  1  0.220572  0  0.065569  0.10887  0  2.769774  0
S  S146  1  0.97226338  0.80370909  0.40185049  1  0.267337  0  0.074596  0.121384  0  2.751232  0
S  S147  1  0.77377162  0.94667941  0.34772215  1  0.23409  0  0.062799  0.105132  0  2.776253  0
S  S148  1  0.61652384  0.58890130  0.18724319  1  0.275243  0  0.075013  0.121642  0  2.751829  0
S  S149  1  0.63445190  0.66006404  0.06089228  1  0.217583  0  0.065422  0.108331  0  2.770227  0
S  S150  1  0.01401268  0.18211621  0.11197532  1  0.310947  0  0.076262  0.123172  0  2.748747  0
S  S151  1  0.23888507  0.06581889  0.13969248  1  0.257615  0  0.066373  0.10978  0  2.773478  0
S  S152  1  0.27769342  0.44614233  0.84797694  1  0.279621  0  0.075046  0.121757  0  2.750914  0
S  S153  1  0.47592996  0.30310315  0.90231340  1  0.239171  0  0.065567  0.108613  0  2.773335  0
S  S154  1  0.95111290  0.92281543  0.85268283  1  0.27681  0  0.075993  0.123343  0  2.749441  0
S  S155  1  0.79798196  0.82361989  0.89731059  1  0.232893  0  0.065809  0.109733  0  2.772072  0
O  O156  1  0.00044418  0.49908928  0.50017454  1  -1.225844  0  -0.570519  -1.030702  0  2.527789  0
O  O157  1  0.07788224  0.31527572  0.52306506  1  -1.17005  0  -0.32581  -0.557044  0  2.322532  0
O  O158  1  0.03191208  0.53120322  0.58652191  1  -1.151232  0  -0.312775  -0.541771  0  2.327454  0
O  O159  1  0.15487988  0.50689161  0.44958244  1  -1.161279  0  -0.311958  -0.521582  0  2.333636  0
O  O160  1  0.02668923  0.37521023  0.58104772  1  -1.153011  0  -0.313119  -0.524224  0  2.334343  0
O  O161  1  0.15413691  0.39212629  0.44662560  1  -1.179195  0  -0.32564  -0.557251  0  2.325006  0
O  O162  1  0.08306739  0.58646100  0.53046947  1  -1.153903  0  -0.310139  -0.537702  0  2.372782  0
O  O163  1  0.00330023  0.65794887  0.44941020  1  -1.167068  0  -0.322948  -0.550114  0  2.331595  0
O  O164  1  0.88842754  0.49472857  0.44337854  1  -1.16412  0  -0.310684  -0.538375  0  2.374458  0
O  O165  1  0.88987619  0.65281183  0.44766399  1  -1.171681  0  -0.312901  -0.524281  0  2.33329  0
O  O166  1  0.99753790  0.38568333  0.44121623  1  -1.172011  0  -0.313942  -0.546364  0  2.31443  0
O  O167  1  0.87592255  0.52626430  0.58146863  1  -1.16422  0  -0.313658  -0.525714  0  2.332818  0
O  O168  1  0.81495439  0.57738625  0.52365547  1  -1.147627  0  -0.322223  -0.548746  0  2.330438  0
O  O169  1  0.74984795  0.25016103  0.25036697  1  -1.231121  0  -0.570061  -1.029898  0  2.525378  0
O  O170  1  0.59681076  0.35827706  0.30297046  1  -1.156332  0  -0.320616  -0.548143  0  2.332539  0
O  O171  1  0.66302527  0.16391857  0.21905511  1  -1.166313  0  -0.314787  -0.546427  0  2.318171  0
O  O172  1  0.72628067  0.37437489  0.16909082  1  -1.166427  0  -0.311912  -0.522461  0  2.33278  0
O  O173  1  0.59277370  0.24511282  0.29983273  1  -1.172512  0  -0.317348  -0.540956  0  2.311163  0
O  O174  1  0.67242094  0.43481808  0.22675278  1  -1.165407  0  -0.325178  -0.555187  0  2.327304  0
O  O175  1  0.72092899  0.21777971  0.16567539  1  -1.149522  0  -0.310287  -0.538412  0  2.37015  0
O  O176  1  0.87818068  0.22290393  0.16950912  1  -1.170891  0  -0.322598  -0.55042  0  2.333053  0
O  O177  1  0.86217733  0.25410548  0.30910918  1  -1.174513  0  -0.311885  -0.54145  0  2.338723  0
O  O178  1  0.93427342  0.17207210  0.22888450  1  -1.153261  0  -0.314192  -0.527365  0  2.332212  0
O  O179  1  0.75344747  0.36390682  0.30803541  1  -1.169908  0  -0.313282  -0.541861  0  2.330062  0
O  O180  1  0.74484076  0.09365627  0.29970985  1  -1.17265  0  -0.3222  -0.551785  0  2.333916  0
O  O181  1  0.85815002  0.09692752  0.30408208  1  -1.154005  0  -0.315122  -0.53515  0  2.314548  0
O  O182  1  0.25008756  0.74940462  0.74993467  1  -1.225601  0  -0.57043  -1.03018  0  2.529223  0
O  O183  1  0.37547895  0.72479643  0.66858733  1  -1.163443  0  -0.316339  -0.538069  0  2.312194  0
O  O184  1  0.36415285  0.75472899  0.80830434  1  -1.172313  0  -0.313035  -0.543344  0  2.323771  0
O  O185  1  0.17162374  0.93322051  0.72737508  1  -1.185027  0  -0.320023  -0.545249  0  2.335448  0
O  O186  1  0.43362624  0.67410218  0.72735423  1  -1.179057  0  -0.320724  -0.547392  0  2.339382  0
O  O187  1  0.22456130  0.87578097  0.66871124  1  -1.162612  0  -0.316934  -0.539383  0  2.315018  0
O  O188  1  0.25262023  0.86129450  0.80788144  1  -1.16273  0  -0.31069  -0.539534  0  2.368447  0
O  O189  1  0.09489352  0.85745241  0.80322118  1  -1.161245  0  -0.324252  -0.552138  0  2.327491  0
O  O190  1  0.16574746  0.66285342  0.71891555  1  -1.172115  0  -0.311115  -0.540532  0  2.338197  0
O  O191  1  0.09462078  0.74267862  0.79983756  1  -1.163196  0  -0.313463  -0.526909  0  2.329418  0
O  O192  1  0.21888571  0.71932816  0.66421992  1  -1.161868  0  -0.31406  -0.543413  0  2.335602  0
O  O193  1  0.35943736  0.59790311  0.80334932  1  -1.170149  0  -0.314459  -0.527254  0  2.332967  0
O  O194  1  0.24718986  0.59150509  0.80001446  1  -1.171054  0  -0.323433  -0.551811  0  2.331001  0
O  O195  1  0.49993389  0.00005284  0.99999703  1  -1.227486  0  -0.570361  -1.028513  0  2.525111  0
O  O196  1  0.50491196  0.15619716  0.95000556  1  -1.17491  0  -0.321762  -0.549166  0  2.336171  0
O  O197  1  0.38711925  0.99608902  0.94159091  1  -1.165876  0  -0.313038  -0.543291  0  2.335552  0
O  O198  1  0.65282036  0.89218353  0.94674777  1  -1.16076  0  -0.321174  -0.548176  0  2.337212  0
O  O199  1  0.39100021  0.15339661  0.94656161  1  -1.158114  0  -0.31668  -0.538615  0  2.312713  0
O  O200  1  0.65694243  0.00529947  0.94986453  1  -1.171137  0  -0.316601  -0.53879  0  2.313177  0
O  O201  1  0.49634107  0.88678836  0.94152622  1  -1.16425  0  -0.312234  -0.542153  0  2.334527  0
O  O202  1  0.57725965  0.81633346  0.02247308  1  -1.186241  0  -0.320977  -0.547603  0  2.336683  0
O  O203  1  0.53131146  0.03092845  0.08588023  1  -1.154534  0  -0.312566  -0.543782  0  2.333815  0
O  O204  1  0.52610036  0.87405929  0.08113796  1  -1.175235  0  -0.317279  -0.539904  0  2.313112  0
O  O205  1  0.58576225  0.08563687  0.03097673  1  -1.174093  0  -0.313369  -0.543117  0  2.33489  0
O  O206  1  0.31545922  0.07783350  0.02223244  1  -1.14022  0  -0.316796  -0.539021  0  2.314659  0
O  O207  1  0.37462290  0.02581558  0.08061665  1  -1.17673  0  -0.321016  -0.549417  0  2.336804  0
O  O208  1  0.28493305  0.52651767  0.41025201  1  -1.087771  0  -0.330706  -0.395457  0  2.272827  0
O  O209  1  0.78092085  0.53970343  0.65642001  1  -1.103712  0  -0.333437  -0.397205  0  2.273204  0
O  O210  1  0.04007572  0.28058163  0.65588432  1  -1.094613  0  -0.332386  -0.397102  0  2.271874  0
O  O211  1  0.78512346  0.77727827  0.40227238  1  -1.102954  0  -0.331167  -0.395471  0  2.273536  0
O  O212  1  0.71051770  0.46898591  0.09404139  1  -1.114257  0  -0.330109  -0.393814  0  2.27349  0
O  O213  1  0.09417109  0.10161572  0.21886061  1  -1.096126  0  -0.331648  -0.39655  0  2.272567  0
O  O214  1  0.46478030  0.47253147  0.84791482  1  -1.08516  0  -0.332179  -0.397921  0  2.273435  0
O  O215  1  0.96447499  0.72290914  0.83982547  1  -1.083327  0  -0.331447  -0.396528  0  2.274318  0
F  F216  1  0.78273433  0.51636189  0.39919158  1  -0.62421  0  -0.099968  -0.136735  0  1.348151  0
F  F217  1  0.15975036  0.65975397  0.54198383  1  -0.628279  0  -0.099804  -0.136717  0  1.346894  0
F  F218  1  0.70778368  0.20799352  0.09059508  1  -0.628654  0  -0.099009  -0.135398  0  1.346207  0
F  F219  1  0.23319986  0.96832793  0.85061927  1  -0.618818  0  -0.099516  -0.136548  0  1.347321  0
