# generated using pymatgen
data_H12PbC12(BrN)2
_symmetry_space_group_name_H-M   'P 1'
_cell_length_a   4.29265855
_cell_length_b   8.69506361
_cell_length_c   9.85427697
_cell_angle_alpha   75.10943481
_cell_angle_beta   82.34276193
_cell_angle_gamma   81.95188382
_symmetry_Int_Tables_number   1
_chemical_formula_structural   H12PbC12(BrN)2
_chemical_formula_sum   'H12 Pb1 C12 Br2 N2'
_cell_volume   350.13459796
_cell_formula_units_Z   1
loop_
 _symmetry_equiv_pos_site_id
 _symmetry_equiv_pos_as_xyz
  1  'x, y, z'
loop_
 _atom_site_type_symbol
 _atom_site_label
 _atom_site_symmetry_multiplicity
 _atom_site_fract_x
 _atom_site_fract_y
 _atom_site_fract_z
 _atom_site_occupancy
 _atom_site_pbe_bader_spin_density
 _atom_site_pbe_cm5_charge
 _atom_site_pbe_ddec_charge
 _atom_site_pbe_ddec_spin_density
 _atom_site_pbe_ddec_sum_bond_order
 _atom_site_pbe_magmom
H  H0  1  0.69107751  0.86039496  0.54270033  1  0  0.102546  0.072253  0  1.029612  0
H  H1  1  0.30893785  0.13958451  0.45732314  1  0  0.102395  0.071956  0  1.029808  0
H  H2  1  0.76574139  0.00324135  0.72362580  1  0  0.093744  0.113854  0  1.037382  0
H  H3  1  0.23402426  0.99680750  0.27638347  1  0  0.09363  0.113744  0  1.037645  0
H  H4  1  0.25798383  0.65237974  0.03277828  1  0  0.096265  0.106637  0  1.04153  0
H  H5  1  0.74190894  0.34760599  0.96722977  1  0  0.096249  0.106628  0  1.041507  0
H  H6  1  0.19744342  0.52575961  0.83713212  1  0  0.103911  0.073929  0  1.016833  0
H  H7  1  0.80257921  0.47419748  0.16287542  1  0  0.103918  0.073872  0  1.016778  0
H  H8  1  0.48225454  0.84070439  0.11296431  1  0  0.080543  0.091322  0  1.040429  0
H  H9  1  0.51766304  0.15927129  0.88705883  1  0  0.080605  0.091338  0  1.040191  0
H  H10  1  0.83050565  0.90822796  0.01351331  1  0  0.090674  0.101279  0  1.004308  0
H  H11  1  0.16941387  0.09173824  0.98650665  1  0  0.090769  0.10132  0  1.00442  0
Pb  Pb12  1  0.50028781  0.50004653  0.49991754  1  0  0.414818  0.76493  0  2.248424  0
C  C13  1  0.59392078  0.81966284  0.65248649  1  0  0.039674  0.090801  0  3.984046  0
C  C14  1  0.40605724  0.18031583  0.34753600  1  0  0.039727  0.09111  0  3.983604  0
C  C15  1  0.63680265  0.89786051  0.75408832  1  0  -0.087958  -0.176669  0  3.9242  0
C  C16  1  0.36307406  0.10214670  0.24592514  1  0  -0.087916  -0.176569  0  3.923786  0
C  C17  1  0.51970573  0.83793814  0.89503200  1  0  0.012975  0.173729  0  3.923551  0
C  C18  1  0.48019838  0.16204725  0.10498773  1  0  0.012971  0.173708  0  3.923251  0
C  C19  1  0.35571693  0.70281571  0.92492834  1  0  -0.090244  -0.189876  0  3.944924  0
C  C20  1  0.64423470  0.29715631  0.07508166  1  0  -0.090121  -0.189685  0  3.944553  0
C  C21  1  0.32174624  0.63214515  0.81674887  1  0  0.040199  0.091677  0  3.997117  0
C  C22  1  0.67825903  0.36781557  0.18326487  1  0  0.04028  0.091736  0  3.996901  0
C  C23  1  0.57410463  0.91248868  0.01034040  1  0  -0.162767  -0.198033  0  3.927471  0
C  C24  1  0.42581508  0.08748817  0.98968237  1  0  -0.162892  -0.198144  0  3.927557  0
Br  Br25  1  0.99560737  0.70032960  0.32116971  1  0  -0.213396  -0.465728  0  1.223904  0
Br  Br26  1  0.00489537  0.29989211  0.67869667  1  0  -0.213412  -0.465602  0  1.223685  0
N  N27  1  0.44050284  0.68820666  0.68258714  1  0  -0.31359  -0.267721  0  3.482875  0
N  N28  1  0.55955030  0.31174879  0.31742833  1  0  -0.313595  -0.267796  0  3.482952  0
