# generated using pymatgen
data_Tb2H13C21N3O14
_symmetry_space_group_name_H-M   'P 1'
_cell_length_a   8.98891908
_cell_length_b   8.98891513
_cell_length_c   14.91047212
_cell_angle_alpha   89.02015478
_cell_angle_beta   89.02015380
_cell_angle_gamma   76.87222359
_symmetry_Int_Tables_number   1
_chemical_formula_structural   Tb2H13C21N3O14
_chemical_formula_sum   'Tb4 H26 C42 N6 O28'
_cell_volume   1173.01027825
_cell_formula_units_Z   2
loop_
 _symmetry_equiv_pos_site_id
 _symmetry_equiv_pos_as_xyz
  1  'x, y, z'
loop_
 _atom_site_type_symbol
 _atom_site_label
 _atom_site_symmetry_multiplicity
 _atom_site_fract_x
 _atom_site_fract_y
 _atom_site_fract_z
 _atom_site_occupancy
 _atom_site_hle17_bader_spin_density
 _atom_site_hle17_ddec_charge
 _atom_site_hle17_ddec_spin_density
 _atom_site_hle17_ddec_sum_bond_order
 _atom_site_hle17_magmom
 _atom_site_hse06_10hf_bader_spin_density
 _atom_site_hse06_10hf_ddec_charge
 _atom_site_hse06_10hf_ddec_spin_density
 _atom_site_hse06_10hf_ddec_sum_bond_order
 _atom_site_hse06_10hf_magmom
 _atom_site_hse06_bader_spin_density
 _atom_site_hse06_ddec_charge
 _atom_site_hse06_ddec_spin_density
 _atom_site_hse06_ddec_sum_bond_order
 _atom_site_hse06_magmom
 _atom_site_pbe_bader_spin_density
 _atom_site_pbe_cm5_charge
 _atom_site_pbe_ddec_charge
 _atom_site_pbe_ddec_spin_density
 _atom_site_pbe_ddec_sum_bond_order
 _atom_site_pbe_magmom
Tb  Tb0  1  0.18890517  0.53426617  0.04155800  1  0  2.306012  0  1.668503  0  0  2.167856  0  2.127962  0  0  2.280817  0  1.962204  0  0  1.527208  2.13194  0  2.160612  0
Tb  Tb1  1  0.46573318  0.81109508  0.45844188  1  0  2.306049  0  1.668428  0  0  2.167912  0  2.127853  0  0  2.28086  0  1.962124  0  0  1.527237  2.132007  0  2.160484  0
Tb  Tb2  1  0.81109130  0.46573067  0.95843958  1  0  2.306007  0  1.668366  0  0  2.167822  0  2.127865  0  0  2.280806  0  1.962063  0  0  1.52729  2.131924  0  2.160507  0
Tb  Tb3  1  0.53426927  0.18890980  0.54156021  1  0  2.306018  0  1.668376  0  0  2.167832  0  2.127871  0  0  2.280816  0  1.96207  0  0  1.527274  2.131929  0  2.160509  0
H  H4  1  0.61439358  0.84956653  0.85024629  1  0  0.092123  0  0.944686  0  0  0.095738  0  1.016971  0  0  0.099884  0  1.012119  0  0  0.122243  0.092576  0  1.0207  0
H  H5  1  0.15043229  0.38560665  0.64975286  1  0  0.092133  0  0.944692  0  0  0.095748  0  1.016977  0  0  0.099895  0  1.012124  0  0  0.122259  0.092598  0  1.020706  0
H  H6  1  0.38560794  0.15043263  0.14975388  1  0  0.092143  0  0.944659  0  0  0.095759  0  1.01694  0  0  0.099906  0  1.012085  0  0  0.122257  0.092607  0  1.020668  0
H  H7  1  0.84956724  0.61439134  0.35024400  1  0  0.092157  0  0.944609  0  0  0.095768  0  1.016895  0  0  0.099915  0  1.012041  0  0  0.122232  0.092604  0  1.020634  0
H  H8  1  0.79706748  0.97386118  0.83939250  1  0  0.081631  0  0.941835  0  0  0.090127  0  1.010157  0  0  0.092572  0  1.007405  0  0  0.121206  0.088184  0  1.012127  0
H  H9  1  0.02614125  0.20293280  0.66060727  1  0  0.081649  0  0.941776  0  0  0.09014  0  1.010112  0  0  0.092585  0  1.007361  0  0  0.121238  0.088186  0  1.012076  0
H  H10  1  0.20292991  0.02614138  0.16060566  1  0  0.081644  0  0.941769  0  0  0.090128  0  1.010117  0  0  0.092574  0  1.007363  0  0  0.121196  0.088172  0  1.012076  0
H  H11  1  0.97385949  0.79706979  0.33939420  1  0  0.081639  0  0.941766  0  0  0.090126  0  1.010114  0  0  0.09257  0  1.007363  0  0  0.121201  0.088182  0  1.012063  0
H  H12  1  0.31935680  0.27633879  0.82327041  1  0  0.100261  0  0.895054  0  0  0.111664  0  0.950391  0  0  0.115145  0  0.94678  0  0  0.13418  0.109192  0  0.952774  0
H  H13  1  0.72365904  0.68064253  0.67672943  1  0  0.100244  0  0.895067  0  0  0.111651  0  0.950401  0  0  0.115133  0  0.946791  0  0  0.134141  0.109182  0  0.952785  0
H  H14  1  0.68064389  0.72365924  0.17673246  1  0  0.100345  0  0.894937  0  0  0.111699  0  0.950329  0  0  0.11518  0  0.946715  0  0  0.134199  0.109229  0  0.952715  0
H  H15  1  0.27634135  0.31935660  0.32326807  1  0  0.100306  0  0.894977  0  0  0.111683  0  0.950348  0  0  0.115165  0  0.946734  0  0  0.134184  0.109207  0  0.952733  0
H  H16  1  0.24971999  0.75027903  0.75000092  1  0  0.119512  0  0.911853  0  0  0.131613  0  0.967486  0  0  0.13533  0  0.964239  0  0  0.120068  0.129111  0  0.969375  0
H  H17  1  0.75027768  0.24972240  0.24999993  1  0  0.119442  0  0.911843  0  0  0.131612  0  0.967419  0  0  0.135354  0  0.964139  0  0  0.120054  0.129097  0  0.969298  0
H  H18  1  0.18891192  0.93878192  0.99875672  1  0  0.134173  0  0.951969  0  0  0.141  0  1.018514  0  0  0.145369  0  1.013991  0  0  0.122461  0.137726  0  1.02204  0
H  H19  1  0.06121702  0.81108790  0.50124378  1  0  0.134153  0  0.951995  0  0  0.140976  0  1.018535  0  0  0.145346  0  1.014013  0  0  0.122455  0.137714  0  1.022046  0
H  H20  1  0.81108842  0.06121265  0.00124286  1  0  0.134137  0  0.951997  0  0  0.140965  0  1.018542  0  0  0.145335  0  1.01402  0  0  0.122451  0.137693  0  1.022069  0
H  H21  1  0.93878646  0.18891240  0.49875701  1  0  0.134146  0  0.95196  0  0  0.14097  0  1.018514  0  0  0.145338  0  1.013992  0  0  0.12244  0.137701  0  1.022035  0
H  H22  1  0.17831419  0.70645222  0.20694799  1  0  0.407499  0  0.900182  0  0  0.373571  0  0.970423  0  0  0.384087  0  0.955376  0  0  0.29791  0.36626  0  0.981028  0
H  H23  1  0.29354730  0.82168704  0.29305188  1  0  0.407487  0  0.900182  0  0  0.373564  0  0.970424  0  0  0.38408  0  0.955377  0  0  0.297913  0.366253  0  0.981026  0
H  H24  1  0.82168757  0.29354577  0.79304951  1  0  0.407471  0  0.900215  0  0  0.373534  0  0.970475  0  0  0.384051  0  0.955428  0  0  0.297899  0.366218  0  0.981079  0
H  H25  1  0.70645285  0.17831326  0.70694963  1  0  0.407496  0  0.900169  0  0  0.373545  0  0.970466  0  0  0.384061  0  0.955419  0  0  0.297897  0.366227  0  0.981072  0
H  H26  1  0.13729820  0.55198302  0.24286294  1  0  0.400042  0  0.918353  0  0  0.356344  0  1.002869  0  0  0.368457  0  0.985892  0  0  0.28579  0.348036  0  1.014575  0
H  H27  1  0.44801721  0.86270160  0.25713626  1  0  0.400031  0  0.918372  0  0  0.356325  0  1.002901  0  0  0.368439  0  0.985923  0  0  0.285787  0.348006  0  1.014623  0
H  H28  1  0.86269970  0.44801725  0.75713458  1  0  0.400036  0  0.918371  0  0  0.356328  0  1.0029  0  0  0.368442  0  0.985923  0  0  0.285792  0.348012  0  1.014622  0
H  H29  1  0.55198294  0.13729870  0.74286525  1  0  0.400037  0  0.918355  0  0  0.356327  0  1.002887  0  0  0.36844  0  0.985911  0  0  0.285789  0.348012  0  1.014605  0
C  C30  1  0.09015952  0.23259916  0.93503468  1  0  0.688065  0  3.90428  0  0  0.638623  0  4.195433  0  0  0.672889  0  4.193684  0  0  0.214502  0.614873  0  4.201468  0
C  C31  1  0.76740072  0.90984381  0.56496642  1  0  0.688091  0  3.904185  0  0  0.638645  0  4.195347  0  0  0.67291  0  4.193598  0  0  0.214525  0.614884  0  4.201386  0
C  C32  1  0.90983049  0.76739196  0.06496508  1  0  0.687852  0  3.904382  0  0  0.638491  0  4.195437  0  0  0.672759  0  4.193686  0  0  0.21441  0.614743  0  4.201468  0
C  C33  1  0.23260709  0.09016681  0.43503551  1  0  0.687882  0  3.9044  0  0  0.638504  0  4.195487  0  0  0.672772  0  4.193736  0  0  0.214449  0.614763  0  4.201521  0
C  C34  1  0.50604842  0.92620011  0.86898821  1  0  0.12625  0  3.659127  0  0  0.08337  0  3.915047  0  0  0.092454  0  3.930126  0  0  0.060083  0.077938  0  3.904674  0
C  C35  1  0.07379859  0.49395245  0.63101161  1  0  0.126225  0  3.659084  0  0  0.08335  0  3.914995  0  0  0.092431  0  3.930075  0  0  0.060099  0.077939  0  3.904644  0
C  C36  1  0.49395311  0.07379905  0.13101263  1  0  0.126207  0  3.659103  0  0  0.083348  0  3.915038  0  0  0.092431  0  3.930115  0  0  0.060087  0.07794  0  3.904672  0
C  C37  1  0.92620095  0.50604554  0.36898659  1  0  0.126161  0  3.659156  0  0  0.083308  0  3.915091  0  0  0.092388  0  3.93017  0  0  0.060063  0.07791  0  3.904761  0
C  C38  1  0.41035195  0.87781546  0.93281713  1  0  -0.120449  0  3.717053  0  0  -0.094931  0  3.955523  0  0  -0.108286  0  3.978374  0  0  -0.00692  -0.086915  0  3.940258  0
C  C39  1  0.12218429  0.58964786  0.56718269  1  0  -0.120467  0  3.71702  0  0  -0.094954  0  3.955466  0  0  -0.108309  0  3.978312  0  0  -0.006926  -0.086911  0  3.940203  0
C  C40  1  0.58964513  0.12218368  0.06718377  1  0  -0.120452  0  3.716859  0  0  -0.094971  0  3.955438  0  0  -0.108335  0  3.978277  0  0  -0.006951  -0.086957  0  3.940183  0
C  C41  1  0.87781531  0.41035470  0.43281545  1  0  -0.120432  0  3.716935  0  0  -0.09496  0  3.955505  0  0  -0.108312  0  3.978352  0  0  -0.006904  -0.08694  0  3.940292  0
C  C42  1  0.89985829  0.97136274  0.79911776  1  0  0.141952  0  3.651278  0  0  0.094743  0  3.909109  0  0  0.104922  0  3.922336  0  0  0.060795  0.08872  0  3.899211  0
C  C43  1  0.02863844  0.10014142  0.70088204  1  0  0.141862  0  3.651297  0  0  0.094649  0  3.909137  0  0  0.104827  0  3.922366  0  0  0.060679  0.088617  0  3.899191  0
C  C44  1  0.10013773  0.02864097  0.20088242  1  0  0.141912  0  3.65133  0  0  0.094694  0  3.909175  0  0  0.104873  0  3.922399  0  0  0.060757  0.088684  0  3.899251  0
C  C45  1  0.97135980  0.89986229  0.29911744  1  0  0.141936  0  3.651299  0  0  0.094725  0  3.909173  0  0  0.104905  0  3.922401  0  0  0.060767  0.088711  0  3.899226  0
C  C46  1  0.34157218  0.16254353  0.85410231  1  0  0.145827  0  3.636515  0  0  0.098949  0  3.897016  0  0  0.10929  0  3.909661  0  0  0.069621  0.09273  0  3.887464  0
C  C47  1  0.83745598  0.65842790  0.64589750  1  0  0.145804  0  3.636671  0  0  0.098926  0  3.897189  0  0  0.109266  0  3.909838  0  0  0.06963  0.092689  0  3.887636  0
C  C48  1  0.65842850  0.83745449  0.14589923  1  0  0.145762  0  3.636419  0  0  0.098927  0  3.896908  0  0  0.10927  0  3.909555  0  0  0.069591  0.092712  0  3.887335  0
C  C49  1  0.16254638  0.34157239  0.35410129  1  0  0.145823  0  3.636469  0  0  0.098964  0  3.896972  0  0  0.109306  0  3.909621  0  0  0.069618  0.09276  0  3.887399  0
C  C50  1  0.02209562  0.84375165  0.80159192  1  0  -0.103306  0  3.719044  0  0  -0.075367  0  3.959913  0  0  -0.087059  0  3.980823  0  0  -0.00651  -0.067879  0  3.944527  0
C  C51  1  0.15625040  0.97790400  0.69840854  1  0  -0.103265  0  3.719072  0  0  -0.075314  0  3.959936  0  0  -0.087008  0  3.98085  0  0  -0.006498  -0.067836  0  3.944518  0
C  C52  1  0.97790563  0.15624865  0.19840823  1  0  -0.103298  0  3.719025  0  0  -0.075282  0  3.959913  0  0  -0.086977  0  3.980831  0  0  -0.006483  -0.06781  0  3.944538  0
C  C53  1  0.84375112  0.02209515  0.30159163  1  0  -0.103286  0  3.719017  0  0  -0.075356  0  3.959964  0  0  -0.087055  0  3.98089  0  0  -0.00651  -0.067886  0  3.944572  0
C  C54  1  0.01713157  0.70978300  0.86217899  1  0  0.713695  0  3.871851  0  0  0.664307  0  4.16652  0  0  0.700644  0  4.159483  0  0  0.228868  0.640321  0  4.172714  0
C  C55  1  0.29021896  0.98286473  0.63782085  1  0  0.713704  0  3.871798  0  0  0.664305  0  4.166484  0  0  0.700642  0  4.159448  0  0  0.228887  0.640327  0  4.172664  0
C  C56  1  0.98285135  0.29021952  0.13781937  1  0  0.713898  0  3.871713  0  0  0.664346  0  4.166626  0  0  0.700684  0  4.159586  0  0  0.228932  0.640367  0  4.172818  0
C  C57  1  0.70978132  0.01714472  0.36218121  1  0  0.713691  0  3.871722  0  0  0.664258  0  4.166489  0  0  0.700596  0  4.159451  0  0  0.228883  0.640295  0  4.172672  0
C  C58  1  0.15218685  0.84781331  0.75000024  1  0  -0.014197  0  3.661541  0  0  -0.060292  0  3.914925  0  0  -0.053448  0  3.930732  0  0  -0.051212  -0.063256  0  3.902255  0
C  C59  1  0.84780780  0.15219154  0.24999994  1  0  -0.014198  0  3.661302  0  0  -0.060359  0  3.914711  0  0  -0.053537  0  3.930515  0  0  -0.051244  -0.063315  0  3.902032  0
C  C60  1  0.26984908  0.97568075  0.95302179  1  0  -0.005344  0  3.618077  0  0  -0.05059  0  3.872225  0  0  -0.043041  0  3.887019  0  0  -0.045872  -0.054845  0  3.86217  0
C  C61  1  0.02431793  0.73015245  0.54697869  1  0  -0.005363  0  3.618068  0  0  -0.050587  0  3.872193  0  0  -0.043041  0  3.886991  0  0  -0.045873  -0.054829  0  3.862113  0
C  C62  1  0.73015073  0.02431611  0.04697776  1  0  -0.00537  0  3.618002  0  0  -0.050591  0  3.872171  0  0  -0.043044  0  3.886966  0  0  -0.045894  -0.054838  0  3.862107  0
C  C63  1  0.97568392  0.26985014  0.45302143  1  0  -0.005393  0  3.618006  0  0  -0.050608  0  3.872165  0  0  -0.04306  0  3.886959  0  0  -0.045897  -0.054867  0  3.86212  0
C  C64  1  0.23649171  0.12192742  0.91447554  1  0  -0.100781  0  3.724956  0  0  -0.074801  0  3.968573  0  0  -0.086981  0  3.990185  0  0  -0.002524  -0.066924  0  3.95334  0
C  C65  1  0.87807161  0.76350865  0.58552561  1  0  -0.100721  0  3.724933  0  0  -0.074748  0  3.968547  0  0  -0.086928  0  3.99016  0  0  -0.002496  -0.066871  0  3.953309  0
C  C66  1  0.76350811  0.87806945  0.08552468  1  0  -0.100768  0  3.724996  0  0  -0.07481  0  3.968572  0  0  -0.086994  0  3.990186  0  0  -0.002483  -0.066923  0  3.95332  0
C  C67  1  0.12193051  0.23649280  0.41447518  1  0  -0.10077  0  3.72496  0  0  -0.074805  0  3.968541  0  0  -0.086989  0  3.990156  0  0  -0.002493  -0.066908  0  3.953283  0
C  C68  1  0.46158357  0.72600239  0.98012053  1  0  0.7491  0  3.855593  0  0  0.702209  0  4.143469  0  0  0.73917  0  4.134794  0  0  0.248591  0.677853  0  4.151265  0
C  C69  1  0.27399572  0.53842139  0.51987924  1  0  0.749093  0  3.85574  0  0  0.702201  0  4.143614  0  0  0.739172  0  4.134922  0  0  0.248585  0.677844  0  4.151418  0
C  C70  1  0.53843315  0.27399334  0.01987411  1  0  0.749301  0  3.855542  0  0  0.702304  0  4.143613  0  0  0.739303  0  4.134873  0  0  0.248694  0.677946  0  4.151405  0
C  C71  1  0.72600740  0.46157093  0.48012435  1  0  0.749348  0  3.855522  0  0  0.70238  0  4.143547  0  0  0.739344  0  4.134863  0  0  0.248729  0.678016  0  4.151363  0
N  N72  1  0.90284649  0.09715566  0.74999954  1  0  -0.327881  0  3.201721  0  0  -0.255751  0  3.447502  0  0  -0.270749  0  3.459496  0  0  -0.305252  -0.245924  0  3.438292  0
N  N73  1  0.09715450  0.90284578  0.24999994  1  0  -0.327883  0  3.201645  0  0  -0.25577  0  3.447436  0  0  -0.270765  0  3.459426  0  0  -0.305219  -0.245929  0  3.438216  0
N  N74  1  0.47145577  0.06490548  0.82943908  1  0  -0.302239  0  3.159778  0  0  -0.236372  0  3.414133  0  0  -0.251612  0  3.42797  0  0  -0.299833  -0.226139  0  3.404179  0
N  N75  1  0.93509223  0.52854564  0.67056006  1  0  -0.302178  0  3.159826  0  0  -0.236322  0  3.414186  0  0  -0.251563  0  3.428027  0  0  -0.29978  -0.226063  0  3.404231  0
N  N76  1  0.52854438  0.93509483  0.17056243  1  0  -0.302188  0  3.159766  0  0  -0.236323  0  3.4141  0  0  -0.251563  0  3.427937  0  0  -0.299785  -0.226086  0  3.404143  0
N  N77  1  0.06490456  0.47145462  0.32943747  1  0  -0.302198  0  3.159809  0  0  -0.236344  0  3.414157  0  0  -0.251583  0  3.427996  0  0  -0.299846  -0.226183  0  3.404243  0
O  O78  1  0.96767989  0.18855597  0.94303645  1  0  -0.635626  0  2.000449  0  0  -0.591013  0  2.239323  0  0  -0.621181  0  2.233147  0  0  -0.322517  -0.574147  0  2.243673  0
O  O79  1  0.81144221  0.03232120  0.55696537  1  0  -0.635671  0  2.000486  0  0  -0.591043  0  2.239366  0  0  -0.621211  0  2.233188  0  0  -0.322547  -0.574175  0  2.243712  0
O  O80  1  0.03232574  0.81143975  0.05696169  1  0  -0.635624  0  2.000159  0  0  -0.590998  0  2.238949  0  0  -0.621169  0  2.232773  0  0  -0.322472  -0.574124  0  2.243294  0
O  O81  1  0.18856045  0.96767799  0.44303881  1  0  -0.635641  0  2.000291  0  0  -0.591014  0  2.239089  0  0  -0.621182  0  2.23291  0  0  -0.322543  -0.574208  0  2.243455  0
O  O82  1  0.09183351  0.37577738  0.94129332  1  0  -0.859165  0  2.194481  0  0  -0.799297  0  2.452076  0  0  -0.841578  0  2.441147  0  0  -0.445909  -0.780072  0  2.457927  0
O  O83  1  0.62422156  0.90816693  0.55870716  1  0  -0.859182  0  2.194385  0  0  -0.799313  0  2.451977  0  0  -0.841595  0  2.441049  0  0  -0.445903  -0.78006  0  2.45781  0
O  O84  1  0.90816244  0.62422176  0.05870625  1  0  -0.859031  0  2.19475  0  0  -0.799195  0  2.452312  0  0  -0.841478  0  2.441389  0  0  -0.445866  -0.779976  0  2.458158  0
O  O85  1  0.37577951  0.09183909  0.44129426  1  0  -0.859037  0  2.194648  0  0  -0.799203  0  2.452232  0  0  -0.841488  0  2.441313  0  0  -0.445974  -0.780076  0  2.458119  0
O  O86  1  0.89027286  0.67129730  0.87289789  1  0  -0.714774  0  1.992614  0  0  -0.670095  0  2.247882  0  0  -0.704005  0  2.237068  0  0  -0.365604  -0.651918  0  2.253747  0
O  O87  1  0.32870357  0.10972789  0.62710122  1  0  -0.714779  0  1.992591  0  0  -0.670093  0  2.247848  0  0  -0.704001  0  2.237039  0  0  -0.365615  -0.651925  0  2.253707  0
O  O88  1  0.10973230  0.32870528  0.12709950  1  0  -0.714938  0  1.991978  0  0  -0.670181  0  2.247272  0  0  -0.704092  0  2.23647  0  0  -0.365631  -0.651973  0  2.25313  0
O  O89  1  0.67129542  0.89026784  0.37290104  1  0  -0.714843  0  1.992179  0  0  -0.670133  0  2.247424  0  0  -0.704042  0  2.236622  0  0  -0.365639  -0.651972  0  2.253304  0
O  O90  1  0.14256358  0.64897770  0.89999950  1  0  -0.72327  0  2.031144  0  0  -0.674039  0  2.27733  0  0  -0.708771  0  2.265405  0  0  -0.394462  -0.655681  0  2.283742  0
O  O91  1  0.35102301  0.85743549  0.60000031  1  0  -0.723293  0  2.03114  0  0  -0.674067  0  2.277339  0  0  -0.708796  0  2.26542  0  0  -0.394481  -0.655705  0  2.283748  0
O  O92  1  0.85744259  0.35101576  0.10000135  1  0  -0.723281  0  2.031736  0  0  -0.674012  0  2.278042  0  0  -0.708743  0  2.266118  0  0  -0.394417  -0.65559  0  2.284433  0
O  O93  1  0.64898401  0.14255911  0.40000051  1  0  -0.723189  0  2.031475  0  0  -0.673945  0  2.277722  0  0  -0.708671  0  2.265792  0  0  -0.394391  -0.655547  0  2.284118  0
O  O94  1  0.19047460  0.59736261  0.19169290  1  0  -0.919441  0  1.917995  0  0  -0.86638  0  2.124493  0  0  -0.894659  0  2.084329  0  0  -0.666427  -0.853172  0  2.148096  0
O  O95  1  0.40263740  0.80952544  0.30830899  1  0  -0.91945  0  1.918009  0  0  -0.866399  0  2.124531  0  0  -0.894679  0  2.084368  0  0  -0.666424  -0.853137  0  2.148124  0
O  O96  1  0.80952468  0.40263652  0.80830462  1  0  -0.919441  0  1.917999  0  0  -0.866388  0  2.124572  0  0  -0.894664  0  2.084385  0  0  -0.666439  -0.853154  0  2.148206  0
O  O97  1  0.59736362  0.19047602  0.69169383  1  0  -0.919454  0  1.917944  0  0  -0.866383  0  2.124509  0  0  -0.894666  0  2.084343  0  0  -0.666427  -0.853153  0  2.148141  0
O  O98  1  0.59921024  0.65557364  0.96611670  1  0  -0.763936  0  2.069299  0  0  -0.71543  0  2.334588  0  0  -0.751965  0  2.316184  0  0  -0.419349  -0.697265  0  2.34313  0
O  O99  1  0.34442527  0.40078993  0.53388378  1  0  -0.763976  0  2.069328  0  0  -0.715476  0  2.33462  0  0  -0.752013  0  2.316209  0  0  -0.419363  -0.697304  0  2.343161  0
O  O100  1  0.40078075  0.34442777  0.03388424  1  0  -0.764206  0  2.068832  0  0  -0.715678  0  2.334177  0  0  -0.752236  0  2.315769  0  0  -0.419465  -0.697431  0  2.342676  0
O  O101  1  0.65557415  0.59921836  0.46611562  1  0  -0.764215  0  2.068947  0  0  -0.715694  0  2.33428  0  0  -0.752231  0  2.315881  0  0  -0.419457  -0.697439  0  2.342787  0
O  O102  1  0.36870709  0.68065239  0.03270758  1  0  -0.726945  0  2.022716  0  0  -0.677886  0  2.275192  0  0  -0.71205  0  2.25829  0  0  -0.399405  -0.66137  0  2.284593  0
O  O103  1  0.31934638  0.63129151  0.46729434  1  0  -0.726894  0  2.022788  0  0  -0.677831  0  2.275252  0  0  -0.711994  0  2.258336  0  0  -0.399386  -0.661359  0  2.284671  0
O  O104  1  0.63128129  0.31934102  0.96729351  1  0  -0.726833  0  2.023278  0  0  -0.677684  0  2.275777  0  0  -0.711863  0  2.25886  0  0  -0.399263  -0.66116  0  2.285173  0
O  O105  1  0.68065808  0.36871909  0.53270630  1  0  -0.726899  0  2.023169  0  0  -0.677773  0  2.275642  0  0  -0.71194  0  2.258742  0  0  -0.399317  -0.661245  0  2.285041  0
