# generated using pymatgen
data_CaH15C17S2N4ClO8
_symmetry_space_group_name_H-M   'P 1'
_cell_length_a   5.59819179
_cell_length_b   10.63313594
_cell_length_c   18.40068986
_cell_angle_alpha   73.26598528
_cell_angle_beta   84.98460224
_cell_angle_gamma   76.34666051
_symmetry_Int_Tables_number   1
_chemical_formula_structural   CaH15C17S2N4ClO8
_chemical_formula_sum   'Ca2 H30 C34 S4 N8 Cl2 O16'
_cell_volume   1019.07630997
_cell_formula_units_Z   2
loop_
 _symmetry_equiv_pos_site_id
 _symmetry_equiv_pos_as_xyz
  1  'x, y, z'
loop_
 _atom_site_type_symbol
 _atom_site_label
 _atom_site_symmetry_multiplicity
 _atom_site_fract_x
 _atom_site_fract_y
 _atom_site_fract_z
 _atom_site_occupancy
 _atom_site_hle17_bader_spin_density
 _atom_site_hle17_ddec_charge
 _atom_site_hle17_ddec_spin_density
 _atom_site_hle17_ddec_sum_bond_order
 _atom_site_hle17_magmom
 _atom_site_hse06_10hf_bader_spin_density
 _atom_site_hse06_10hf_ddec_charge
 _atom_site_hse06_10hf_ddec_spin_density
 _atom_site_hse06_10hf_ddec_sum_bond_order
 _atom_site_hse06_10hf_magmom
 _atom_site_hse06_bader_spin_density
 _atom_site_hse06_ddec_charge
 _atom_site_hse06_ddec_spin_density
 _atom_site_hse06_ddec_sum_bond_order
 _atom_site_hse06_magmom
 _atom_site_pbe_bader_spin_density
 _atom_site_pbe_cm5_charge
 _atom_site_pbe_ddec_charge
 _atom_site_pbe_ddec_spin_density
 _atom_site_pbe_ddec_sum_bond_order
 _atom_site_pbe_magmom
Ca  Ca0  1  0.99999466  0.00000411  0.49999807  1  0  1.654029  0  1.067986  0  0  1.533983  0  1.424662  0  0  1.572802  0  1.378345  0  0  0.966908  1.504524  0  1.457905  0
Ca  Ca1  1  0.49998994  0.49999941  0.49999917  1  0  1.631413  0  1.050916  0  0  1.509231  0  1.400424  0  0  1.546521  0  1.356713  0  0  0.934049  1.481022  0  1.431569  0
H  H2  1  0.00383105  0.72767643  0.24612503  1  0  0.290305  0  0.935299  0  0  0.262575  0  1.010002  0  0  0.272549  0  1.001919  0  0  0.317637  0.255643  0  1.015517  0
H  H3  1  0.99616094  0.27232425  0.75387806  1  0  0.29035  0  0.935255  0  0  0.262637  0  1.009956  0  0  0.272605  0  1.001877  0  0  0.317696  0.255702  0  1.015475  0
H  H4  1  0.76258182  0.69156727  0.94835621  1  0  0.121051  0  0.961783  0  0  0.14109  0  1.023686  0  0  0.143114  0  1.023025  0  0  0.094576  0.13959  0  1.024252  0
H  H5  1  0.23742964  0.30843341  0.05164137  1  0  0.121002  0  0.961955  0  0  0.141057  0  1.023829  0  0  0.143082  0  1.023167  0  0  0.094569  0.139558  0  1.024396  0
H  H6  1  0.07597547  0.66724544  0.97327243  1  0  0.128544  0  0.927964  0  0  0.14723  0  0.990313  0  0  0.149662  0  0.988789  0  0  0.095818  0.145617  0  0.991193  0
H  H7  1  0.92403539  0.33275311  0.02673259  1  0  0.128565  0  0.927978  0  0  0.147248  0  0.990331  0  0  0.149682  0  0.988805  0  0  0.095808  0.145634  0  0.991209  0
H  H8  1  0.86660196  0.82202626  0.97054158  1  0  0.114828  0  0.96721  0  0  0.128066  0  1.041622  0  0  0.130228  0  1.040938  0  0  0.084595  0.1265  0  1.042133  0
H  H9  1  0.13340662  0.17797742  0.02945724  1  0  0.114785  0  0.967254  0  0  0.128025  0  1.041672  0  0  0.130186  0  1.04099  0  0  0.084577  0.126461  0  1.042179  0
H  H10  1  0.36363676  0.89501036  0.08586762  1  0  0.116412  0  0.991897  0  0  0.115299  0  1.075147  0  0  0.119247  0  1.072292  0  0  0.098921  0.112401  0  1.077378  0
H  H11  1  0.63637757  0.10498323  0.91413321  1  0  0.11658  0  0.991823  0  0  0.115396  0  1.075143  0  0  0.119345  0  1.072285  0  0  0.098975  0.1125  0  1.077369  0
H  H12  1  0.64948438  0.42172662  0.31381009  1  0  0.130651  0  0.974596  0  0  0.13331  0  1.046034  0  0  0.138194  0  1.041867  0  0  0.118187  0.129673  0  1.049465  0
H  H13  1  0.35051757  0.57828012  0.68618734  1  0  0.130664  0  0.974636  0  0  0.133297  0  1.04608  0  0  0.138182  0  1.041912  0  0  0.118162  0.129649  0  1.049524  0
H  H14  1  0.30932810  0.46510409  0.10423411  1  0  0.110404  0  0.959414  0  0  0.11849  0  1.025841  0  0  0.121804  0  1.023228  0  0  0.108159  0.116089  0  1.027871  0
H  H15  1  0.69068848  0.53489256  0.89576343  1  0  0.110396  0  0.959408  0  0  0.118516  0  1.02579  0  0  0.121826  0  1.023182  0  0  0.108166  0.116114  0  1.027816  0
H  H16  1  0.48335405  0.96229394  0.33444780  1  0  0.121913  0  0.924391  0  0  0.131645  0  0.982947  0  0  0.134942  0  0.980498  0  0  0.121399  0.129208  0  0.984723  0
H  H17  1  0.51664552  0.03770073  0.66555331  1  0  0.121888  0  0.924368  0  0  0.131598  0  0.982943  0  0  0.134895  0  0.980496  0  0  0.12139  0.129178  0  0.984695  0
H  H18  1  0.05084832  0.30468996  0.17390059  1  0  0.093579  0  0.949928  0  0  0.108281  0  1.00452  0  0  0.110407  0  1.004574  0  0  0.104807  0.106692  0  1.004556  0
H  H19  1  0.94916987  0.69531172  0.82609554  1  0  0.093612  0  0.949812  0  0  0.108268  0  1.004461  0  0  0.110392  0  1.004518  0  0  0.104799  0.106678  0  1.004497  0
H  H20  1  0.09168985  0.20214679  0.31389045  1  0  0.111798  0  0.947248  0  0  0.120738  0  1.010532  0  0  0.124215  0  1.008607  0  0  0.115108  0.118277  0  1.011838  0
H  H21  1  0.90831344  0.79785599  0.68610379  1  0  0.111864  0  0.947253  0  0  0.12084  0  1.010444  0  0  0.124314  0  1.008527  0  0  0.115147  0.118382  0  1.01175  0
H  H22  1  0.97506873  0.57003428  0.56295217  1  0  0.436816  0  0.857975  0  0  0.406967  0  0.919182  0  0  0.417016  0  0.904363  0  0  0.310713  0.399803  0  0.929733  0
H  H23  1  0.02492636  0.42997151  0.43704455  1  0  0.436747  0  0.858043  0  0  0.40687  0  0.919306  0  0  0.41692  0  0.904487  0  0  0.310677  0.399704  0  0.929863  0
H  H24  1  0.13649935  0.44768082  0.62201618  1  0  0.459843  0  0.81856  0  0  0.429682  0  0.880161  0  0  0.439304  0  0.86591  0  0  0.318938  0.422854  0  0.890283  0
H  H25  1  0.86349269  0.55233389  0.37798733  1  0  0.459835  0  0.818583  0  0  0.429624  0  0.880226  0  0  0.439246  0  0.865975  0  0  0.318913  0.422798  0  0.890339  0
H  H26  1  0.77698278  0.09085781  0.28267162  1  0  0.121864  0  0.947818  0  0  0.141356  0  1.009412  0  0  0.143041  0  1.008877  0  0  0.096435  0.140062  0  1.009864  0
H  H27  1  0.22300574  0.90913378  0.71733632  1  0  0.121909  0  0.947613  0  0  0.141363  0  1.009253  0  0  0.143047  0  1.00872  0  0  0.09648  0.140071  0  1.009706  0
H  H28  1  0.67810096  0.20360901  0.19296373  1  0  0.102306  0  0.984415  0  0  0.123133  0  1.048319  0  0  0.122547  0  1.051223  0  0  0.085241  0.123344  0  1.046427  0
H  H29  1  0.32189475  0.79638753  0.80704590  1  0  0.102257  0  0.984433  0  0  0.123094  0  1.048328  0  0  0.122513  0  1.051228  0  0  0.085277  0.123312  0  1.046429  0
H  H30  1  0.93600379  0.06925683  0.19741883  1  0  0.104549  0  0.979253  0  0  0.12267  0  1.046886  0  0  0.122851  0  1.048824  0  0  0.084254  0.122311  0  1.045853  0
H  H31  1  0.06399671  0.93074573  0.80258912  1  0  0.104492  0  0.979144  0  0  0.122618  0  1.046775  0  0  0.122799  0  1.048718  0  0  0.084269  0.122264  0  1.045741  0
C  C32  1  0.89770218  0.68497504  0.13084400  1  0  -0.074551  0  3.818893  0  0  -0.077598  0  4.092893  0  0  -0.087182  0  4.109977  0  0  0.092696  -0.072101  0  4.081979  0
C  C33  1  0.10229513  0.31503470  0.86915527  1  0  -0.074879  0  3.818821  0  0  -0.077846  0  4.092893  0  0  -0.087436  0  4.109981  0  0  0.09265  -0.072365  0  4.081966  0
C  C34  1  0.77443458  0.60959739  0.19659505  1  0  0.419649  0  3.868909  0  0  0.368661  0  4.161169  0  0  0.396128  0  4.164257  0  0  0.225587  0.350669  0  4.15826  0
C  C35  1  0.22555111  0.39040537  0.80340573  1  0  0.420181  0  3.868918  0  0  0.369141  0  4.161182  0  0  0.396609  0  4.164272  0  0  0.225742  0.351157  0  4.158268  0
C  C36  1  0.81400772  0.65925749  0.06563171  1  0  0.233072  0  3.755921  0  0  0.232533  0  4.027014  0  0  0.243875  0  4.042336  0  0  0.119466  0.225216  0  4.016812  0
C  C37  1  0.18598682  0.34075024  0.93436852  1  0  0.23326  0  3.755662  0  0  0.232477  0  4.027104  0  0  0.243818  0  4.042428  0  0  0.119501  0.225211  0  4.016828  0
C  C38  1  0.88356678  0.71274031  0.98480908  1  0  -0.356513  0  3.718887  0  0  -0.437943  0  3.955953  0  0  -0.441734  0  3.962076  0  0  -0.239422  -0.435185  0  3.951719  0
C  C39  1  0.11644052  0.28726233  0.01519212  1  0  -0.356498  0  3.718966  0  0  -0.437875  0  3.956058  0  0  -0.441672  0  3.962191  0  0  -0.239379  -0.435135  0  3.951804  0
C  C40  1  0.26315137  0.84774634  0.20474196  1  0  0.22381  0  3.777124  0  0  0.199631  0  4.04032  0  0  0.209214  0  4.060926  0  0  0.103421  0.193653  0  4.025991  0
C  C41  1  0.73685424  0.15225130  0.79525902  1  0  0.223793  0  3.77716  0  0  0.19966  0  4.040343  0  0  0.209234  0  4.060952  0  0  0.103436  0.193687  0  4.026014  0
C  C42  1  0.48982546  0.45634028  0.20473351  1  0  0.198574  0  3.762869  0  0  0.189448  0  4.016231  0  0  0.196546  0  4.035813  0  0  0.102997  0.185554  0  4.002323  0
C  C43  1  0.51017943  0.54366344  0.79526379  1  0  0.198657  0  3.762455  0  0  0.189508  0  4.015785  0  0  0.196606  0  4.035366  0  0  0.103007  0.185612  0  4.001873  0
C  C44  1  0.29894473  0.86769994  0.27537715  1  0  -0.196713  0  3.667066  0  0  -0.179642  0  3.927718  0  0  -0.188156  0  3.946028  0  0  -0.01576  -0.174138  0  3.915401  0
C  C45  1  0.70105817  0.13229567  0.72462588  1  0  -0.196609  0  3.666803  0  0  -0.179581  0  3.927465  0  0  -0.188089  0  3.945773  0  0  -0.015735  -0.174086  0  3.915162  0
C  C46  1  0.39057960  0.90955246  0.14041291  1  0  -0.220946  0  3.743313  0  0  -0.253827  0  4.01586  0  0  -0.261226  0  4.036789  0  0  -0.104088  -0.249065  0  4.001473  0
C  C47  1  0.60943901  0.09044411  0.85958838  1  0  -0.22109  0  3.74345  0  0  -0.253933  0  4.015963  0  0  -0.261332  0  4.036893  0  0  -0.104124  -0.249171  0  4.00157  0
C  C48  1  0.51683293  0.39778410  0.28308219  1  0  -0.146287  0  3.68599  0  0  -0.180647  0  3.939687  0  0  -0.181789  0  3.956288  0  0  -0.083464  -0.180522  0  3.928934  0
C  C49  1  0.48316664  0.60221963  0.71691635  1  0  -0.146357  0  3.685765  0  0  -0.180592  0  3.939536  0  0  -0.181738  0  3.956137  0  0  -0.083452  -0.180456  0  3.928788  0
C  C50  1  0.32281467  0.42124920  0.16534390  1  0  -0.150373  0  3.7201  0  0  -0.176737  0  3.978904  0  0  -0.179294  0  3.997139  0  0  -0.09043  -0.17523  0  3.966607  0
C  C51  1  0.67718892  0.57874852  0.83465332  1  0  -0.150327  0  3.720115  0  0  -0.176699  0  3.978897  0  0  -0.179255  0  3.997132  0  0  -0.090397  -0.175183  0  3.966582  0
C  C52  1  0.45838766  0.94808625  0.27954462  1  0  -0.0613  0  3.691487  0  0  -0.096625  0  3.947909  0  0  -0.093877  0  3.965579  0  0  -0.071497  -0.098213  0  3.935194  0
C  C53  1  0.54161733  0.05190838  0.72045687  1  0  -0.061275  0  3.691448  0  0  -0.096581  0  3.947814  0  0  -0.093838  0  3.965488  0  0  -0.071508  -0.098178  0  3.935098  0
C  C54  1  0.54810208  0.98893208  0.14694648  1  0  0.096519  0  3.75904  0  0  0.101798  0  4.021913  0  0  0.105732  0  4.044642  0  0  0.015257  0.099624  0  4.006352  0
C  C55  1  0.45191348  0.01106345  0.85305779  1  0  0.096431  0  3.759095  0  0  0.101747  0  4.021831  0  0  0.10568  0  4.044557  0  0  0.015294  0.099574  0  4.00627  0
C  C56  1  0.37394041  0.30643717  0.32046658  1  0  -0.113828  0  3.766176  0  0  -0.086201  0  4.01175  0  0  -0.092083  0  4.032823  0  0  -0.013373  -0.081886  0  3.997551  0
C  C57  1  0.62605211  0.69356566  0.67952799  1  0  -0.113675  0  3.765731  0  0  -0.086344  0  4.011698  0  0  -0.092228  0  4.03277  0  0  -0.013453  -0.082027  0  3.997504  0
C  C58  1  0.18050125  0.33097451  0.20474248  1  0  -0.048705  0  3.755122  0  0  -0.061897  0  4.010069  0  0  -0.063759  0  4.031521  0  0  -0.087369  -0.060311  0  3.995035  0
C  C59  1  0.81950913  0.66902418  0.79525437  1  0  -0.048843  0  3.754948  0  0  -0.06202  0  4.009884  0  0  -0.063882  0  4.031335  0  0  -0.087402  -0.060429  0  3.994843  0
C  C60  1  0.58714890  0.01094164  0.21636720  1  0  0.091229  0  3.737915  0  0  0.108471  0  3.983634  0  0  0.105795  0  4.00867  0  0  -0.01195  0.109856  0  3.965993  0
C  C61  1  0.41285543  0.98905497  0.78363617  1  0  0.091154  0  3.738002  0  0  0.108489  0  3.983518  0  0  0.105817  0  4.008554  0  0  -0.011937  0.109869  0  3.965892  0
C  C62  1  0.20230727  0.27285218  0.28298722  1  0  -0.064569  0  3.718977  0  0  -0.093609  0  3.972754  0  0  -0.093332  0  3.992343  0  0  -0.082673  -0.094046  0  3.959091  0
C  C63  1  0.79769103  0.72714962  0.71700733  1  0  -0.06467  0  3.718574  0  0  -0.093631  0  3.972411  0  0  -0.093338  0  3.99198  0  0  -0.082679  -0.094076  0  3.958758  0
C  C64  1  0.75412170  0.09785120  0.22304093  1  0  -0.342358  0  3.743112  0  0  -0.425506  0  3.982573  0  0  -0.427361  0  3.994443  0  0  -0.250169  -0.423501  0  3.974205  0
C  C65  1  0.24588142  0.90214435  0.77696591  1  0  -0.342243  0  3.742804  0  0  -0.4254  0  3.982339  0  0  -0.427256  0  3.9942  0  0  -0.250262  -0.42341  0  3.973968  0
S  S66  1  0.14973212  0.79647102  0.36213846  1  0  1.378454  0  5.629722  0  0  1.277047  0  6.148659  0  0  1.32776  0  6.120954  0  0  0.553425  1.241818  0  6.166955  0
S  S67  1  0.85025543  0.20352673  0.63786144  1  0  1.378558  0  5.629372  0  0  1.277204  0  6.148234  0  0  1.327908  0  6.120534  0  0  0.553496  1.241977  0  6.166532  0
S  S68  1  0.42388899  0.23234203  0.41916605  1  0  1.394236  0  5.574377  0  0  1.293508  0  6.087278  0  0  1.34333  0  6.060199  0  0  0.574426  1.258809  0  6.105139  0
S  S69  1  0.57610437  0.76765876  0.58082991  1  0  1.394253  0  5.574464  0  0  1.293586  0  6.087409  0  0  1.34341  0  6.060324  0  0  0.574367  1.258876  0  6.10529  0
N  N70  1  0.05717449  0.75859580  0.13150565  1  0  -0.066489  0  3.055835  0  0  -0.064693  0  3.338179  0  0  -0.052919  0  3.347405  0  0  -0.163913  -0.072491  0  3.332241  0
N  N71  1  0.94281764  0.24140803  0.86848876  1  0  -0.066463  0  3.055756  0  0  -0.064594  0  3.338049  0  0  -0.052821  0  3.347272  0  0  -0.163928  -0.072393  0  3.332114  0
N  N72  1  0.10090628  0.77027149  0.19794448  1  0  -0.192293  0  3.432573  0  0  -0.130862  0  3.677569  0  0  -0.14984  0  3.693247  0  0  -0.247001  -0.118509  0  3.666836  0
N  N73  1  0.89909560  0.22973119  0.80205634  1  0  -0.192226  0  3.432667  0  0  -0.130886  0  3.677705  0  0  -0.149849  0  3.693378  0  0  -0.247031  -0.118533  0  3.666971  0
N  N74  1  0.63510065  0.54646274  0.16560391  1  0  -0.115729  0  3.503836  0  0  -0.037498  0  3.737151  0  0  -0.055893  0  3.76023  0  0  -0.150084  -0.025423  0  3.720816  0
N  N75  1  0.36488958  0.45353705  0.83439340  1  0  -0.116108  0  3.503698  0  0  -0.037809  0  3.737  0  0  -0.056212  0  3.760081  0  0  -0.15019  -0.025739  0  3.720669  0
N  N76  1  0.65881399  0.57888199  0.08619553  1  0  -0.268945  0  2.8066  0  0  -0.272118  0  3.079464  0  0  -0.278258  0  3.091594  0  0  -0.224975  -0.268233  0  3.071255  0
N  N77  1  0.34118809  0.42111974  0.91380218  1  0  -0.268938  0  2.806476  0  0  -0.272048  0  3.079407  0  0  -0.278186  0  3.09154  0  0  -0.225013  -0.268172  0  3.071174  0
Cl  Cl78  1  0.70380720  0.06221358  0.06613640  1  0  -0.064782  0  1.402937  0  0  -0.037254  0  1.65168  0  0  -0.042947  0  1.64802  0  0  0.037345  -0.032681  0  1.653942  0
Cl  Cl79  1  0.29620651  0.93778198  0.93386684  1  0  -0.064745  0  1.402998  0  0  -0.03723  0  1.651684  0  0  -0.042923  0  1.648023  0  0  0.037343  -0.032666  0  1.653973  0
O  O80  1  0.79093970  0.60301116  0.26465367  1  0  -0.501559  0  2.017789  0  0  -0.452698  0  2.243405  0  0  -0.472979  0  2.239455  0  0  -0.267857  -0.439094  0  2.24575  0
O  O81  1  0.20905937  0.39698952  0.73534756  1  0  -0.501775  0  2.017698  0  0  -0.45293  0  2.243417  0  0  -0.473205  0  2.239449  0  0  -0.267938  -0.439321  0  2.245758  0
O  O82  1  0.33117249  0.67743303  0.40214776  1  0  -0.740026  0  1.969777  0  0  -0.680284  0  2.234943  0  0  -0.704173  0  2.218015  0  0  -0.396635  -0.662909  0  2.245945  0
O  O83  1  0.66880433  0.32255480  0.59784920  1  0  -0.740007  0  1.969627  0  0  -0.680269  0  2.234772  0  0  -0.704158  0  2.217848  0  0  -0.39661  -0.662889  0  2.245767  0
O  O84  1  0.92967996  0.76320002  0.34306115  1  0  -0.645395  0  2.00268  0  0  -0.593483  0  2.249652  0  0  -0.614335  0  2.235385  0  0  -0.31109  -0.578782  0  2.258993  0
O  O85  1  0.07030060  0.23681085  0.65693520  1  0  -0.64555  0  2.002463  0  0  -0.593636  0  2.249413  0  0  -0.614481  0  2.235147  0  0  -0.311181  -0.57894  0  2.258752  0
O  O86  1  0.09698031  0.90237398  0.40175359  1  0  -0.756829  0  1.996794  0  0  -0.700123  0  2.269454  0  0  -0.723813  0  2.251722  0  0  -0.393712  -0.683103  0  2.281186  0
O  O87  1  0.90302510  0.09761963  0.59824860  1  0  -0.756817  0  1.996834  0  0  -0.700143  0  2.269496  0  0  -0.723831  0  2.251767  0  0  -0.393713  -0.683118  0  2.281224  0
O  O88  1  0.34322700  0.34447770  0.45472111  1  0  -0.74677  0  1.995251  0  0  -0.680304  0  2.247649  0  0  -0.703648  0  2.230266  0  0  -0.353312  -0.663567  0  2.259232  0
O  O89  1  0.65676235  0.65552004  0.54527873  1  0  -0.746744  0  1.995395  0  0  -0.680232  0  2.247719  0  0  -0.703581  0  2.230342  0  0  -0.353226  -0.663489  0  2.259305  0
O  O90  1  0.27247300  0.13232157  0.44423800  1  0  -0.739983  0  2.008477  0  0  -0.683348  0  2.279885  0  0  -0.705926  0  2.261449  0  0  -0.381065  -0.667117  0  2.292186  0
O  O91  1  0.72751838  0.86767929  0.55575475  1  0  -0.739977  0  2.008377  0  0  -0.683386  0  2.279863  0  0  -0.705967  0  2.261426  0  0  -0.381052  -0.667145  0  2.292166  0
O  O92  1  0.68811405  0.17326973  0.42764558  1  0  -0.726994  0  1.957559  0  0  -0.672709  0  2.223084  0  0  -0.695748  0  2.206256  0  0  -0.359742  -0.656141  0  2.234175  0
O  O93  1  0.31188468  0.82673106  0.57234967  1  0  -0.727057  0  1.9577  0  0  -0.672769  0  2.223207  0  0  -0.695809  0  2.206378  0  0  -0.359705  -0.656192  0  2.234301  0
O  O94  1  0.14535033  0.52083334  0.57579978  1  0  -0.901162  0  1.766113  0  0  -0.847615  0  1.947051  0  0  -0.866872  0  1.91547  0  0  -0.630338  -0.833786  0  1.969243  0
O  O95  1  0.85464309  0.47917739  0.42420108  1  0  -0.901107  0  1.766191  0  0  -0.847457  0  1.947252  0  0  -0.866711  0  1.915674  0  0  -0.630276  -0.83363  0  1.969445  0
