# generated using pymatgen
data_AgH6C6S2NO5
_symmetry_space_group_name_H-M   'P 1'
_cell_length_a   8.11434805
_cell_length_b   8.18371709
_cell_length_c   8.18377521
_cell_angle_alpha   92.57913413
_cell_angle_beta   113.19247414
_cell_angle_gamma   113.19196008
_symmetry_Int_Tables_number   1
_chemical_formula_structural   AgH6C6S2NO5
_chemical_formula_sum   'Ag2 H12 C12 S4 N2 O10'
_cell_volume   446.10200082
_cell_formula_units_Z   2
loop_
 _symmetry_equiv_pos_site_id
 _symmetry_equiv_pos_as_xyz
  1  'x, y, z'
loop_
 _atom_site_type_symbol
 _atom_site_label
 _atom_site_symmetry_multiplicity
 _atom_site_fract_x
 _atom_site_fract_y
 _atom_site_fract_z
 _atom_site_occupancy
 _atom_site_hle17_bader_spin_density
 _atom_site_hle17_ddec_charge
 _atom_site_hle17_ddec_spin_density
 _atom_site_hle17_ddec_sum_bond_order
 _atom_site_hle17_magmom
 _atom_site_hse06_10hf_bader_spin_density
 _atom_site_hse06_10hf_ddec_charge
 _atom_site_hse06_10hf_ddec_spin_density
 _atom_site_hse06_10hf_ddec_sum_bond_order
 _atom_site_hse06_10hf_magmom
 _atom_site_hse06_bader_spin_density
 _atom_site_hse06_ddec_charge
 _atom_site_hse06_ddec_spin_density
 _atom_site_hse06_ddec_sum_bond_order
 _atom_site_hse06_magmom
 _atom_site_pbe_bader_spin_density
 _atom_site_pbe_cm5_charge
 _atom_site_pbe_ddec_charge
 _atom_site_pbe_ddec_spin_density
 _atom_site_pbe_ddec_sum_bond_order
 _atom_site_pbe_magmom
Ag  Ag0  1  0.68862273  0.95746200  0.95746456  1  0  0.726644  0  1.167323  0  0  0.618552  0  1.575196  0  0  0.645646  0  1.527115  0  0  0.465868  0.598838  0  1.608889  0
Ag  Ag1  1  0.31137783  0.04253660  0.04253503  1  0  0.726683  0  1.167279  0  0  0.618581  0  1.575118  0  0  0.645677  0  1.527031  0  0  0.465887  0.598867  0  1.608811  0
H  H2  1  0.41910356  0.72812711  0.10661103  1  0  0.430845  0  0.862822  0  0  0.402475  0  0.924298  0  0  0.411654  0  0.910975  0  0  0.300636  0.396011  0  0.933656  0
H  H3  1  0.58089790  0.89338900  0.27187317  1  0  0.430818  0  0.862831  0  0  0.402445  0  0.924337  0  0  0.411622  0  0.911019  0  0  0.30062  0.395985  0  0.933689  0
H  H4  1  0.58089900  0.27187014  0.89338804  1  0  0.43099  0  0.862755  0  0  0.402586  0  0.9242  0  0  0.411761  0  0.910883  0  0  0.300684  0.396128  0  0.93355  0
H  H5  1  0.41910534  0.10660961  0.72812623  1  0  0.430825  0  0.862842  0  0  0.402486  0  0.924257  0  0  0.411666  0  0.910934  0  0  0.300653  0.396023  0  0.933613  0
H  H6  1  0.77557458  0.26850510  0.69277149  1  0  0.120434  0  0.949622  0  0  0.128048  0  1.013656  0  0  0.131905  0  1.010472  0  0  0.110254  0.125217  0  1.016053  0
H  H7  1  0.22443087  0.30723036  0.73149341  1  0  0.120428  0  0.949522  0  0  0.128013  0  1.013599  0  0  0.131871  0  1.010412  0  0  0.110255  0.125181  0  1.015993  0
H  H8  1  0.22443067  0.73149761  0.30723011  1  0  0.120418  0  0.949426  0  0  0.127993  0  1.013539  0  0  0.131851  0  1.010354  0  0  0.110235  0.12516  0  1.015934  0
H  H9  1  0.77557369  0.69277646  0.26850570  1  0  0.120382  0  0.949694  0  0  0.128062  0  1.013651  0  0  0.13192  0  1.010463  0  0  0.110274  0.125231  0  1.016048  0
H  H10  1  0.74921416  0.17749995  0.38720427  1  0  0.096262  0  0.976487  0  0  0.105754  0  1.038985  0  0  0.108947  0  1.037005  0  0  0.10306  0.103403  0  1.040589  0
H  H11  1  0.25077795  0.61279063  0.82249845  1  0  0.096204  0  0.976516  0  0  0.105701  0  1.039025  0  0  0.108895  0  1.037043  0  0  0.103044  0.103347  0  1.04064  0
H  H12  1  0.25077970  0.82249316  0.61279490  1  0  0.096253  0  0.976706  0  0  0.105726  0  1.039199  0  0  0.108919  0  1.037218  0  0  0.103019  0.103373  0  1.04081  0
H  H13  1  0.74921453  0.38720797  0.17749314  1  0  0.096218  0  0.97634  0  0  0.105714  0  1.038867  0  0  0.108906  0  1.03689  0  0  0.103019  0.103363  0  1.040472  0
C  C14  1  0.78761747  0.53130956  0.64954467  1  0  -0.1306  0  3.762178  0  0  -0.111863  0  4.006613  0  0  -0.118108  0  4.030322  0  0  -0.016475  -0.10779  0  3.990914  0
C  C15  1  0.21237677  0.35044604  0.46869020  1  0  -0.130745  0  3.761894  0  0  -0.111861  0  4.006214  0  0  -0.118109  0  4.02992  0  0  -0.016511  -0.107794  0  3.990524  0
C  C16  1  0.21237433  0.46869588  0.35044579  1  0  -0.130534  0  3.762124  0  0  -0.11184  0  4.006612  0  0  -0.118089  0  4.030322  0  0  -0.01656  -0.107773  0  3.990922  0
C  C17  1  0.78761912  0.64954842  0.53131470  1  0  -0.130747  0  3.761927  0  0  -0.111913  0  4.006323  0  0  -0.118172  0  4.030033  0  0  -0.016548  -0.107839  0  3.990626  0
C  C18  1  0.77172362  0.35942538  0.59999522  1  0  -0.02218  0  3.677696  0  0  -0.048434  0  3.927294  0  0  -0.047039  0  3.944767  0  0  -0.07361  -0.049388  0  3.915691  0
C  C19  1  0.22827900  0.40002151  0.64057685  1  0  -0.022189  0  3.678267  0  0  -0.048446  0  3.927869  0  0  -0.047055  0  3.945348  0  0  -0.073596  -0.049391  0  3.916254  0
C  C20  1  0.22826961  0.64056085  0.40001313  1  0  -0.022116  0  3.678173  0  0  -0.048373  0  3.92785  0  0  -0.046983  0  3.945332  0  0  -0.073509  -0.049316  0  3.916235  0
C  C21  1  0.77172553  0.59999355  0.35941411  1  0  -0.02207  0  3.677613  0  0  -0.048412  0  3.927257  0  0  -0.047009  0  3.944728  0  0  -0.073527  -0.049366  0  3.915654  0
C  C22  1  0.75574726  0.30909698  0.42676829  1  0  -0.050655  0  3.719752  0  0  -0.067621  0  3.976264  0  0  -0.068832  0  3.994841  0  0  -0.080198  -0.066834  0  3.963896  0
C  C23  1  0.24424828  0.57320535  0.69090722  1  0  -0.050482  0  3.719565  0  0  -0.06749  0  3.976089  0  0  -0.068701  0  3.994661  0  0  -0.080193  -0.066706  0  3.963725  0
C  C24  1  0.24424452  0.69091396  0.57321755  1  0  -0.050607  0  3.719343  0  0  -0.067528  0  3.975829  0  0  -0.068735  0  3.994403  0  0  -0.080128  -0.066746  0  3.963469  0
C  C25  1  0.75574832  0.42678224  0.30910617  1  0  -0.050505  0  3.719761  0  0  -0.067509  0  3.976351  0  0  -0.068727  0  3.99494  0  0  -0.080191  -0.066718  0  3.963975  0
S  S26  1  0.82667844  0.63740700  0.86426972  1  0  1.253964  0  5.425151  0  0  1.1624  0  5.93005  0  0  1.208036  0  5.913552  0  0  0.555031  1.130864  0  5.940523  0
S  S27  1  0.17333815  0.13572706  0.36260300  1  0  1.254087  0  5.425286  0  0  1.16247  0  5.930203  0  0  1.208118  0  5.913689  0  0  0.555098  1.130899  0  5.940682  0
S  S28  1  0.17333954  0.36260259  0.13573226  1  0  1.253938  0  5.425146  0  0  1.162372  0  5.930095  0  0  1.20802  0  5.913574  0  0  0.555032  1.130805  0  5.940576  0
S  S29  1  0.82667247  0.86427292  0.63740176  1  0  1.25405  0  5.42521  0  0  1.162457  0  5.930105  0  0  1.208107  0  5.913589  0  0  0.555032  1.130908  0  5.940584  0
N  N30  1  0.76944886  0.80079009  0.80078904  1  0  -0.820724  0  3.093646  0  0  -0.751026  0  3.449318  0  0  -0.776786  0  3.438905  0  0  -0.452505  -0.732775  0  3.455591  0
N  N31  1  0.23055975  0.19921399  0.19921515  1  0  -0.820783  0  3.093674  0  0  -0.751019  0  3.449235  0  0  -0.776763  0  3.438806  0  0  -0.452537  -0.732775  0  3.455529  0
O  O32  1  0.50000041  0.86251479  0.13748227  1  0  -0.84383  0  1.964756  0  0  -0.773346  0  2.195477  0  0  -0.797413  0  2.160006  0  0  -0.575091  -0.755979  0  2.219946  0
O  O33  1  0.50000550  0.13748656  0.86251707  1  0  -0.843979  0  1.964722  0  0  -0.77349  0  2.195351  0  0  -0.797559  0  2.159877  0  0  -0.575184  -0.756121  0  2.219816  0
O  O34  1  0.03776091  0.70541696  0.99367232  1  0  -0.631196  0  1.999756  0  0  -0.580573  0  2.275905  0  0  -0.602746  0  2.261034  0  0  -0.320129  -0.564877  0  2.28562  0
O  O35  1  0.96223750  0.00632105  0.29458327  1  0  -0.631171  0  1.999417  0  0  -0.580605  0  2.27565  0  0  -0.602784  0  2.260782  0  0  -0.320144  -0.56491  0  2.285377  0
O  O36  1  0.96223293  0.29457891  0.00632210  1  0  -0.631236  0  1.999362  0  0  -0.580638  0  2.275528  0  0  -0.602817  0  2.260656  0  0  -0.320172  -0.564945  0  2.285255  0
O  O37  1  0.03776174  0.99367480  0.70542055  1  0  -0.631212  0  1.99971  0  0  -0.580603  0  2.275897  0  0  -0.602776  0  2.261019  0  0  -0.320125  -0.564908  0  2.285616  0
O  O38  1  0.68300807  0.51919088  0.92285738  1  0  -0.597985  0  1.982963  0  0  -0.537331  0  2.223324  0  0  -0.559584  0  2.212001  0  0  -0.297724  -0.521727  0  2.230571  0
O  O39  1  0.31698691  0.07714313  0.48080646  1  0  -0.597959  0  1.983517  0  0  -0.537309  0  2.223839  0  0  -0.559582  0  2.212538  0  0  -0.297672  -0.521631  0  2.231039  0
O  O40  1  0.31699049  0.48080906  0.07714761  1  0  -0.597966  0  1.983474  0  0  -0.537287  0  2.223764  0  0  -0.559575  0  2.212495  0  0  -0.297682  -0.521608  0  2.230962  0
O  O41  1  0.68301365  0.92286366  0.51919599  1  0  -0.597971  0  1.983157  0  0  -0.537317  0  2.223512  0  0  -0.559577  0  2.21219  0  0  -0.297692  -0.521686  0  2.230741  0
