# generated using pymatgen
data_ZnH8C12O5
_symmetry_space_group_name_H-M   'P 1'
_cell_length_a   7.01882788
_cell_length_b   9.64194352
_cell_length_c   15.69300000
_cell_angle_alpha   99.07324365
_cell_angle_beta   90.00000000
_cell_angle_gamma   90.00000000
_symmetry_Int_Tables_number   1
_chemical_formula_structural   ZnH8C12O5
_chemical_formula_sum   'Zn4 H32 C48 O20'
_cell_volume   1048.73746385
_cell_formula_units_Z   4
loop_
 _symmetry_equiv_pos_site_id
 _symmetry_equiv_pos_as_xyz
  1  'x, y, z'
loop_
 _atom_site_type_symbol
 _atom_site_label
 _atom_site_symmetry_multiplicity
 _atom_site_fract_x
 _atom_site_fract_y
 _atom_site_fract_z
 _atom_site_occupancy
 _atom_site_hle17_bader_spin_density
 _atom_site_hle17_ddec_charge
 _atom_site_hle17_ddec_spin_density
 _atom_site_hle17_ddec_sum_bond_order
 _atom_site_hle17_magmom
 _atom_site_hse06_10hf_bader_spin_density
 _atom_site_hse06_10hf_ddec_charge
 _atom_site_hse06_10hf_ddec_spin_density
 _atom_site_hse06_10hf_ddec_sum_bond_order
 _atom_site_hse06_10hf_magmom
 _atom_site_hse06_bader_spin_density
 _atom_site_hse06_ddec_charge
 _atom_site_hse06_ddec_spin_density
 _atom_site_hse06_ddec_sum_bond_order
 _atom_site_hse06_magmom
 _atom_site_pbe_bader_charge
 _atom_site_pbe_bader_spin_density
 _atom_site_pbe_cm5_charge
 _atom_site_pbe_ddec_charge
 _atom_site_pbe_ddec_spin_density
 _atom_site_pbe_ddec_sum_bond_order
 _atom_site_pbe_magmom
Zn  Zn0  1  0.40121229  0.23939065  0.50041258  1  0  1.210623  0  1.681362  0  0  1.047203  0  2.128783  0  0  1.096347  0  2.066035  0  1.383796  0  0.682704  1.01257  0  2.172074  0
Zn  Zn1  1  0.90121315  0.26060939  0.49958758  1  0  1.210629  0  1.681366  0  0  1.047206  0  2.12879  0  0  1.096352  0  2.066037  0  1.383786  0  0.682707  1.012571  0  2.172081  0
Zn  Zn2  1  0.59878516  0.76061048  0.49958784  1  0  1.21061  0  1.681413  0  0  1.047168  0  2.128852  0  0  1.096315  0  2.066099  0  1.383779  0  0.682674  1.012531  0  2.172142  0
Zn  Zn3  1  0.09878572  0.73938964  0.50041265  1  0  1.210639  0  1.68134  0  0  1.047185  0  2.128771  0  0  1.096334  0  2.06602  0  1.383795  0  0.682705  1.012546  0  2.172062  0
H  H4  1  0.17225098  0.43071223  0.45005353  1  0  0.446875  0  0.833493  0  0  0.415206  0  0.905851  0  0  0.425995  0  0.894393  0  0.663726  0  0.311139  0.407616  0  0.913892  0
H  H5  1  0.67225327  0.06928781  0.54994599  1  0  0.44691  0  0.833461  0  0  0.415202  0  0.90586  0  0  0.425989  0  0.894412  0  0.663729  0  0.311142  0.407615  0  0.913896  0
H  H6  1  0.82774504  0.56928680  0.54994478  1  0  0.446913  0  0.833457  0  0  0.415193  0  0.905878  0  0  0.425982  0  0.894426  0  0.663739  0  0.311123  0.407606  0  0.913914  0
H  H7  1  0.32774561  0.93071227  0.45005433  1  0  0.446868  0  0.833462  0  0  0.415145  0  0.905888  0  0  0.425935  0  0.894436  0  0.663738  0  0.311114  0.407559  0  0.913923  0
H  H8  1  0.17137334  0.45705947  0.55001728  1  0  0.446986  0  0.835808  0  0  0.414878  0  0.908899  0  0  0.425735  0  0.896102  0  0.655813  0  0.310456  0.407263  0  0.91694  0
H  H9  1  0.67137136  0.04294162  0.44998235  1  0  0.44701  0  0.835772  0  0  0.414917  0  0.908828  0  0  0.425777  0  0.896042  0  0.655811  0  0.310462  0.407301  0  0.916871  0
H  H10  1  0.82862696  0.54293956  0.44998167  1  0  0.446994  0  0.835782  0  0  0.414896  0  0.908843  0  0  0.425757  0  0.896069  0  0.655814  0  0.31046  0.407281  0  0.916885  0
H  H11  1  0.32862610  0.95705951  0.55001808  1  0  0.447001  0  0.835786  0  0  0.414888  0  0.908884  0  0  0.425747  0  0.896083  0  0.655817  0  0.310455  0.407274  0  0.916923  0
H  H12  1  0.91180039  0.25750057  0.25742248  1  0  0.110635  0  0.95271  0  0  0.116128  0  1.018333  0  0  0.119431  0  1.017095  0  0.095603  0  0.104956  0.113686  0  1.019443  0
H  H13  1  0.41180238  0.24249947  0.74257641  1  0  0.110599  0  0.952712  0  0  0.116102  0  1.018325  0  0  0.119404  0  1.017089  0  0.095637  0  0.104929  0.113661  0  1.019434  0
H  H14  1  0.08820134  0.74250266  0.74257752  1  0  0.110635  0  0.952714  0  0  0.116125  0  1.018343  0  0  0.119428  0  1.017105  0  0.095654  0  0.104948  0.113684  0  1.019452  0
H  H15  1  0.58819793  0.75750271  0.25742475  1  0  0.110542  0  0.95275  0  0  0.116084  0  1.018324  0  0  0.119386  0  1.017088  0  0.095646  0  0.104916  0.113642  0  1.019436  0
H  H16  1  0.91959656  0.22441685  0.09705263  1  0  0.08144  0  0.973095  0  0  0.092451  0  1.03638  0  0  0.094635  0  1.036314  0  0.053207  0  0.096278  0.090824  0  1.036711  0
H  H17  1  0.41959997  0.27558214  0.90294679  1  0  0.081429  0  0.973094  0  0  0.092429  0  1.036392  0  0  0.094613  0  1.036328  0  0.052766  0  0.096271  0.090797  0  1.036736  0
H  H18  1  0.08040659  0.77558428  0.90294716  1  0  0.081445  0  0.973127  0  0  0.092458  0  1.036413  0  0  0.094644  0  1.036346  0  0.053213  0  0.096272  0.090824  0  1.036761  0
H  H19  1  0.58040175  0.72441899  0.09705555  1  0  0.081402  0  0.973145  0  0  0.092435  0  1.036412  0  0  0.094619  0  1.036346  0  0.053208  0  0.096278  0.090806  0  1.036746  0
H  H20  1  0.64765657  0.30758722  0.01636066  1  0  0.085917  0  0.970576  0  0  0.096213  0  1.036987  0  0  0.098784  0  1.036181  0  0.016001  0  0.097287  0.094377  0  1.037627  0
H  H21  1  0.14765856  0.19241387  0.98363896  1  0  0.085925  0  0.970568  0  0  0.096224  0  1.036978  0  0  0.098795  0  1.03617  0  0.016015  0  0.097298  0.094387  0  1.037617  0
H  H22  1  0.35234658  0.69241286  0.98363839  1  0  0.085933  0  0.970581  0  0  0.09622  0  1.036997  0  0  0.09879  0  1.036193  0  0.016036  0  0.097298  0.094384  0  1.037636  0
H  H23  1  0.85234459  0.80758621  0.01636264  1  0  0.085941  0  0.970588  0  0  0.09623  0  1.036999  0  0  0.098799  0  1.036196  0  0.01603  0  0.097304  0.094393  0  1.037638  0
H  H24  1  0.34505904  0.43428527  0.01597355  1  0  0.084186  0  0.980377  0  0  0.094975  0  1.046572  0  0  0.097338  0  1.045885  0  0.071299  0  0.097218  0.093274  0  1.047078  0
H  H25  1  0.84505848  0.06571687  0.98402618  1  0  0.084202  0  0.980354  0  0  0.094984  0  1.04656  0  0  0.097351  0  1.04587  0  0.071307  0  0.097211  0.093281  0  1.047067  0
H  H26  1  0.65494411  0.56571691  0.98402443  1  0  0.084182  0  0.980408  0  0  0.09496  0  1.046615  0  0  0.097332  0  1.045918  0  0.071369  0  0.0972  0.093258  0  1.047123  0
H  H27  1  0.15494182  0.93428111  0.01597458  1  0  0.084196  0  0.980408  0  0  0.094985  0  1.046605  0  0  0.097349  0  1.045918  0  0.071359  0  0.097199  0.093281  0  1.047112  0
H  H28  1  0.07682622  0.56536927  0.09466876  1  0  0.089506  0  0.950894  0  0  0.10218  0  1.007163  0  0  0.104476  0  1.007554  0  0.081927  0  0.098904  0.100437  0  1.007265  0
H  H29  1  0.57682138  0.93463715  0.90533043  1  0  0.089357  0  0.950838  0  0  0.102023  0  1.007146  0  0  0.104318  0  1.007538  0  0.081958  0  0.098855  0.10028  0  1.007247  0
H  H30  1  0.92317836  0.43463396  0.90532805  1  0  0.089495  0  0.950876  0  0  0.102172  0  1.007149  0  0  0.104466  0  1.007542  0  0.081986  0  0.098917  0.10043  0  1.007249  0
H  H31  1  0.42317749  0.06535978  0.09467023  1  0  0.089374  0  0.950831  0  0  0.102042  0  1.007137  0  0  0.104337  0  1.007529  0  0.081989  0  0.098864  0.100299  0  1.007238  0
H  H32  1  0.08544447  0.62038067  0.25554909  1  0  0.108809  0  0.952937  0  0  0.11513  0  1.018231  0  0  0.118232  0  1.017279  0  0.112624  0  0.105159  0.112797  0  1.019234  0
H  H33  1  0.58544248  0.87962365  0.74444989  1  0  0.108827  0  0.952936  0  0  0.115147  0  1.018241  0  0  0.11825  0  1.017284  0  0.112646  0  0.105174  0.112813  0  1.019244  0
H  H34  1  0.91455584  0.37962046  0.74444815  1  0  0.108818  0  0.95291  0  0  0.115129  0  1.018223  0  0  0.118232  0  1.017269  0  0.112612  0  0.105153  0.112795  0  1.019227  0
H  H35  1  0.41455782  0.12037538  0.25555033  1  0  0.108831  0  0.952934  0  0  0.115148  0  1.018234  0  0  0.118251  0  1.01728  0  0.112645  0  0.105178  0.112815  0  1.019237  0
C  C36  1  0.79871741  0.30091692  0.22204459  1  0  -0.05407  0  3.707015  0  0  -0.077946  0  3.95533  0  0  -0.077006  0  3.974076  0  0.019776  0  -0.078736  -0.078453  0  3.94299  0
C  C37  1  0.29871939  0.19908207  0.77795484  1  0  -0.054063  0  3.707023  0  0  -0.077954  0  3.955353  0  0  -0.077013  0  3.974101  0  0.019716  0  -0.078733  -0.07846  0  3.943012  0
C  C38  1  0.20128290  0.69908421  0.77795521  1  0  -0.054054  0  3.706985  0  0  -0.077938  0  3.955302  0  0  -0.076997  0  3.974049  0  0.019726  0  -0.07872  -0.078443  0  3.94296  0
C  C39  1  0.70128376  0.80091906  0.22204623  1  0  -0.054102  0  3.707182  0  0  -0.078019  0  3.955512  0  0  -0.077079  0  3.97426  0  0.01972  0  -0.078753  -0.078527  0  3.943172  0
C  C40  1  0.80035301  0.28043862  0.13114435  1  0  -0.070603  0  3.800523  0  0  -0.083808  0  4.052194  0  0  -0.086732  0  4.074305  0  -0.018336  0  -0.093956  -0.081876  0  4.037469  0
C  C41  1  0.30035642  0.21955932  0.86885497  1  0  -0.07062  0  3.800568  0  0  -0.083825  0  4.052264  0  0  -0.086748  0  4.074375  0  -0.017923  0  -0.093978  -0.081894  0  4.037536  0
C  C42  1  0.19964729  0.71956251  0.86885608  1  0  -0.070551  0  3.80055  0  0  -0.083761  0  4.052207  0  0  -0.086684  0  4.074318  0  -0.018335  0  -0.093936  -0.081829  0  4.037478  0
C  C43  1  0.69964388  0.78043761  0.13114633  1  0  -0.070443  0  3.800446  0  0  -0.083686  0  4.052147  0  0  -0.086609  0  4.074259  0  -0.01829  0  -0.093929  -0.081753  0  4.037421  0
C  C44  1  0.65038067  0.32754248  0.08678073  1  0  -0.120237  0  3.755365  0  0  -0.139922  0  4.001888  0  0  -0.141456  0  4.022664  0  -0.051487  0  -0.091774  -0.138688  0  3.987662  0
C  C45  1  0.15038408  0.17245756  0.91321880  1  0  -0.120183  0  3.755344  0  0  -0.139872  0  4.001865  0  0  -0.141407  0  4.022641  0  -0.051462  0  -0.09175  -0.138639  0  3.987639  0
C  C46  1  0.34962248  0.67245865  0.91321906  1  0  -0.120312  0  3.755373  0  0  -0.139973  0  4.001908  0  0  -0.141508  0  4.022684  0  -0.051525  0  -0.091797  -0.138739  0  3.98768  0
C  C47  1  0.84962049  0.82753937  0.08678122  1  0  -0.120319  0  3.755278  0  0  -0.139996  0  4.001814  0  0  -0.141531  0  4.02259  0  -0.051528  0  -0.09179  -0.138762  0  3.987588  0
C  C48  1  0.49712716  0.40319602  0.13169385  1  0  0.050615  0  3.794705  0  0  0.068243  0  4.023001  0  0  0.066381  0  4.048807  0  0.013312  0  -0.008808  0.06956  0  4.00535  0
C  C49  1  0.99712803  0.09680507  0.86830578  1  0  0.050622  0  3.794728  0  0  0.068253  0  4.022994  0  0  0.066391  0  4.048802  0  0.013318  0  -0.008793  0.06957  0  4.005342  0
C  C50  1  0.50287599  0.59680511  0.86830530  1  0  0.050671  0  3.794577  0  0  0.068259  0  4.022929  0  0  0.066396  0  4.048735  0  0.013346  0  -0.008787  0.069577  0  4.005277  0
C  C51  1  0.00287370  0.90319396  0.13169572  1  0  0.050623  0  3.794856  0  0  0.068268  0  4.023112  0  0  0.066408  0  4.048919  0  0.013328  0  -0.008813  0.069585  0  4.005461  0
C  C52  1  0.49781959  0.42915152  0.22442344  1  0  0.041428  0  3.708878  0  0  0.041297  0  3.934722  0  0  0.043416  0  3.958921  0  -0.065855  0  0.005186  0.040044  0  3.918418  0
C  C53  1  0.99782045  0.07084747  0.77557599  1  0  0.041357  0  3.708937  0  0  0.041276  0  3.934712  0  0  0.043395  0  3.95891  0  -0.065877  0  0.005204  0.040023  0  3.918407  0
C  C54  1  0.50218071  0.57084856  0.77557498  1  0  0.041486  0  3.708789  0  0  0.041345  0  3.934668  0  0  0.043469  0  3.958857  0  -0.065702  0  0.005195  0.040091  0  3.918364  0
C  C55  1  0.00217985  0.92915366  0.22442508  1  0  0.041423  0  3.708971  0  0  0.041303  0  3.934794  0  0  0.043419  0  3.958998  0  -0.065728  0  0.005206  0.04005  0  3.91849  0
C  C56  1  0.64875789  0.36977832  0.26816414  1  0  -0.096748  0  3.704226  0  0  -0.082004  0  3.945687  0  0  -0.089494  0  3.965991  0  -0.012899  0  -0.012496  -0.077212  0  3.932132  0
C  C57  1  0.14875988  0.13022067  0.73183529  1  0  -0.096708  0  3.704277  0  0  -0.081968  0  3.945702  0  0  -0.089462  0  3.966011  0  -0.012882  0  -0.01247  -0.077177  0  3.932147  0
C  C58  1  0.35124098  0.63022071  0.73183545  1  0  -0.096816  0  3.704183  0  0  -0.082048  0  3.94563  0  0  -0.089541  0  3.965938  0  -0.013043  0  -0.012488  -0.077257  0  3.932077  0
C  C59  1  0.85124042  0.86978046  0.26816578  1  0  -0.096636  0  3.704242  0  0  -0.081892  0  3.94567  0  0  -0.089383  0  3.965979  0  -0.013116  0  -0.012429  -0.077101  0  3.932118  0
C  C60  1  0.64230383  0.35800996  0.36213254  1  0  0.701857  0  3.84946  0  0  0.642301  0  4.15033  0  0  0.678387  0  4.139998  0  1.584241  0  0.22523  0.617792  0  4.156691  0
C  C61  1  0.14230296  0.14198903  0.63786752  1  0  0.701849  0  3.849543  0  0  0.642313  0  4.150375  0  0  0.678399  0  4.140045  0  1.584231  0  0.225238  0.617805  0  4.156736  0
C  C62  1  0.35769220  0.64198906  0.63786641  1  0  0.70195  0  3.849411  0  0  0.642383  0  4.150281  0  0  0.678469  0  4.139949  0  1.584258  0  0.225262  0.617874  0  4.156643  0
C  C63  1  0.85770446  0.85801105  0.36213408  1  0  0.701859  0  3.849535  0  0  0.642322  0  4.150363  0  0  0.678406  0  4.140032  0  1.584089  0  0.225218  0.61781  0  4.156726  0
C  C64  1  0.34336360  0.45392650  0.08631476  1  0  -0.122771  0  3.763563  0  0  -0.143745  0  4.013012  0  0  -0.145362  0  4.034037  0  -0.129689  0  -0.09254  -0.142395  0  3.998551  0
C  C65  1  0.84336304  0.04607564  0.91368497  1  0  -0.122857  0  3.763603  0  0  -0.143839  0  4.013049  0  0  -0.145459  0  4.034073  0  -0.129668  0  -0.092547  -0.142484  0  3.998585  0
C  C66  1  0.65663813  0.54607463  0.91368376  1  0  -0.12277  0  3.763496  0  0  -0.143722  0  4.012947  0  0  -0.145346  0  4.033966  0  -0.129676  0  -0.092535  -0.14237  0  3.998487  0
C  C67  1  0.15663584  0.95392233  0.08631643  1  0  -0.122839  0  3.763662  0  0  -0.143819  0  4.013091  0  0  -0.145438  0  4.034114  0  -0.129654  0  -0.092533  -0.142464  0  3.998628  0
C  C68  1  0.19493283  0.52733349  0.12981222  1  0  -0.070316  0  3.792979  0  0  -0.08238  0  4.043984  0  0  -0.085219  0  4.065735  0  -0.05723  0  -0.093203  -0.080467  0  4.029417  0
C  C69  1  0.69493227  0.97267083  0.87018676  1  0  -0.070031  0  3.792971  0  0  -0.082075  0  4.043968  0  0  -0.084914  0  4.065721  0  -0.057243  0  -0.093133  -0.080163  0  4.029399  0
C  C70  1  0.80506889  0.47266658  0.87018555  1  0  -0.070346  0  3.792958  0  0  -0.082416  0  4.043975  0  0  -0.085255  0  4.065728  0  -0.057257  0  -0.093225  -0.080503  0  4.029407  0
C  C71  1  0.30506803  0.02732925  0.12981356  1  0  -0.070111  0  3.792926  0  0  -0.08217  0  4.043924  0  0  -0.085008  0  4.065675  0  -0.05723  0  -0.093162  -0.080258  0  4.029356  0
C  C72  1  0.19777091  0.55714245  0.22070655  1  0  -0.054771  0  3.70162  0  0  -0.079827  0  3.951339  0  0  -0.078856  0  3.970232  0  0.013823  0  -0.079539  -0.080401  0  3.93892  0
C  C73  1  0.69777035  0.94285977  0.77929351  1  0  -0.054821  0  3.701687  0  0  -0.079889  0  3.951431  0  0  -0.078919  0  3.970326  0  0.013806  0  -0.079528  -0.080463  0  3.939012  0
C  C74  1  0.80222796  0.44285658  0.77929176  1  0  -0.054718  0  3.70164  0  0  -0.079764  0  3.951343  0  0  -0.078793  0  3.970237  0  0.013802  0  -0.0795  -0.080338  0  3.938923  0
C  C75  1  0.30222853  0.05714031  0.22070746  1  0  -0.05479  0  3.701715  0  0  -0.079837  0  3.951433  0  0  -0.078866  0  3.970327  0  0.013803  0  -0.079519  -0.080411  0  3.939015  0
C  C76  1  0.34751244  0.51268948  0.26737570  1  0  -0.094658  0  3.695819  0  0  -0.080535  0  3.937769  0  0  -0.087949  0  3.957986  0  -0.023257  0  -0.012527  -0.07576  0  3.924246  0
C  C77  1  0.84751188  0.98731063  0.73262351  1  0  -0.094553  0  3.695742  0  0  -0.080498  0  3.93767  0  0  -0.087912  0  3.957887  0  -0.023524  0  -0.012538  -0.075718  0  3.924147  0
C  C78  1  0.65248786  0.48730849  0.73262251  1  0  -0.094638  0  3.695856  0  0  -0.080551  0  3.937761  0  0  -0.087969  0  3.957976  0  -0.023565  0  -0.01253  -0.075771  0  3.92424  0
C  C79  1  0.15248842  0.01268944  0.26737682  1  0  -0.094619  0  3.695881  0  0  -0.080563  0  3.937819  0  0  -0.087978  0  3.958037  0  -0.023557  0  -0.012548  -0.075783  0  3.924298  0
C  C80  1  0.35507923  0.57357298  0.36127258  1  0  0.702785  0  3.845035  0  0  0.644775  0  4.143658  0  0  0.680957  0  4.133097  0  1.586982  0  0.226379  0.620182  0  4.150174  0
C  C81  1  0.85508864  0.92642504  0.63872771  1  0  0.702663  0  3.845285  0  0  0.644791  0  4.143699  0  0  0.680977  0  4.133134  0  1.587284  0  0.226319  0.62019  0  4.150234  0
C  C82  1  0.64491252  0.42642605  0.63872701  1  0  0.702686  0  3.845122  0  0  0.644844  0  4.143493  0  0  0.681032  0  4.132921  0  1.58728  0  0.22637  0.620237  0  4.150038  0
C  C83  1  0.14491308  0.07357504  0.36127262  1  0  0.702686  0  3.845187  0  0  0.644834  0  4.143573  0  0  0.68102  0  4.133005  0  1.587261  0  0.226342  0.620229  0  4.150117  0
O  O84  1  0.48547850  0.31990487  0.39119843  1  0  -0.638363  0  2.077723  0  0  -0.571902  0  2.342841  0  0  -0.600595  0  2.330439  0  -1.174582  0  -0.305682  -0.55186  0  2.350697  0
O  O85  1  0.98547936  0.18009517  0.60880110  1  0  -0.638347  0  2.077796  0  0  -0.571895  0  2.342903  0  0  -0.600589  0  2.330501  0  -1.174592  0  -0.305688  -0.551853  0  2.35076  0
O  O86  1  0.51452323  0.68009731  0.60880146  1  0  -0.638428  0  2.077649  0  0  -0.571951  0  2.342764  0  0  -0.600645  0  2.33036  0  -1.174565  0  -0.305696  -0.551909  0  2.350621  0
O  O87  1  0.01452237  0.81990596  0.39119869  1  0  -0.638343  0  2.078012  0  0  -0.571876  0  2.343105  0  0  -0.600569  0  2.330705  0  -1.174404  0  -0.305666  -0.551838  0  2.350966  0
O  O88  1  0.79804350  0.37769530  0.40495174  1  0  -0.679515  0  2.117953  0  0  -0.606209  0  2.375162  0  0  -0.633128  0  2.360272  0  -1.197972  0  -0.320197  -0.587593  0  2.384881  0
O  O89  1  0.29804264  0.12230264  0.59504695  1  0  -0.679535  0  2.117933  0  0  -0.606241  0  2.375153  0  0  -0.633156  0  2.360257  0  -1.197981  0  -0.320208  -0.587628  0  2.384874  0
O  O90  1  0.20195680  0.62230373  0.59504721  1  0  -0.679524  0  2.11801  0  0  -0.606214  0  2.375241  0  0  -0.633131  0  2.360346  0  -1.198026  0  -0.320202  -0.587597  0  2.384958  0
O  O91  1  0.70195624  0.87769534  0.40495445  1  0  -0.679568  0  2.117724  0  0  -0.606287  0  2.374962  0  0  -0.633196  0  2.360056  0  -1.197989  0  -0.320221  -0.587659  0  2.384674  0
O  O92  1  0.51217953  0.62720012  0.38962983  1  0  -0.639638  0  2.078261  0  0  -0.572123  0  2.341205  0  0  -0.600826  0  2.328561  0  -1.172716  0  -0.305074  -0.552072  0  2.349237  0
O  O93  1  0.01218010  0.87280000  0.61037321  1  0  -0.63959  0  2.078584  0  0  -0.572115  0  2.34146  0  0  -0.600817  0  2.328814  0  -1.172819  0  -0.305019  -0.55206  0  2.349497  0
O  O94  1  0.48781507  0.37279996  0.61037050  1  0  -0.6396  0  2.078417  0  0  -0.572171  0  2.34131  0  0  -0.600875  0  2.328661  0  -1.172825  0  -0.305089  -0.552114  0  2.349351  0
O  O95  1  0.98781736  0.12720008  0.38962903  1  0  -0.639587  0  2.078469  0  0  -0.572152  0  2.341368  0  0  -0.600855  0  2.328722  0  -1.172811  0  -0.305044  -0.552095  0  2.349407  0
O  O96  1  0.20046225  0.57500661  0.40476266  1  0  -0.67923  0  2.112789  0  0  -0.607438  0  2.369788  0  0  -0.634431  0  2.355063  0  -1.194858  0  -0.320738  -0.588706  0  2.37947  0
O  O97  1  0.70046311  0.92499246  0.59523518  1  0  -0.679255  0  2.112698  0  0  -0.607497  0  2.369639  0  0  -0.634493  0  2.354918  0  -1.19478  0  -0.320743  -0.588772  0  2.379335  0
O  O98  1  0.79953378  0.42499242  0.59523502  1  0  -0.679257  0  2.112705  0  0  -0.607498  0  2.369621  0  0  -0.634492  0  2.354893  0  -1.1948  0  -0.320743  -0.588768  0  2.379317  0
O  O99  1  0.29953577  0.07500867  0.40476461  1  0  -0.67924  0  2.112695  0  0  -0.607476  0  2.369625  0  0  -0.634471  0  2.354902  0  -1.194806  0  -0.320734  -0.588755  0  2.379328  0
O  O100  1  0.16013927  0.37758292  0.50012596  1  0  -0.840756  0  2.016329  0  0  -0.763136  0  2.266644  0  0  -0.78906  0  2.234372  0  -1.253273  0  -0.545647  -0.744924  0  2.288019  0
O  O101  1  0.66014014  0.12241607  0.49987410  1  0  -0.840829  0  2.016278  0  0  -0.763189  0  2.266652  0  0  -0.789108  0  2.234378  0  -1.253284  0  -0.545675  -0.744979  0  2.288024  0
O  O102  1  0.83985818  0.62241611  0.49987299  1  0  -0.840805  0  2.016251  0  0  -0.763156  0  2.266665  0  0  -0.789087  0  2.234409  0  -1.253276  0  -0.545628  -0.744945  0  2.288039  0
O  O103  1  0.33985874  0.87758296  0.50012676  1  0  -0.840757  0  2.016238  0  0  -0.763101  0  2.266694  0  0  -0.78903  0  2.234422  0  -1.253287  0  -0.545619  -0.744888  0  2.288057  0
