# generated using pymatgen
data_CuH10C13(NO2)2
_symmetry_space_group_name_H-M   'P 1'
_cell_length_a   11.73825536
_cell_length_b   12.50182817
_cell_length_c   13.16640045
_cell_angle_alpha   90.00016297
_cell_angle_beta   115.13330953
_cell_angle_gamma   89.99989328
_symmetry_Int_Tables_number   1
_chemical_formula_structural   CuH10C13(NO2)2
_chemical_formula_sum   'Cu4 H40 C52 N8 O16'
_cell_volume   1749.23125405
_cell_formula_units_Z   4
loop_
 _symmetry_equiv_pos_site_id
 _symmetry_equiv_pos_as_xyz
  1  'x, y, z'
loop_
 _atom_site_type_symbol
 _atom_site_label
 _atom_site_symmetry_multiplicity
 _atom_site_fract_x
 _atom_site_fract_y
 _atom_site_fract_z
 _atom_site_occupancy
 _atom_site_pbe_bader_charge
 _atom_site_pbe_bader_spin_density
 _atom_site_pbe_cm5_charge
 _atom_site_pbe_ddec_charge
 _atom_site_pbe_ddec_spin_density
 _atom_site_pbe_ddec_sum_bond_order
 _atom_site_pbe_magmom
Cu  Cu0  1  0.92550783  0.93458089  0.52402378  1  1.091628  0.593013  0.694577  0.801427  0.744339  2.370932  0.594
Cu  Cu1  1  0.57448766  0.43458460  0.97597655  1  1.091153  0.592992  0.694584  0.801411  0.744337  2.371061  0.594
Cu  Cu2  1  0.07448914  0.06541908  0.47597301  1  1.091152  0.59298  0.694583  0.801476  0.744323  2.371095  0.594
Cu  Cu3  1  0.42550457  0.56542017  0.02402906  1  1.091704  0.593  0.694615  0.801448  0.744321  2.371194  0.594
H  H4  1  0.78596629  0.30082617  0.30152843  1  0.10132  0.000622  0.114593  0.127205  0.00047  0.997824  0.0
H  H5  1  0.71402139  0.80083375  0.19846117  1  0.101625  0.000622  0.11459  0.127197  0.00047  0.997738  0.0
H  H6  1  0.21403068  0.69917940  0.69846836  1  0.101365  0.000622  0.114573  0.127207  0.00047  0.997798  0.0
H  H7  1  0.28597466  0.19917182  0.80153147  1  0.101395  0.000623  0.114576  0.127161  0.00047  0.997851  0.0
H  H8  1  0.47598939  0.44783620  0.33998590  1  0.075464  0.000305  0.105974  0.111436  0.000227  1.013433  0.0
H  H9  1  0.02400966  0.94783680  0.16001467  1  0.075499  0.000305  0.105979  0.111428  0.000227  1.01342  0.0
H  H10  1  0.52400850  0.55216298  0.66001807  1  0.075496  0.000305  0.10598  0.111466  0.000227  1.013402  0.0
H  H11  1  0.97599484  0.05215998  0.83998499  1  0.075593  0.000305  0.105961  0.111419  0.000227  1.013419  0.0
H  H12  1  0.68415095  0.19191458  0.56171879  1  0.090919  0.000274  0.110453  0.117838  0.000176  0.991754  0.0
H  H13  1  0.81585134  0.69191310  0.93828272  1  0.090919  0.000274  0.11046  0.117847  0.000176  0.991727  0.0
H  H14  1  0.31585637  0.80808540  0.43828345  1  0.090939  0.000274  0.110487  0.117888  0.000176  0.991703  0.0
H  H15  1  0.18414940  0.30808767  0.06171323  1  0.090816  0.000274  0.110487  0.117918  0.000176  0.991693  0.0
H  H16  1  0.53734354  0.31273630  0.60832202  1  0.094468  3.9e-05  0.116366  0.100949  1.8e-05  0.963599  0.0
H  H17  1  0.96265677  0.81273683  0.89167830  1  0.094463  3.9e-05  0.116354  0.100924  1.8e-05  0.963668  0.0
H  H18  1  0.46266188  0.68725887  0.39168254  1  0.094495  3.9e-05  0.11638  0.100977  1.8e-05  0.963656  0.0
H  H19  1  0.03734303  0.18725914  0.10831881  1  0.094454  3.9e-05  0.116363  0.101031  1.8e-05  0.963582  0.0
H  H20  1  0.44453411  0.40915893  0.50861415  1  0.06632  9.1e-05  0.109451  0.086741  3.9e-05  0.993775  0.0
H  H21  1  0.05546728  0.90915807  0.99138626  1  0.066317  9.1e-05  0.109453  0.086746  3.9e-05  0.993784  0.0
H  H22  1  0.55547224  0.59083864  0.49139457  1  0.06632  9.1e-05  0.10944  0.086717  3.9e-05  0.993776  0.0
H  H23  1  0.94453347  0.09083790  0.00860741  1  0.066421  9.1e-05  0.109461  0.086768  3.9e-05  0.993785  0.0
H  H24  1  0.43002271  0.16736287  0.34841873  1  0.110039  -2.4e-05  0.119709  0.125191  -2.8e-05  1.017595  0.0
H  H25  1  0.06997376  0.66736176  0.15157707  1  0.110165  -2.4e-05  0.119701  0.125223  -2.8e-05  1.017678  0.0
H  H26  1  0.56998555  0.83263710  0.65158388  1  0.110029  -2.4e-05  0.119705  0.125316  -2.8e-05  1.017818  0.0
H  H27  1  0.93001382  0.33263181  0.84841234  1  0.110088  -2.4e-05  0.119709  0.125224  -2.8e-05  1.017586  0.0
H  H28  1  0.21558711  0.05238063  0.31985885  1  0.088109  -7.4e-05  0.111638  0.107316  -6.9e-05  1.013514  0.0
H  H29  1  0.28441039  0.55238083  0.18014083  1  0.088092  -7.4e-05  0.111625  0.107238  -6.9e-05  1.013648  0.0
H  H30  1  0.78441458  0.94762014  0.68013822  1  0.088062  -7.4e-05  0.111639  0.107266  -6.9e-05  1.013624  0.0
H  H31  1  0.71558279  0.44761754  0.81986135  1  0.088148  -7.4e-05  0.111675  0.107347  -6.9e-05  1.013449  0.0
H  H32  1  0.19028871  0.28392641  0.59943218  1  0.087506  -4.9e-05  0.107727  0.168115  -6.2e-05  0.990846  0.0
H  H33  1  0.30970996  0.78392483  0.90056836  1  0.08717  -4.9e-05  0.107724  0.168102  -6.2e-05  0.990861  0.0
H  H34  1  0.80970921  0.71607596  0.40056496  1  0.087395  -4.9e-05  0.107752  0.168116  -6.2e-05  0.990835  0.0
H  H35  1  0.69029357  0.21607754  0.09943852  1  0.08708  -4.9e-05  0.107771  0.168093  -6.2e-05  0.990819  0.0
H  H36  1  0.25957316  0.39406458  0.55999403  1  0.054844  -2.9e-05  0.095678  0.137073  -1.8e-05  0.994695  0.0
H  H37  1  0.24042636  0.89406244  0.94000714  1  0.054827  -2.9e-05  0.095666  0.137044  -1.8e-05  0.994738  0.0
H  H38  1  0.74042758  0.60593779  0.44000419  1  0.05483  -2.9e-05  0.095673  0.13708  -1.8e-05  0.994754  0.0
H  H39  1  0.75957528  0.10593833  0.05999978  1  0.055005  -2.9e-05  0.095637  0.136945  -1.8e-05  0.994763  0.0
H  H40  1  0.35571316  0.30758291  0.66892455  1  0.070985  -1.1e-05  0.101456  0.153654  -5e-06  0.985559  0.0
H  H41  1  0.14428643  0.80757981  0.83107641  1  0.07099  -1.1e-05  0.101463  0.153664  -5e-06  0.985556  0.0
H  H42  1  0.64428475  0.69241946  0.33107487  1  0.071031  -1.1e-05  0.101464  0.153664  -5e-06  0.985528  0.0
H  H43  1  0.85571804  0.19241856  0.16893082  1  0.070907  -1.1e-05  0.101443  0.153583  -5e-06  0.985523  0.0
C  C44  1  0.74717315  0.24020007  0.43705757  1  -0.053532  0.01719  -0.010413  -0.008905  0.011796  3.971008  0.013
C  C45  1  0.75282397  0.74020158  0.06294002  1  -0.053697  0.017191  -0.010378  -0.008896  0.011797  3.971149  0.013
C  C46  1  0.25282853  0.75980070  0.56294101  1  -0.053538  0.017191  -0.010395  -0.008887  0.011797  3.971034  0.013
C  C47  1  0.24717582  0.25979680  0.93705784  1  -0.053321  0.017188  -0.010382  -0.008881  0.011797  3.971112  0.013
C  C48  1  0.72750169  0.30797564  0.34692296  1  0.067274  0.002752  -0.069098  -0.097605  0.00181  3.90041  0.002
C  C49  1  0.77249256  0.80797978  0.15307143  1  0.067044  0.00275  -0.069078  -0.097534  0.001808  3.900435  0.002
C  C50  1  0.27249715  0.69202753  0.65307681  1  0.067358  0.002751  -0.06909  -0.097572  0.001809  3.900419  0.002
C  C51  1  0.22750537  0.19202099  0.84692268  1  0.067379  0.002751  -0.069099  -0.097557  0.001809  3.900448  0.002
C  C52  1  0.62889126  0.38175528  0.31165678  1  -0.026477  0.016732  -0.015346  -0.018152  0.011639  3.987979  0.013
C  C53  1  0.87110292  0.88175856  0.18834083  1  -0.026312  0.016733  -0.015376  -0.018274  0.01164  3.988034  0.013
C  C54  1  0.37110663  0.61824629  0.68834644  1  -0.026201  0.016733  -0.015372  -0.018223  0.01164  3.987954  0.013
C  C55  1  0.12889782  0.11824221  0.81165587  1  -0.026441  0.016733  -0.015387  -0.018236  0.01164  3.987869  0.013
C  C56  1  0.55360475  0.39073732  0.36993723  1  -0.037268  0.001698  -0.081854  -0.155097  0.001145  3.953401  0.001
C  C57  1  0.94639318  0.89073869  0.13006183  1  -0.037511  0.001697  -0.081839  -0.155053  0.001144  3.953252  0.001
C  C58  1  0.44639597  0.60926185  0.63006705  1  -0.037939  0.001698  -0.081804  -0.155086  0.001145  3.953301  0.001
C  C59  1  0.05360756  0.10926048  0.86993488  1  -0.03761  0.001697  -0.081774  -0.154973  0.001144  3.953156  0.001
C  C60  1  0.57386571  0.32415918  0.46136902  1  0.015903  0.001456  -0.015214  0.074426  0.000872  4.024087  0.001
C  C61  1  0.92613228  0.82416031  0.03862913  1  0.016215  0.001457  -0.015215  0.074426  0.000872  4.024041  0.001
C  C62  1  0.42613501  0.67583999  0.53863375  1  0.016208  0.001457  -0.015208  0.074511  0.000872  4.024106  0.001
C  C63  1  0.07386752  0.17584046  0.96136722  1  0.01622  0.001457  -0.015191  0.074508  0.000872  4.024068  0.001
C  C64  1  0.67006262  0.24780551  0.49378438  1  -0.085038  0.001148  -0.074299  -0.137775  0.000494  3.920828  0.001
C  C65  1  0.82993730  0.74780511  0.00621658  1  -0.085047  0.001147  -0.074353  -0.137836  0.000493  3.920968  0.001
C  C66  1  0.32993998  0.75219446  0.50621760  1  -0.085051  0.001147  -0.074391  -0.137925  0.000494  3.921011  0.001
C  C67  1  0.17006250  0.25219406  0.99377976  1  -0.084897  0.001147  -0.074426  -0.137984  0.000494  3.921132  0.001
C  C68  1  0.48619905  0.32888185  0.51784838  1  0.268081  0.000392  -0.042663  -0.093272  0.000233  3.905759  0.0
C  C69  1  0.01379959  0.82888184  0.98215075  1  0.268042  0.000392  -0.042655  -0.093255  0.000234  3.905832  0.0
C  C70  1  0.51380637  0.67111572  0.48215770  1  0.268083  0.000392  -0.042654  -0.093298  0.000234  3.905851  0.0
C  C71  1  0.98619927  0.17111654  0.01784447  1  0.268035  0.000392  -0.042644  -0.09344  0.000234  3.905849  0.0
C  C72  1  0.36599125  0.17523623  0.38764044  1  0.25295  0.000179  -0.017928  -0.137973  0.000114  3.995304  0.0
C  C73  1  0.13400237  0.67523570  0.11236037  1  0.252808  0.000179  -0.017914  -0.138011  0.000114  3.995103  0.0
C  C74  1  0.63400569  0.82476134  0.61236469  1  0.253058  0.000179  -0.017942  -0.138108  0.000114  3.995262  0.0
C  C75  1  0.86598611  0.32476028  0.88763774  1  0.25302  0.000179  -0.017931  -0.137963  0.000114  3.995373  0.0
C  C76  1  0.25972422  0.11974362  0.37422350  1  0.458069  -0.000248  -0.01764  -0.037428  -0.000304  4.092261  0.0
C  C77  1  0.24027509  0.61974054  0.12577933  1  0.457978  -0.000248  -0.017628  -0.037281  -0.000304  4.092103  0.0
C  C78  1  0.74028404  0.88026275  0.62577987  1  0.457977  -0.000247  -0.017662  -0.037414  -0.000304  4.091859  0.0
C  C79  1  0.75972091  0.38025463  0.87422544  1  0.457956  -0.000247  -0.017735  -0.037531  -0.000304  4.09225  0.0
C  C80  1  0.28742168  0.23975744  0.50260420  1  0.975707  -0.000604  0.215138  0.345014  -0.000721  3.934677  0.0
C  C81  1  0.21257703  0.73975632  0.99739548  1  0.975438  -0.000604  0.215146  0.344999  -0.000721  3.934727  0.0
C  C82  1  0.71257905  0.76024413  0.49739478  1  0.975978  -0.000603  0.215171  0.345071  -0.00072  3.934746  0.0
C  C83  1  0.78742556  0.26024525  0.00261028  1  0.975874  -0.000603  0.215179  0.344951  -0.00072  3.93475  0.0
C  C84  1  0.27276921  0.30988572  0.58741987  1  -0.05407  -1.5e-05  -0.228653  -0.460667  -2.9e-05  3.939495  0.0
C  C85  1  0.22723133  0.80988432  0.91257994  1  -0.053696  -1.5e-05  -0.228624  -0.460589  -2.9e-05  3.939485  0.0
C  C86  1  0.72723058  0.69011505  0.41257875  1  -0.05399  -1.5e-05  -0.228682  -0.460684  -2.9e-05  3.939512  0.0
C  C87  1  0.77277315  0.19011645  0.08742578  1  -0.053773  -1.5e-05  -0.228663  -0.460392  -2.9e-05  3.939383  0.0
C  C88  1  0.84472944  0.15423740  0.46558904  1  1.577662  -0.00159  0.212709  0.576453  -0.001878  4.176312  -0.004
C  C89  1  0.65527151  0.65423499  0.03441130  1  1.578817  -0.00159  0.212715  0.576484  -0.001877  4.176378  -0.004
C  C90  1  0.15526658  0.84576097  0.53440967  1  1.577875  -0.00159  0.212716  0.576424  -0.001878  4.176445  -0.004
C  C91  1  0.34473489  0.34575778  0.96558604  1  1.577255  -0.001587  0.212727  0.576516  -0.001878  4.176457  -0.004
C  C92  1  0.59486718  0.44155361  0.20433022  1  1.534717  3e-05  0.212973  0.571784  -0.000308  4.177821  -0.003
C  C93  1  0.90512882  0.94155554  0.29566900  1  1.534599  3.1e-05  0.212968  0.57183  -0.000309  4.177747  -0.003
C  C94  1  0.40513353  0.55844477  0.79567255  1  1.534737  3.1e-05  0.212959  0.571778  -0.000309  4.177861  -0.003
C  C95  1  0.09486439  0.05844203  0.70432711  1  1.534689  3.1e-05  0.21288  0.571692  -0.000309  4.177963  -0.003
N  N96  1  0.38298198  0.25110365  0.46959101  1  -1.204871  -5e-05  -0.244134  -0.015866  -5.4e-05  3.698857  0.0
N  N97  1  0.11701630  0.75110209  0.03040722  1  -1.204848  -5e-05  -0.244136  -0.015875  -5.4e-05  3.69879  0.0
N  N98  1  0.61702157  0.74889633  0.53040980  1  -1.204756  -5e-05  -0.244122  -0.015847  -5.4e-05  3.699006  0.0
N  N99  1  0.88298067  0.24889628  0.96959032  1  -1.20483  -5e-05  -0.244112  -0.015804  -5.4e-05  3.698952  0.0
N  N100  1  0.21175944  0.16001628  0.44559458  1  -1.199587  -0.001663  -0.365831  -0.363249  -0.000937  3.458936  0.0
N  N101  1  0.28823890  0.66001610  0.05440571  1  -1.19926  -0.001663  -0.365846  -0.363309  -0.000937  3.459088  0.0
N  N102  1  0.78824036  0.83998369  0.55440253  1  -1.199969  -0.001664  -0.365806  -0.363249  -0.000938  3.458847  0.0
N  N103  1  0.71176274  0.33998547  0.94560121  1  -1.199851  -0.001664  -0.365792  -0.363224  -0.000938  3.458927  0.0
O  O104  1  0.81886879  0.06627034  0.49974795  1  -1.10204  0.090994  -0.310479  -0.518013  0.057016  2.351529  0.083
O  O105  1  0.68112849  0.56626938  0.00024620  1  -1.102114  0.090998  -0.310521  -0.518034  0.057018  2.351559  0.083
O  O106  1  0.18113102  0.93373443  0.50024537  1  -1.101797  0.091013  -0.310602  -0.518151  0.057028  2.351351  0.083
O  O107  1  0.31886942  0.43373059  0.99975095  1  -1.101917  0.091005  -0.310524  -0.51807  0.057023  2.351233  0.083
O  O108  1  0.94236291  0.17610449  0.45036567  1  -1.104181  0.094085  -0.312944  -0.519979  0.059019  2.33865  0.085
O  O109  1  0.55764271  0.67609830  0.04964031  1  -1.105237  0.09408  -0.312976  -0.520013  0.059016  2.338725  0.085
O  O110  1  0.05764160  0.82389948  0.54963172  1  -1.104653  0.094067  -0.312876  -0.51987  0.059009  2.33898  0.085
O  O111  1  0.44235989  0.32389607  0.95036166  1  -1.104368  0.094075  -0.312911  -0.519956  0.059012  2.339042  0.085
O  O112  1  0.64360046  0.40706811  0.14066119  1  -1.10769  0.08543  -0.310726  -0.523571  0.053488  2.378259  0.077
O  O113  1  0.85639839  0.90706553  0.35933827  1  -1.107731  0.085438  -0.310709  -0.523566  0.053492  2.378201  0.077
O  O114  1  0.35639553  0.59293826  0.85934358  1  -1.107855  0.08545  -0.310797  -0.523642  0.0535  2.378046  0.077
O  O115  1  0.14360800  0.09293365  0.64065831  1  -1.107771  0.085452  -0.31074  -0.523617  0.053502  2.378062  0.077
O  O116  1  0.51602074  0.51782809  0.18343614  1  -1.106971  0.097943  -0.311237  -0.517082  0.061529  2.36076  0.088
O  O117  1  0.98397467  0.01782981  0.31656476  1  -1.106936  0.097933  -0.311208  -0.517076  0.061523  2.360685  0.088
O  O118  1  0.48397150  0.48217508  0.81656796  1  -1.106888  0.097922  -0.311137  -0.51698  0.061516  2.36108  0.088
O  O119  1  0.01602324  0.98217497  0.68343163  1  -1.107019  0.097919  -0.311107  -0.516947  0.061514  2.361131  0.088
