# generated using pymatgen
data_MnH16C26(NO2)2
_symmetry_space_group_name_H-M   'P 1'
_cell_length_a   9.99897098
_cell_length_b   14.96214001
_cell_length_c   18.02054031
_cell_angle_alpha   65.13693870
_cell_angle_beta   73.87394662
_cell_angle_gamma   70.47074576
_symmetry_Int_Tables_number   1
_chemical_formula_structural   MnH16C26(NO2)2
_chemical_formula_sum   'Mn4 H64 C104 N8 O16'
_cell_volume   2275.51575095
_cell_formula_units_Z   4
loop_
 _symmetry_equiv_pos_site_id
 _symmetry_equiv_pos_as_xyz
  1  'x, y, z'
loop_
 _atom_site_type_symbol
 _atom_site_label
 _atom_site_symmetry_multiplicity
 _atom_site_fract_x
 _atom_site_fract_y
 _atom_site_fract_z
 _atom_site_occupancy
 _atom_site_pbe_bader_charge
 _atom_site_pbe_bader_spin_density
 _atom_site_pbe_cm5_charge
 _atom_site_pbe_ddec_charge
 _atom_site_pbe_ddec_spin_density
 _atom_site_pbe_ddec_sum_bond_order
 _atom_site_pbe_magmom
Mn  Mn0  1  0.68116794  0.22513368  0.86916484  1  1.488859  4.483458  0.61282  0.875761  4.625191  2.445765  4.392
Mn  Mn1  1  0.77564952  0.27476545  0.63066922  1  1.487982  -4.484216  0.612827  0.876104  -4.625706  2.444473  -4.392
Mn  Mn2  1  0.31882492  0.77490411  0.13082042  1  1.488852  4.483447  0.612894  0.87587  4.625108  2.445671  4.392
Mn  Mn3  1  0.22432906  0.72522444  0.36932429  1  1.488069  -4.484075  0.612893  0.876157  -4.625559  2.444668  -4.392
H  H4  1  0.09904501  0.22396808  0.47202211  1  0.109657  -6.8e-05  0.100018  0.110772  0.000323  1.03603  0.0
H  H5  1  0.79557363  0.27620758  0.02776267  1  0.10305  6.9e-05  0.099623  0.110703  -0.000325  1.034688  0.0
H  H6  1  0.90095537  0.77603090  0.52797653  1  0.109682  -6.8e-05  0.100008  0.110791  0.000323  1.035877  0.0
H  H7  1  0.20441290  0.72379820  0.97224131  1  0.103153  6.9e-05  0.099637  0.110719  -0.000325  1.034593  0.0
H  H8  1  0.27264486  0.31444487  0.46974294  1  0.050038  -5.7e-05  0.093794  0.086984  2.3e-05  1.036672  0.0
H  H9  1  0.05725791  0.18552985  0.03024352  1  0.047583  5.3e-05  0.093899  0.087495  -2.6e-05  1.036543  0.0
H  H10  1  0.72735005  0.68555485  0.53026018  1  0.050146  -5.7e-05  0.093824  0.087046  2.3e-05  1.03673  0.0
H  H11  1  0.94272685  0.81446912  0.96975643  1  0.047576  5.3e-05  0.093936  0.087533  -2.6e-05  1.036602  0.0
H  H12  1  0.49042307  0.32520654  0.36185668  1  0.077976  7e-06  0.091538  0.088706  2.1e-05  1.06661  0.0
H  H13  1  0.17774880  0.17483252  0.13809541  1  0.081983  1e-06  0.091732  0.08924  -1.7e-05  1.066712  0.0
H  H14  1  0.50957212  0.67479241  0.63814832  1  0.077646  7e-06  0.091502  0.088655  2.1e-05  1.066548  0.0
H  H15  1  0.82224669  0.82515963  0.86190191  1  0.082023  1e-06  0.091722  0.089177  -1.6e-05  1.066784  0.0
H  H16  1  0.15036790  0.14172407  0.37110255  1  0.040948  -2.2e-05  0.099618  0.098797  -1e-06  1.010979  0.0
H  H17  1  0.66349450  0.35858377  0.12861624  1  0.053231  2.7e-05  0.099594  0.098496  5e-06  1.01033  0.0
H  H18  1  0.84963352  0.85827491  0.62889704  1  0.041058  -2.2e-05  0.099624  0.098806  -1e-06  1.010894  0.0
H  H19  1  0.33650222  0.64141971  0.87139306  1  0.053234  2.7e-05  0.099592  0.098512  5e-06  1.010343  0.0
H  H20  1  0.54059518  0.24355424  0.25943971  1  0.050081  -2e-06  0.095156  0.09177  -6e-06  1.040066  0.0
H  H21  1  0.04372425  0.25663771  0.24041719  1  0.051347  1e-05  0.095176  0.092032  1.1e-05  1.040053  0.0
H  H22  1  0.45940313  0.75644471  0.74056481  1  0.049985  -2e-06  0.095151  0.091845  -6e-06  1.039924  0.0
H  H23  1  0.95628587  0.74335139  0.75958225  1  0.05134  1e-05  0.095254  0.092165  1.1e-05  1.039931  0.0
H  H24  1  0.30391426  0.00416697  0.33703778  1  0.108364  -7.3e-05  0.108134  0.111734  0.000204  1.009303  0.0
H  H25  1  0.64496424  0.49601506  0.16295631  1  0.109996  7.6e-05  0.10805  0.110938  -0.000202  1.009449  0.0
H  H26  1  0.69607741  0.99584188  0.66296101  1  0.108808  -7.3e-05  0.108146  0.111725  0.000204  1.009201  0.0
H  H27  1  0.35503917  0.50397546  0.83706088  1  0.109695  7.6e-05  0.108095  0.111093  -0.000202  1.009304  0.0
H  H28  1  0.47476926  0.25010322  0.14356744  1  0.081576  0.000399  0.10375  0.107393  0.000161  1.022041  0.0
H  H29  1  0.86839368  0.24982731  0.35623180  1  0.100967  -0.000361  0.103831  0.10778  -0.00014  1.021257  0.0
H  H30  1  0.52523543  0.74990713  0.85643436  1  0.081398  0.000399  0.10377  0.10742  0.000162  1.0222  0.0
H  H31  1  0.13163190  0.75015642  0.64377821  1  0.101036  -0.000361  0.103808  0.107807  -0.00014  1.021287  0.0
H  H32  1  0.44166234  0.00658455  0.08799977  1  0.114567  0.000335  0.113809  0.128767  -0.000323  1.010059  0.0
H  H33  1  0.53634964  0.49331803  0.41205000  1  0.126003  -0.000326  0.113627  0.12849  0.000322  1.009835  0.0
H  H34  1  0.55833047  0.99343873  0.91199773  1  0.114559  0.000335  0.113834  0.128796  -0.000323  1.009924  0.0
H  H35  1  0.46365835  0.50665655  0.58796590  1  0.126135  -0.000325  0.113628  0.12845  0.000322  1.009733  0.0
H  H36  1  0.62091580  0.47284212  0.82515019  1  0.103991  0.001123  0.118627  0.082415  0.00037  1.007659  0.0
H  H37  1  0.91918610  0.02726136  0.67472491  1  0.082548  -0.001129  0.11853  0.082141  -0.000364  1.008072  0.0
H  H38  1  0.37907725  0.52715990  0.17484797  1  0.104106  0.001122  0.118562  0.08239  0.00037  1.007589  0.0
H  H39  1  0.08081059  0.97275674  0.32524992  1  0.0828  -0.00113  0.118479  0.081977  -0.000364  1.007977  0.0
H  H40  1  0.75954908  0.59453919  0.80640162  1  0.106693  0.000731  0.107115  0.113586  0.000419  1.011661  0.0
H  H41  1  0.16074895  0.90554508  0.69362442  1  0.068166  -0.000663  0.107362  0.114495  -0.000365  1.011113  0.0
H  H42  1  0.24046002  0.40544389  0.19358730  1  0.106501  0.000731  0.107043  0.113511  0.000419  1.011508  0.0
H  H43  1  0.83922626  0.09447208  0.30638181  1  0.068053  -0.000664  0.107316  0.114454  -0.000366  1.011149  0.0
H  H44  1  0.02182740  0.52822131  0.81904635  1  0.096807  7.2e-05  0.108036  0.109884  8.7e-05  1.011961  0.0
H  H45  1  0.36933873  0.97184639  0.68098513  1  0.112383  -6.9e-05  0.108385  0.110028  -8.9e-05  1.011781  0.0
H  H46  1  0.97817982  0.47176709  0.18094325  1  0.096601  7.2e-05  0.108082  0.11003  8.7e-05  1.011848  0.0
H  H47  1  0.63064895  0.02815324  0.31903190  1  0.112389  -6.9e-05  0.108393  0.110052  -8.9e-05  1.011768  0.0
H  H48  1  0.23918933  0.37624744  0.84530971  1  0.111023  0.00033  0.104763  0.113477  -8.7e-05  1.034653  0.0
H  H49  1  0.46094304  0.12399448  0.65469154  1  0.111816  -0.000326  0.105054  0.11447  8.9e-05  1.033764  0.0
H  H50  1  0.76080766  0.62375228  0.15469197  1  0.110888  0.00033  0.104731  0.113441  -8.7e-05  1.034755  0.0
H  H51  1  0.53906956  0.87600826  0.34531389  1  0.111919  -0.000326  0.105061  0.114413  8.9e-05  1.033838  0.0
H  H52  1  0.34423649  0.19401141  0.87421554  1  0.098701  8.7e-05  0.114583  0.129502  -0.000184  0.991547  0.0
H  H53  1  0.41237748  0.30625232  0.62581185  1  0.124256  -8.3e-05  0.114465  0.129224  0.000187  0.99008  0.0
H  H54  1  0.65577219  0.80599059  0.12578632  1  0.098797  8.7e-05  0.114567  0.129574  -0.000184  0.991563  0.0
H  H55  1  0.58763152  0.69374587  0.37419183  1  0.124297  -8.3e-05  0.114497  0.129389  0.000187  0.990091  0.0
H  H56  1  0.31296731  0.02227571  0.89828476  1  0.134158  0.000193  0.107856  0.107908  4e-05  1.04421  0.0
H  H57  1  0.23326957  0.47796274  0.60165578  1  0.116259  -0.000205  0.107808  0.108499  -3.9e-05  1.043578  0.0
H  H58  1  0.68702472  0.97773226  0.10173704  1  0.134681  0.000192  0.107859  0.108123  4e-05  1.044049  0.0
H  H59  1  0.76673803  0.52203633  0.39832840  1  0.116024  -0.000206  0.10785  0.10865  -3.9e-05  1.043637  0.0
H  H60  1  0.15210997  0.91929011  0.90714283  1  0.086143  0.000583  0.107945  0.115548  0.000213  1.021789  0.0
H  H61  1  0.97816965  0.58082653  0.59279352  1  0.080393  -0.000578  0.107991  0.115639  -0.000213  1.022168  0.0
H  H62  1  0.84787548  0.08072470  0.09287816  1  0.08555  0.000583  0.107966  0.115644  0.000213  1.021656  0.0
H  H63  1  0.02183308  0.41916570  0.40719045  1  0.080439  -0.000579  0.107954  0.115518  -0.000214  1.021942  0.0
H  H64  1  0.89327096  0.00687518  0.89018970  1  0.120809  0.00133  0.121552  0.092354  0.000665  0.998105  0.001
H  H65  1  0.79019542  0.49313202  0.60968871  1  0.117412  -0.001359  0.121428  0.092474  -0.000677  0.998747  -0.001
H  H66  1  0.10672617  0.99313594  0.10981190  1  0.121332  0.001329  0.121522  0.092305  0.000665  0.998115  0.001
H  H67  1  0.20979985  0.50685784  0.39031166  1  0.117393  -0.00136  0.121402  0.092495  -0.000677  0.998797  -0.001
C  C68  1  0.19741249  0.22761873  0.42668445  1  -0.028376  -0.000114  -0.094445  -0.083966  -4e-05  4.007505  0.0
C  C69  1  0.85212160  0.27257957  0.07312590  1  -0.032453  9.1e-05  -0.094502  -0.084639  2.2e-05  4.007253  0.0
C  C70  1  0.80258689  0.77237718  0.57331985  1  -0.028268  -0.000114  -0.094503  -0.084086  -4e-05  4.007395  0.0
C  C71  1  0.14786992  0.72742091  0.92687637  1  -0.032564  9.1e-05  -0.094416  -0.084469  2.1e-05  4.007119  0.0
C  C72  1  0.29294621  0.27927761  0.42426639  1  -0.037207  -0.000157  -0.096155  -0.087328  -9.5e-05  4.00905  0.0
C  C73  1  0.99686193  0.22082781  0.07563404  1  -0.055946  0.000226  -0.095875  -0.08758  0.000153  4.007117  0.0
C  C74  1  0.70705552  0.72071755  0.57573614  1  -0.037533  -0.000157  -0.096056  -0.087198  -9.5e-05  4.008934  0.0
C  C75  1  0.00312881  0.77917193  0.92436583  1  -0.055753  0.000226  -0.096  -0.087744  0.000153  4.007262  0.0
C  C76  1  0.41549552  0.28546731  0.36361500  1  -0.099807  6e-06  -0.096794  -0.07661  -4e-06  4.015748  0.0
C  C77  1  0.06484475  0.21464990  0.13629922  1  -0.053551  5e-06  -0.096724  -0.076358  1.4e-05  4.015113  0.0
C  C78  1  0.58450773  0.71453240  0.63638904  1  -0.099313  7e-06  -0.096789  -0.076638  -4e-06  4.015613  0.0
C  C79  1  0.93515387  0.78534225  0.86369984  1  -0.053726  5e-06  -0.096657  -0.076221  1.4e-05  4.015139  0.0
C  C80  1  0.22592094  0.18145666  0.36903721  1  -0.028134  -0.000169  -0.093837  -0.13333  -0.000142  3.975993  0.0
C  C81  1  0.77670732  0.31881097  0.13072158  1  -0.072703  0.000183  -0.093957  -0.132808  0.000152  3.974688  0.0
C  C82  1  0.77407948  0.81853925  0.63096693  1  -0.028184  -0.000169  -0.093869  -0.133396  -0.000142  3.975992  0.0
C  C83  1  0.22328918  0.68118722  0.86928348  1  -0.072655  0.000183  -0.093944  -0.132857  0.000151  3.974802  0.0
C  C84  1  0.44325829  0.23983078  0.30569860  1  -0.043629  -0.000166  -0.097614  -0.143221  -0.000146  3.990078  0.0
C  C85  1  0.98894985  0.26036694  0.19416143  1  -0.073368  0.000149  -0.097657  -0.143827  0.000132  3.989383  0.0
C  C86  1  0.55674832  0.76017120  0.69430636  1  -0.043553  -0.000166  -0.097589  -0.14335  -0.000146  3.990116  0.0
C  C87  1  0.01105507  0.73962215  0.80584049  1  -0.072947  0.000149  -0.097813  -0.144035  0.000132  3.989522  0.0
C  C88  1  0.34919401  0.18652404  0.30782512  1  -0.067399  0.000168  -0.016393  0.049853  0.000114  4.034679  0.0
C  C89  1  0.84369176  0.31369953  0.19197894  1  -0.05143  -0.000198  -0.016486  0.049544  -0.000142  4.031466  0.0
C  C90  1  0.65080634  0.81347797  0.69217526  1  -0.067607  0.000168  -0.01632  0.050116  0.000114  4.035035  0.0
C  C91  1  0.15631052  0.68629409  0.80802681  1  -0.052204  -0.000197  -0.016485  0.049531  -0.000141  4.031737  0.0
C  C92  1  0.37927435  0.13615566  0.24772047  1  -0.001977  -0.000818  -0.010273  0.058686  -0.000649  4.031733  -0.001
C  C93  1  0.76313835  0.36395060  0.25214307  1  -0.001815  0.000793  -0.010507  0.059128  0.000633  4.032811  0.001
C  C94  1  0.62071464  0.86383722  0.75228149  1  -0.001736  -0.000819  -0.010294  0.058591  -0.00065  4.031852  -0.001
C  C95  1  0.23686556  0.63603844  0.74786623  1  -0.001293  0.000792  -0.010491  0.059205  0.000632  4.032696  0.001
C  C96  1  0.34615599  0.04259224  0.27242588  1  -0.130085  0.004168  -0.082336  -0.155864  0.003461  3.953131  0.003
C  C97  1  0.66111342  0.45750707  0.22754212  1  -0.115513  -0.004043  -0.081865  -0.154098  -0.003369  3.951261  -0.002
C  C98  1  0.65383214  0.95740900  0.72757665  1  -0.130911  0.004173  -0.08232  -0.155818  0.003465  3.95256  0.003
C  C99  1  0.33889262  0.54247892  0.77247180  1  -0.115493  -0.004036  -0.082005  -0.154331  -0.003363  3.951114  -0.002
C  C100  1  0.44371441  0.17884158  0.16538351  1  -0.054807  0.003742  -0.076987  -0.135627  0.002811  3.915363  0.002
C  C101  1  0.78786462  0.32109778  0.33448761  1  -0.069781  -0.003658  -0.077257  -0.13626  -0.002736  3.916021  -0.002
C  C102  1  0.55628043  0.82116422  0.83461807  1  -0.054639  0.003746  -0.077088  -0.135841  0.002814  3.915745  0.002
C  C103  1  0.21215678  0.67888597  0.66551916  1  -0.069379  -0.003647  -0.077131  -0.136236  -0.002727  3.915972  -0.002
C  C104  1  0.36892373  0.99586000  0.21555203  1  -0.024562  0.000847  -0.019152  -0.04014  0.000919  4.024064  0.001
C  C105  1  0.58031276  0.50416214  0.28449433  1  -0.051127  -0.000839  -0.019133  -0.041453  -0.000898  4.024602  -0.001
C  C106  1  0.63106128  0.00416178  0.78444220  1  -0.024478  0.000846  -0.019238  -0.040266  0.00092  4.024489  0.001
C  C107  1  0.41968966  0.49582231  0.71552123  1  -0.05149  -0.00084  -0.019213  -0.041739  -0.0009  4.024799  -0.001
C  C108  1  0.46816473  0.13193815  0.10844832  1  0.008463  -0.001444  -0.018159  -0.026193  -0.001748  3.994564  -0.002
C  C109  1  0.70849876  0.36789528  0.39149757  1  0.000576  0.00148  -0.017112  -0.02617  0.00178  3.993  0.002
C  C110  1  0.53182338  0.86806611  0.89155649  1  0.00816  -0.001445  -0.018088  -0.025934  -0.00175  3.994321  -0.002
C  C111  1  0.29151529  0.63209154  0.60850316  1  7e-05  0.001477  -0.017131  -0.026212  0.001777  3.992855  0.002
C  C112  1  0.42634487  0.04190453  0.13277826  1  -0.037964  0.001208  -0.076315  -0.120034  0.000668  3.928235  0.001
C  C113  1  0.60104312  0.45799902  0.36724115  1  -0.018908  -0.001306  -0.076479  -0.119132  -0.000742  3.927063  -0.001
C  C114  1  0.57364884  0.95810738  0.86721693  1  -0.037664  0.001211  -0.076259  -0.120025  0.00067  3.927878  0.001
C  C115  1  0.39896163  0.54198469  0.63277098  1  -0.018412  -0.001296  -0.076439  -0.11891  -0.000735  3.926685  -0.001
C  C116  1  0.54526611  0.17547689  0.02244970  1  1.545641  0.011373  0.197113  0.54906  0.013428  4.220502  0.008
C  C117  1  0.74326758  0.32424206  0.47743937  1  1.558447  -0.011327  0.197503  0.549853  -0.013419  4.220218  -0.008
C  C118  1  0.45473809  0.82452894  0.97754654  1  1.545878  0.01138  0.196933  0.548862  0.013437  4.220987  0.008
C  C119  1  0.25676187  0.67573946  0.52255749  1  1.558406  -0.011328  0.19751  0.549846  -0.013414  4.22026  -0.008
C  C120  1  0.33304161  0.89610179  0.24337804  1  1.562886  0.003034  0.221954  0.576068  0.001636  4.201976  0.004
C  C121  1  0.47249604  0.60397341  0.25679110  1  1.583218  -0.002709  0.222498  0.577031  -0.001429  4.20139  -0.003
C  C122  1  0.66695020  0.10389490  0.75662272  1  1.563297  0.003032  0.221896  0.576018  0.001629  4.202397  0.004
C  C123  1  0.52749575  0.39602631  0.74321027  1  1.583242  -0.002693  0.222465  0.576979  -0.001408  4.201907  -0.003
C  C124  1  0.73539887  0.44649075  0.82900090  1  0.494321  0.011465  0.063733  0.116868  0.008785  3.927714  0.007
C  C125  1  0.01113877  0.05358598  0.67095002  1  0.551693  -0.011432  0.064201  0.11865  -0.008791  3.927626  -0.007
C  C126  1  0.26459886  0.55350978  0.17099206  1  0.494033  0.011445  0.063754  0.116739  0.008768  3.927611  0.007
C  C127  1  0.98885814  0.94641685  0.32904061  1  0.551517  -0.011428  0.064301  0.119063  -0.008787  3.927132  -0.007
C  C128  1  0.81359308  0.51437168  0.81925631  1  -0.002433  0.000213  -0.081044  -0.125846  6.1e-05  3.976416  0.0
C  C129  1  0.14747974  0.98571131  0.68075802  1  -0.009679  -0.00023  -0.082174  -0.129406  -3.3e-05  3.976871  0.0
C  C130  1  0.18641040  0.48562432  0.18073234  1  -0.002334  0.000221  -0.080933  -0.125699  6.7e-05  3.976046  0.0
C  C131  1  0.85251274  0.01429526  0.31924143  1  -0.009709  -0.000234  -0.082175  -0.129522  -3.6e-05  3.9765  0.0
C  C132  1  0.95805742  0.47781916  0.82593635  1  -0.048231  0.010906  -0.06036  -0.065507  0.008536  3.910622  0.006
C  C133  1  0.26205863  0.02226999  0.67407966  1  -0.056585  -0.011048  -0.060321  -0.064169  -0.008644  3.909982  -0.006
C  C134  1  0.04194116  0.52217304  0.17405270  1  -0.048261  0.010886  -0.06042  -0.065767  0.008521  3.910398  0.006
C  C135  1  0.73792484  0.97772971  0.32592523  1  -0.056759  -0.011046  -0.060357  -0.064224  -0.008643  3.90998  -0.006
C  C136  1  0.02411020  0.37344057  0.84197036  1  -0.047015  0.000313  0.000737  0.044241  1.3e-05  4.011937  0.0
C  C137  1  0.23970791  0.12667336  0.65802522  1  -0.03449  -0.000295  0.001086  0.044875  5e-06  4.009909  0.0
C  C138  1  0.97590396  0.62655768  0.15802419  1  -0.046685  0.000316  0.000802  0.044404  1.5e-05  4.01179  0.0
C  C139  1  0.76029730  0.87333550  0.34197147  1  -0.033499  -0.000294  0.001117  0.044838  5e-06  4.009381  0.0
C  C140  1  0.93631161  0.31124357  0.85002085  1  0.51182  0.007405  0.120918  0.118792  0.006057  3.979179  0.005
C  C141  1  0.09776744  0.18883178  0.64996452  1  0.500891  -0.007475  0.120788  0.11892  -0.006099  3.976788  -0.005
C  C142  1  0.06368867  0.68874395  0.14999010  1  0.512126  0.007391  0.120835  0.118611  0.006047  3.979622  0.005
C  C143  1  0.90225202  0.81117792  0.35001858  1  0.501853  -0.007483  0.120887  0.118917  -0.006107  3.976396  -0.005
C  C144  1  0.17241620  0.32851291  0.85095243  1  0.007851  -0.000781  -0.081183  -0.113447  -0.000839  3.960599  0.0
C  C145  1  0.35200092  0.17165262  0.64904655  1  -0.097969  0.000767  -0.081265  -0.114191  0.000829  3.959694  0.0
C  C146  1  0.82757690  0.67148606  0.14904956  1  0.00799  -0.000785  -0.081178  -0.113459  -0.000843  3.960406  0.0
C  C147  1  0.64799550  0.82834867  0.35094691  1  -0.098774  0.00077  -0.081278  -0.113935  0.000832  3.959532  0.0
C  C148  1  0.23136900  0.22698284  0.86670969  1  -0.029082  0.000338  -0.076827  -0.110865  5.4e-05  3.950829  0.0
C  C149  1  0.32505849  0.27320189  0.63330195  1  -0.019539  -0.000324  -0.076745  -0.110764  -3.7e-05  3.948922  0.0
C  C150  1  0.76862772  0.77301765  0.13329010  1  -0.029231  0.000343  -0.076846  -0.110967  5.7e-05  3.950908  0.0
C  C151  1  0.67493581  0.72680244  0.36669189  1  -0.019708  -0.000326  -0.076812  -0.111202  -3.9e-05  3.949058  0.0
C  C152  1  0.14593230  0.16238758  0.87465907  1  0.039179  -0.000785  -0.002041  0.038145  -0.000787  4.022394  -0.001
C  C153  1  0.18293527  0.33776242  0.62536885  1  0.018045  0.000702  -0.001927  0.039266  0.000777  4.022441  0.001
C  C154  1  0.85405991  0.83762275  0.12534689  1  0.039108  -0.000791  -0.001978  0.03825  -0.000791  4.022244  -0.001
C  C155  1  0.81708092  0.66223889  0.37462043  1  0.017841  0.000708  -0.001881  0.039417  0.000782  4.022204  0.001
C  C156  1  0.99839236  0.20435093  0.86648585  1  0.422886  0.010972  0.120139  0.118608  0.008709  3.980117  0.007
C  C157  1  0.06925613  0.29573453  0.63350552  1  0.494411  -0.010824  0.119807  0.117521  -0.008676  3.981227  -0.007
C  C158  1  0.00162064  0.79565646  0.13350404  1  0.42293  0.010991  0.120119  0.118644  0.008725  3.979786  0.007
C  C159  1  0.93075604  0.70425760  0.36649589  1  0.494698  -0.010843  0.119765  0.117456  -0.008692  3.981634  -0.007
C  C160  1  0.20079911  0.05718532  0.89062326  1  -0.099432  0.016696  -0.060659  -0.064776  0.012992  3.905109  0.01
C  C161  1  0.14842242  0.44297447  0.60936735  1  -0.042776  -0.016586  -0.061025  -0.066347  -0.012947  3.905356  -0.01
C  C162  1  0.79919500  0.94281966  0.10938814  1  -0.099732  0.016706  -0.060739  -0.065154  0.012999  3.905369  0.01
C  C163  1  0.85156872  0.55702991  0.39061698  1  -0.043025  -0.016611  -0.06108  -0.066569  -0.012966  3.905381  -0.01
C  C164  1  0.11188427  0.00026603  0.89608912  1  -0.054189  -0.001521  -0.084801  -0.131616  -0.001555  3.979363  -0.002
C  C165  1  0.00800985  0.49983878  0.60387861  1  -0.035887  0.001518  -0.084216  -0.131058  0.001535  3.97921  0.002
C  C166  1  0.88810583  0.99974733  0.10391778  1  -0.053821  -0.001527  -0.084738  -0.131553  -0.00156  3.979178  -0.002
C  C167  1  0.99198726  0.50016938  0.39610959  1  -0.035746  0.001523  -0.084144  -0.130781  0.001538  3.978735  0.002
C  C168  1  0.96729943  0.04834111  0.88699641  1  0.535227  0.016807  0.05989  0.108168  0.013532  3.937687  0.011
C  C169  1  0.90250663  0.45170175  0.61294204  1  0.529002  -0.016772  0.059696  0.107948  -0.013512  3.938751  -0.011
C  C170  1  0.03269747  0.95166773  0.11300601  1  0.53455  0.016819  0.059834  0.108135  0.013543  3.937575  0.011
C  C171  1  0.09749337  0.54830412  0.38704706  1  0.528549  -0.016796  0.059573  0.107712  -0.013532  3.93874  -0.011
N  N172  1  0.79434752  0.34778411  0.84370670  1  -1.24992  0.049023  -0.30291  -0.27114  0.034346  3.496857  0.017
N  N173  1  0.98606812  0.15227902  0.65623471  1  -1.252974  -0.049008  -0.302907  -0.271881  -0.034344  3.497569  -0.017
N  N174  1  0.20564168  0.65221409  0.15629450  1  -1.249948  0.049  -0.302881  -0.270982  0.034342  3.497062  0.017
N  N175  1  0.01393300  0.84772075  0.34375799  1  -1.253642  -0.049023  -0.303003  -0.272003  -0.034355  3.497764  -0.017
N  N176  1  0.91155042  0.14729112  0.87329392  1  -1.258312  0.052579  -0.315439  -0.276918  0.034248  3.523884  0.013
N  N177  1  0.93212830  0.35275289  0.62664128  1  -1.276981  -0.052599  -0.315346  -0.276828  -0.034281  3.523298  -0.013
N  N178  1  0.08845638  0.85271320  0.12670021  1  -1.258207  0.0526  -0.315384  -0.276929  0.034246  3.524251  0.013
N  N179  1  0.06786463  0.64725827  0.37335263  1  -1.276608  -0.052612  -0.315223  -0.276612  -0.034287  3.523797  -0.013
O  O180  1  0.59716567  0.25045185  0.00251470  1  -1.179845  0.047276  -0.316993  -0.552203  0.0342  2.13994  0.029
O  O181  1  0.85013577  0.24919458  0.49729688  1  -1.189774  -0.047193  -0.317482  -0.552291  -0.034119  2.137831  -0.029
O  O182  1  0.40280816  0.74957216  0.99748937  1  -1.17993  0.04728  -0.31688  -0.552165  0.034201  2.1403  0.029
O  O183  1  0.14989184  0.75078923  0.50269948  1  -1.189455  -0.04719  -0.317606  -0.552508  -0.034122  2.137787  -0.029
O  O184  1  0.56138669  0.13138064  0.97154500  1  -1.182231  0.061927  -0.323038  -0.541978  0.041035  2.218478  0.029
O  O185  1  0.66458709  0.36841678  0.52834161  1  -1.185771  -0.061929  -0.323328  -0.542699  -0.041012  2.220587  -0.029
O  O186  1  0.43864987  0.86861609  0.02844882  1  -1.182341  0.061919  -0.323015  -0.541893  0.041043  2.218519  0.029
O  O187  1  0.33542609  0.63157540  0.47165075  1  -1.18616  -0.0619  -0.323261  -0.542496  -0.040998  2.220517  -0.029
O  O188  1  0.33182439  0.84000430  0.32003840  1  -1.190209  -0.052386  -0.30845  -0.532302  -0.034024  2.319262  -0.016
O  O189  1  0.49166990  0.66011620  0.18013187  1  -1.193137  0.05253  -0.308288  -0.532399  0.034138  2.320576  0.016
O  O190  1  0.66814670  0.15998327  0.67996373  1  -1.190472  -0.052382  -0.308463  -0.532328  -0.034029  2.319305  -0.016
O  O191  1  0.50830340  0.33988277  0.81986874  1  -1.193195  0.052545  -0.308247  -0.532311  0.034141  2.320785  0.016
O  O192  1  0.30305000  0.87459470  0.19004438  1  -1.212431  0.047473  -0.301521  -0.555572  0.033493  2.421384  0.018
O  O193  1  0.36787728  0.62545973  0.31025198  1  -1.220979  -0.047662  -0.302287  -0.556075  -0.033596  2.419583  -0.018
O  O194  1  0.69696465  0.12540509  0.80994512  1  -1.212313  0.04743  -0.301476  -0.555451  0.03346  2.420966  0.018
O  O195  1  0.63212387  0.37454300  0.68975578  1  -1.220963  -0.047609  -0.302233  -0.555963  -0.033564  2.419561  -0.018
