# generated using pymatgen
data_Zn4H27C21N3O16
_symmetry_space_group_name_H-M   'P 1'
_cell_length_a   14.53871371
_cell_length_b   14.83137014
_cell_length_c   15.48612493
_cell_angle_alpha   73.95587043
_cell_angle_beta   68.27173004
_cell_angle_gamma   68.11064121
_symmetry_Int_Tables_number   1
_chemical_formula_structural   Zn4H27C21N3O16
_chemical_formula_sum   'Zn8 H54 C42 N6 O32'
_cell_volume   2841.04457441
_cell_formula_units_Z   2
loop_
 _symmetry_equiv_pos_site_id
 _symmetry_equiv_pos_as_xyz
  1  'x, y, z'
loop_
 _atom_site_type_symbol
 _atom_site_label
 _atom_site_symmetry_multiplicity
 _atom_site_fract_x
 _atom_site_fract_y
 _atom_site_fract_z
 _atom_site_occupancy
 _atom_site_pbe_bader_charge
 _atom_site_pbe_bader_spin_density
 _atom_site_pbe_cm5_charge
 _atom_site_pbe_ddec_charge
 _atom_site_pbe_ddec_spin_density
 _atom_site_pbe_ddec_sum_bond_order
 _atom_site_pbe_magmom
Zn  Zn0  1  0.01992618  0.95928546  0.05637436  1  1.316212  0  0.666055  0.963321  0  2.354063  0
Zn  Zn1  1  0.04484907  0.75904002  0.99197599  1  1.309588  0  0.669535  0.953452  0  2.406094  0
Zn  Zn2  1  0.99951641  0.96133055  0.85675585  1  1.312691  0  0.671061  0.954993  0  2.43513  0
Zn  Zn3  1  0.82201268  0.91771427  0.04620191  1  1.305462  0  0.662297  0.951601  0  2.372456  0
Zn  Zn4  1  0.38427428  0.34102969  0.46377291  1  1.318403  0  0.678077  0.975866  0  2.348314  0
Zn  Zn5  1  0.45758747  0.53259722  0.42913503  1  1.314159  0  0.678238  0.967622  0  2.383972  0
Zn  Zn6  1  0.62049346  0.31851892  0.44754463  1  1.311247  0  0.671699  0.964424  0  2.310741  0
Zn  Zn7  1  0.42432852  0.39856938  0.62588851  1  1.320296  0  0.682668  0.977986  0  2.359254  0
H  H8  1  0.33228492  0.67339171  0.06210393  1  0.108872  0  0.1074  0.130914  0  1.003838  0
H  H9  1  0.30900794  0.76453805  0.12965015  1  0.048828  0  0.100302  0.116373  0  0.972013  0
H  H10  1  0.22961688  0.67367303  0.27120377  1  0.049443  0  0.097743  0.100536  0  0.97937  0
H  H11  1  0.18258640  0.62034201  0.21314312  1  0.061882  0  0.100175  0.103925  0  0.981091  0
H  H12  1  0.41360411  0.55888641  0.16523376  1  0.094933  0  0.123441  0.08797  0  0.980597  0
H  H13  1  0.31001567  0.41085125  0.22942220  1  0.448863  0  0.314442  0.272817  0  0.958996  0
H  H14  1  0.44579835  0.30912136  0.04711923  1  0.053121  0  0.106064  0.158357  0  0.981393  0
H  H15  1  0.33557592  0.37831249  0.00789220  1  0.093981  0  0.110451  0.167303  0  0.972042  0
H  H16  1  0.31859705  0.32086628  0.12840032  1  0.04183  0  0.095752  0.138113  0  0.99992  0
H  H17  1  0.97738110  0.26787996  0.84763872  1  0.079105  0  0.112931  0.136024  0  0.962345  0
H  H18  1  0.06218593  0.25081039  0.91294186  1  0.060626  0  0.10553  0.123471  0  0.962284  0
H  H19  1  0.21632693  0.19381409  0.77981120  1  0.044387  0  0.10334  0.107979  0  0.957818  0
H  H20  1  0.13786176  0.19289429  0.71599661  1  0.050737  0  0.098857  0.100913  0  0.992949  0
H  H21  1  0.12187413  0.38066647  0.77453730  1  0.076275  0  0.116632  0.083334  0  0.940656  0
H  H22  1  0.99214896  0.35610175  0.69660437  1  0.498765  0  0.310167  0.285971  0  0.97094  0
H  H23  1  0.93673642  0.58904619  0.56096339  1  0.043699  0  0.098222  0.148878  0  0.991754  0
H  H24  1  0.89815536  0.47897826  0.61213684  1  0.090256  0  0.09666  0.153195  0  1.024067  0
H  H25  1  0.99460950  0.48628725  0.50066910  1  0.065296  0  0.101558  0.151369  0  0.981331  0
H  H26  1  0.79734089  0.99860984  0.34894213  1  0.053553  0  0.110339  0.1301  0  0.950121  0
H  H27  1  0.74873671  0.11153162  0.28336017  1  0.073178  0  0.111117  0.136635  0  0.956379  0
H  H28  1  0.60141705  0.06026690  0.28587165  1  0.056325  0  0.097572  0.096826  0  0.967423  0
H  H29  1  0.65457130  0.94075225  0.34108057  1  0.066156  0  0.098811  0.098586  0  0.979241  0
H  H30  1  0.62861885  0.00871314  0.48359063  1  0.105336  0  0.124235  0.096439  0  0.94789  0
H  H31  1  0.45039465  0.03427932  0.42048357  1  0.418465  0  0.3172  0.272795  0  0.930079  0
H  H32  1  0.29315025  0.98597183  0.65344218  1  0.073726  0  0.106825  0.16556  0  0.982057  0
H  H33  1  0.30556038  0.99816585  0.53110495  1  0.042371  0  0.093532  0.134718  0  1.003824  0
H  H34  1  0.26578560  0.10411998  0.58419579  1  0.090648  0  0.11011  0.172811  0  0.977256  0
H  H35  1  0.19204566  0.64756193  0.71601897  1  0.072473  0  0.108299  0.134982  0  0.973657  0
H  H36  1  0.10627798  0.74799707  0.66353387  1  0.07397  0  0.116523  0.139426  0  0.943035  0
H  H37  1  0.26390969  0.77010111  0.55565725  1  0.055377  0  0.098402  0.100432  0  0.976947  0
H  H38  1  0.24139531  0.84246282  0.63951388  1  0.055114  0  0.097189  0.096119  0  1.012453  0
H  H39  1  0.35314353  0.67783511  0.72183256  1  0.106168  0  0.121734  0.093965  0  0.937987  0
H  H40  1  0.41894370  0.82374352  0.56820543  1  0.451953  0  0.31208  0.265891  0  0.966258  0
H  H41  1  0.58495944  0.83079552  0.61597334  1  0.068133  0  0.104485  0.163022  0  0.981557  0
H  H42  1  0.60308705  0.81696664  0.50021868  1  0.038971  0  0.0932  0.139477  0  1.015963  0
H  H43  1  0.68778923  0.72988161  0.56545040  1  0.073272  0  0.103288  0.157674  0  0.985309  0
H  H44  1  0.74277758  0.66038319  0.04300135  1  0.083314  0  0.102582  0.116327  0  0.994561  0
H  H45  1  0.86684946  0.57013952  0.03261695  1  0.075513  0  0.110256  0.13284  0  0.954383  0
H  H46  1  0.83365021  0.54396766  0.20617838  1  0.078163  0  0.102102  0.105415  0  0.96157  0
H  H47  1  0.71438793  0.64074053  0.21835776  1  0.040404  0  0.096317  0.09761  0  0.978423  0
H  H48  1  0.76375813  0.44644747  0.15073610  1  0.134454  0  0.12695  0.102294  0  0.951918  0
H  H49  1  0.56958442  0.61381290  0.17136877  1  0.441681  0  0.315173  0.275918  0  0.935806  0
H  H50  1  0.51736288  0.58904622  0.99591555  1  0.146998  0  0.10545  0.175956  0  1.033461  0
H  H51  1  0.60585295  0.65832652  0.93415820  1  0.069159  0  0.108268  0.168138  0  0.969197  0
H  H52  1  0.51421902  0.68602072  0.04535462  1  0.002347  0  0.092096  0.132473  0  1.014554  0
H  H53  1  0.65609553  0.20069410  0.90291895  1  0.056879  0  0.099686  0.114397  0  0.977062  0
H  H54  1  0.78168047  0.21176770  0.83838554  1  0.068999  0  0.111629  0.132405  0  0.980251  0
H  H55  1  0.77082428  0.12281199  0.71570564  1  0.059505  0  0.101003  0.107245  0  0.97675  0
H  H56  1  0.63492232  0.16737793  0.76980443  1  0.039922  0  0.095864  0.096138  0  0.977001  0
H  H57  1  0.79016954  0.27931853  0.65162137  1  0.135417  0  0.123371  0.094915  0  0.957924  0
H  H58  1  0.59353432  0.39602803  0.76676950  1  0.460688  0  0.324159  0.286646  0  0.926707  0
H  H59  1  0.67931494  0.55328005  0.76101130  1  0.085661  0  0.099362  0.158438  0  0.999426  0
H  H60  1  0.72070629  0.48415405  0.86251822  1  0.119211  0  0.098055  0.166924  0  1.026378  0
H  H61  1  0.59876655  0.49080480  0.85437775  1  0.049715  0  0.097083  0.149194  0  1.000052  0
C  C62  1  0.18189606  0.77302074  0.08549973  1  1.563191  0  0.229433  0.671307  0  4.105632  0
C  C63  1  0.27583805  0.71460437  0.11892297  1  -0.057607  0  -0.164661  -0.301688  0  3.896281  0
C  C64  1  0.24987293  0.64016076  0.20907746  1  -0.013164  0  -0.151971  -0.154305  0  3.847327  0
C  C65  1  0.34084407  0.54339868  0.21136814  1  0.32868  0  0.017435  0.026453  0  3.845994  0
C  C66  1  0.37082295  0.45203859  0.08660552  1  1.423223  0  0.238687  0.581506  0  4.109868  0
C  C67  1  0.36625018  0.35923915  0.06767277  1  -0.101496  0  -0.232128  -0.511273  0  3.921381  0
C  C68  1  0.35463950  0.50695151  0.30946816  1  1.591556  0  0.237457  0.607839  0  4.115824  0
C  C69  1  0.04827295  0.11897179  0.89460342  1  1.574668  0  0.231146  0.669289  0  4.101212  0
C  C70  1  0.05345064  0.22334924  0.85841730  1  -0.047387  0  -0.15652  -0.289762  0  3.899598  0
C  C71  1  0.14085498  0.23100232  0.76603070  1  0.000194  0  -0.153047  -0.164876  0  3.903523  0
C  C72  1  0.13519131  0.33819394  0.72048296  1  0.364005  0  0.019269  0.032111  0  3.884419  0
C  C73  1  0.04980985  0.46994139  0.61563164  1  1.40643  0  0.227377  0.576691  0  4.102108  0
C  C74  1  0.96329200  0.50845101  0.57068008  1  -0.117994  0  -0.238622  -0.509501  0  3.913874  0
C  C75  1  0.24196412  0.34050710  0.65132740  1  1.58681  0  0.232663  0.611646  0  4.126489  0
C  C76  1  0.81927435  0.99228448  0.20675437  1  1.581056  0  0.229445  0.664858  0  4.112584  0
C  C77  1  0.75340615  0.03327344  0.29753273  1  -0.033534  0  -0.158099  -0.291654  0  3.912934  0
C  C78  1  0.64608525  0.01871857  0.33595066  1  -0.03841  0  -0.156441  -0.158571  0  3.942711  0
C  C79  1  0.58357170  0.04783377  0.43368219  1  0.341049  0  0.012635  0.012529  0  3.887155  0
C  C80  1  0.42704155  0.02868648  0.56024459  1  1.370962  0  0.228149  0.569452  0  4.119506  0
C  C81  1  0.31684464  0.02770007  0.58291253  1  -0.10846  0  -0.23817  -0.522326  0  3.907388  0
C  C82  1  0.55956884  0.15839663  0.43156010  1  1.580964  0  0.232316  0.611793  0  4.100645  0
C  C83  1  0.11790610  0.77533590  0.78514044  1  1.542281  0  0.230803  0.662938  0  4.107189  0
C  C84  1  0.16749913  0.72797357  0.69708844  1  0.009354  0  -0.156084  -0.289282  0  3.876179  0
C  C85  1  0.25761814  0.76698260  0.62927518  1  -0.050408  0  -0.155975  -0.169043  0  3.898554  0
C  C86  1  0.36211592  0.70224896  0.64608889  1  0.377041  0  0.015861  0.024506  0  3.886572  0
C  C87  1  0.53733629  0.71147464  0.61094813  1  1.434718  0  0.23436  0.580501  0  4.102834  0
C  C88  1  0.60785543  0.77618518  0.57019292  1  -0.10416  0  -0.238133  -0.511334  0  3.899811  0
C  C89  1  0.39576282  0.61003873  0.60181289  1  1.586048  0  0.23465  0.608934  0  4.120605  0
C  C90  1  0.85248694  0.70775437  0.06252118  1  1.557261  0  0.228608  0.670152  0  4.108686  0
C  C91  1  0.80757306  0.62726383  0.07313510  1  -0.060156  0  -0.162051  -0.29199  0  3.917654  0
C  C92  1  0.76835384  0.58230237  0.17658126  1  -0.042204  0  -0.152434  -0.162162  0  3.897759  0
C  C93  1  0.71092941  0.50943529  0.18622818  1  0.319029  0  0.015065  0.022721  0  3.855387  0
C  C94  1  0.64547807  0.55217861  0.04961408  1  1.393867  0  0.232541  0.571694  0  4.122885  0
C  C95  1  0.56533535  0.62647165  0.00441428  1  -0.112084  0  -0.242761  -0.5334  0  3.909977  0
C  C96  1  0.66056144  0.47373601  0.28953885  1  1.583287  0  0.233983  0.609289  0  4.112997  0
C  C97  1  0.78191080  0.06649154  0.88842232  1  1.555969  0  0.225263  0.664148  0  4.104132  0
C  C98  1  0.72819746  0.17005425  0.84949096  1  -0.011045  0  -0.159921  -0.28593  0  3.915142  0
C  C99  1  0.70962140  0.17949277  0.75580523  1  -0.011889  0  -0.156179  -0.160899  0  3.872514  0
C  C100  1  0.71025271  0.28162028  0.69421096  1  0.32115  0  0.018421  0.021156  0  3.845957  0
C  C101  1  0.73477728  0.39833329  0.76485596  1  1.402699  0  0.242447  0.594531  0  4.089585  0
C  C102  1  0.68002072  0.48655346  0.81442689  1  -0.116387  0  -0.245424  -0.530803  0  3.902332  0
C  C103  1  0.64272023  0.30649168  0.63035265  1  1.574381  0  0.240542  0.619449  0  4.099918  0
N  N104  1  0.33137279  0.46556330  0.17830911  1  -1.203816  0  -0.427582  -0.398449  0  3.533462  0
N  N105  1  0.05420243  0.38237086  0.67477497  1  -1.245178  0  -0.425201  -0.402212  0  3.509421  0
N  N106  1  0.48796856  0.02121023  0.46855006  1  -1.169465  0  -0.43562  -0.424269  0  3.536238  0
N  N107  1  0.43837861  0.75514782  0.60520970  1  -1.240207  0  -0.428899  -0.403695  0  3.545048  0
N  N108  1  0.62799420  0.55687586  0.14203176  1  -1.202744  0  -0.433116  -0.419209  0  3.514553  0
N  N109  1  0.67121905  0.36121888  0.74838645  1  -1.219313  0  -0.421546  -0.390451  0  3.520273  0
O  O110  1  0.97181341  0.90002757  0.98892577  1  -1.233118  0  -0.574591  -1.031997  0  2.55412  0
O  O111  1  0.14573668  0.72198308  0.05967735  1  -1.182786  0  -0.321715  -0.555328  0  2.331016  0
O  O112  1  0.14683420  0.86575680  0.08542244  1  -1.168369  0  -0.321157  -0.559324  0  2.284025  0
O  O113  1  0.40890265  0.51113212  0.02218067  1  -1.169982  0  -0.310349  -0.518543  0  2.092344  0
O  O114  1  0.37666550  0.56515845  0.34019482  1  -1.179406  0  -0.318173  -0.556099  0  2.332079  0
O  O115  1  0.34368337  0.42302319  0.35113724  1  -1.178103  0  -0.30754  -0.536185  0  2.332765  0
O  O116  1  0.04921676  0.07392629  0.83464219  1  -1.188383  0  -0.323364  -0.564341  0  2.321928  0
O  O117  1  0.04229954  0.08488987  0.98088904  1  -1.177096  0  -0.319609  -0.555261  0  2.28916  0
O  O118  1  0.11572535  0.51239916  0.59755555  1  -1.147012  0  -0.332442  -0.536777  0  2.030853  0
O  O119  1  0.30061241  0.35640298  0.68582265  1  -1.174904  0  -0.322375  -0.56075  0  2.354387  0
O  O120  1  0.26675842  0.31805552  0.57013487  1  -1.167299  0  -0.317128  -0.546615  0  2.345641  0
O  O121  1  0.77693433  0.95635784  0.17120212  1  -1.182144  0  -0.317292  -0.553196  0  2.328628  0
O  O122  1  0.91182610  0.99755099  0.17394891  1  -1.180468  0  -0.32453  -0.562863  0  2.296167  0
O  O123  1  0.46070522  0.03610169  0.61956838  1  -1.138895  0  -0.319694  -0.508183  0  2.012615  0
O  O124  1  0.62995269  0.18448980  0.43905744  1  -1.168515  0  -0.310991  -0.541427  0  2.314661  0
O  O125  1  0.47260616  0.21404032  0.42017243  1  -1.194368  0  -0.322444  -0.561093  0  2.340634  0
O  O126  1  0.09178865  0.86943529  0.77035595  1  -1.189915  0  -0.324262  -0.56131  0  2.339001  0
O  O127  1  0.10584742  0.72031642  0.86513444  1  -1.169239  0  -0.313193  -0.545431  0  2.290287  0
O  O128  1  0.56499239  0.62485413  0.64929307  1  -1.157645  0  -0.309528  -0.509733  0  2.048021  0
O  O129  1  0.38372338  0.53159546  0.65684733  1  -1.168574  0  -0.304971  -0.536218  0  2.34046  0
O  O130  1  0.42546017  0.62382522  0.51182406  1  -1.180938  0  -0.321064  -0.55127  0  2.353673  0
O  O131  1  0.79076739  0.79587341  0.05941577  1  -1.175536  0  -0.324177  -0.56274  0  2.289478  0
O  O132  1  0.94790906  0.68154363  0.05804467  1  -1.172135  0  -0.325959  -0.559955  0  2.302634  0
O  O133  1  0.72205078  0.49107047  0.00709803  1  -1.150604  0  -0.311918  -0.507764  0  2.060115  0
O  O134  1  0.68856493  0.38200790  0.32110125  1  -1.170495  0  -0.311514  -0.537604  0  2.28236  0
O  O135  1  0.59181014  0.54101951  0.33546881  1  -1.190814  0  -0.323138  -0.559447  0  2.332725  0
O  O136  1  0.74497565  0.03589783  0.97590434  1  -1.172678  0  -0.322753  -0.554873  0  2.275521  0
O  O137  1  0.86366600  0.01787874  0.83207275  1  -1.202373  0  -0.334364  -0.5787  0  2.30189  0
O  O138  1  0.83128543  0.36092200  0.73997816  1  -1.198682  0  -0.324595  -0.560924  0  2.097086  0
O  O139  1  0.68772167  0.30087203  0.54342532  1  -1.168029  0  -0.308918  -0.53492  0  2.29118  0
O  O140  1  0.54526238  0.32911855  0.67247963  1  -1.174075  0  -0.315173  -0.55515  0  2.335161  0
O  O141  1  0.47270788  0.39605406  0.48975109  1  -1.232357  0  -0.572694  -1.029827  0  2.522861  0
