# generated using pymatgen
data_Zn2H13C20SN5O7
_symmetry_space_group_name_H-M   'P 1'
_cell_length_a   7.79245887
_cell_length_b   10.52865567
_cell_length_c   14.48680627
_cell_angle_alpha   69.22310470
_cell_angle_beta   80.03944730
_cell_angle_gamma   89.03276069
_symmetry_Int_Tables_number   1
_chemical_formula_structural   Zn2H13C20SN5O7
_chemical_formula_sum   'Zn4 H26 C40 S2 N10 O14'
_cell_volume   1093.23655631
_cell_formula_units_Z   2
loop_
 _symmetry_equiv_pos_site_id
 _symmetry_equiv_pos_as_xyz
  1  'x, y, z'
loop_
 _atom_site_type_symbol
 _atom_site_label
 _atom_site_symmetry_multiplicity
 _atom_site_fract_x
 _atom_site_fract_y
 _atom_site_fract_z
 _atom_site_occupancy
 _atom_site_hle17_bader_spin_density
 _atom_site_hle17_ddec_charge
 _atom_site_hle17_ddec_spin_density
 _atom_site_hle17_ddec_sum_bond_order
 _atom_site_hle17_magmom
 _atom_site_hse06_10hf_bader_spin_density
 _atom_site_hse06_10hf_ddec_charge
 _atom_site_hse06_10hf_ddec_spin_density
 _atom_site_hse06_10hf_ddec_sum_bond_order
 _atom_site_hse06_10hf_magmom
 _atom_site_hse06_bader_spin_density
 _atom_site_hse06_ddec_charge
 _atom_site_hse06_ddec_spin_density
 _atom_site_hse06_ddec_sum_bond_order
 _atom_site_hse06_magmom
 _atom_site_pbe_bader_spin_density
 _atom_site_pbe_cm5_charge
 _atom_site_pbe_ddec_charge
 _atom_site_pbe_ddec_spin_density
 _atom_site_pbe_ddec_sum_bond_order
 _atom_site_pbe_magmom
Zn  Zn0  1  0.17079889  0.03819317  0.12744527  1  0  1.065698  0  1.857966  0  0  0.886466  0  2.338994  0  0  0.9326  0  2.278502  0  0  0.698736  0.854211  0  2.38057  0
Zn  Zn1  1  0.82920057  0.96180768  0.87255464  1  0  1.065715  0  1.857921  0  0  0.886483  0  2.338943  0  0  0.932618  0  2.278452  0  0  0.698746  0.854229  0  2.380521  0
Zn  Zn2  1  0.48533418  0.87591358  0.10307615  1  0  1.113396  0  1.784471  0  0  0.948047  0  2.233815  0  0  0.99482  0  2.175074  0  0  0.678666  0.915218  0  2.27424  0
Zn  Zn3  1  0.51466646  0.12408524  0.89692417  1  0  1.113359  0  1.78454  0  0  0.947998  0  2.233897  0  0  0.994769  0  2.175157  0  0  0.678669  0.915168  0  2.274323  0
H  H4  1  0.77002061  0.72812262  0.32668174  1  0  0.120541  0  0.935177  0  0  0.129214  0  0.995701  0  0  0.132961  0  0.993007  0  0  0.113334  0.126482  0  0.997734  0
H  H5  1  0.22997873  0.27187619  0.67332008  1  0  0.12054  0  0.935173  0  0  0.129226  0  0.995683  0  0  0.132974  0  0.992989  0  0  0.113327  0.126494  0  0.997719  0
H  H6  1  0.61044506  0.51389586  0.44242404  1  0  0.106062  0  0.966045  0  0  0.113956  0  1.030897  0  0  0.117588  0  1.028259  0  0  0.106593  0.11132  0  1.032824  0
H  H7  1  0.38955305  0.48610397  0.55757764  1  0  0.106077  0  0.96601  0  0  0.113939  0  1.030898  0  0  0.117571  0  1.028261  0  0  0.106576  0.111303  0  1.032827  0
H  H8  1  0.24635754  0.51698779  0.31506493  1  0  0.107903  0  0.941998  0  0  0.117915  0  1.000074  0  0  0.121576  0  0.997887  0  0  0.107775  0.115249  0  1.00172  0
H  H9  1  0.75364047  0.48301104  0.68493287  1  0  0.107878  0  0.942059  0  0  0.117888  0  1.000138  0  0  0.121549  0  0.997953  0  0  0.10778  0.115223  0  1.001786  0
H  H10  1  0.08574498  0.29861383  0.43438241  1  0  0.104582  0  0.946459  0  0  0.115815  0  1.004412  0  0  0.118878  0  1.003009  0  0  0.109489  0.113626  0  1.005447  0
H  H11  1  0.91425302  0.70138501  0.56561470  1  0  0.10458  0  0.946388  0  0  0.115811  0  1.004345  0  0  0.118881  0  1.002941  0  0  0.109471  0.113621  0  1.00538  0
H  H12  1  0.41271918  0.28466570  0.44392723  1  0  0.104139  0  0.947232  0  0  0.11567  0  1.004782  0  0  0.118544  0  1.003733  0  0  0.10836  0.113658  0  1.005452  0
H  H13  1  0.58727761  0.71533414  0.55607320  1  0  0.104164  0  0.94726  0  0  0.115668  0  1.004834  0  0  0.118538  0  1.003787  0  0  0.108352  0.113656  0  1.005504  0
H  H14  1  0.30856486  0.20595950  0.31676479  1  0  0.108054  0  0.940317  0  0  0.11877  0  0.997852  0  0  0.122413  0  0.995273  0  0  0.108848  0.116096  0  0.999821  0
H  H15  1  0.69143342  0.79404339  0.68323402  1  0  0.108021  0  0.940341  0  0  0.11873  0  0.997888  0  0  0.122372  0  0.995307  0  0  0.108836  0.116056  0  0.999858  0
H  H16  1  0.87666992  0.05892380  0.42416153  1  0  0.114625  0  0.934294  0  0  0.126579  0  0.988642  0  0  0.130199  0  0.986341  0  0  0.112628  0.123931  0  0.990351  0
H  H17  1  0.12332816  0.94107604  0.57583808  1  0  0.11468  0  0.934244  0  0  0.126615  0  0.988611  0  0  0.130239  0  0.986311  0  0  0.112635  0.123966  0  0.990321  0
H  H18  1  0.76996133  0.97958842  0.29962975  1  0  0.117825  0  0.94119  0  0  0.125198  0  1.004827  0  0  0.129024  0  1.002052  0  0  0.111409  0.122355  0  1.00703  0
H  H19  1  0.23003694  0.02041447  0.70036837  1  0  0.117817  0  0.941214  0  0  0.12518  0  1.004862  0  0  0.129006  0  1.002086  0  0  0.111388  0.122337  0  1.007065  0
H  H20  1  0.49215899  0.39383104  0.10240292  1  0  0.122753  0  0.940257  0  0  0.131456  0  0.999595  0  0  0.134629  0  0.999193  0  0  0.114897  0.129234  0  0.999912  0
H  H21  1  0.50783898  0.60616676  0.89759860  1  0  0.122693  0  0.940281  0  0  0.131387  0  0.999651  0  0  0.134558  0  0.999251  0  0  0.114857  0.129165  0  0.999969  0
H  H22  1  0.36657617  0.61473636  0.10099443  1  0  0.083027  0  0.963597  0  0  0.086308  0  1.034933  0  0  0.089409  0  1.031478  0  0  0.11632  0.084013  0  1.037483  0
H  H23  1  0.63342341  0.38526653  0.89900495  1  0  0.083065  0  0.963661  0  0  0.086327  0  1.034999  0  0  0.089429  0  1.031543  0  0  0.116324  0.084033  0  1.03755  0
H  H24  1  0.98508265  0.54934631  0.12701524  1  0  0.118073  0  0.931296  0  0  0.128601  0  0.989443  0  0  0.131444  0  0.989332  0  0  0.112941  0.126454  0  0.989923  0
H  H25  1  0.01492177  0.45065047  0.87298593  1  0  0.118065  0  0.931366  0  0  0.128607  0  0.989496  0  0  0.13145  0  0.989384  0  0  0.11294  0.12646  0  0.989978  0
H  H26  1  0.83879872  0.76369618  0.12582221  1  0  0.087328  0  0.940263  0  0  0.094115  0  1.007106  0  0  0.096352  0  1.005324  0  0  0.119742  0.09255  0  1.008234  0
H  H27  1  0.16120551  0.23629754  0.87418045  1  0  0.087318  0  0.940166  0  0  0.094099  0  1.007032  0  0  0.096337  0  1.00525  0  0  0.119705  0.092533  0  1.008161  0
H  H28  1  0.24659853  0.94582713  0.99012053  1  0  0.38113  0  0.948713  0  0  0.337521  0  1.034963  0  0  0.348898  0  1.018724  0  0  0.274434  0.329552  0  1.046256  0
H  H29  1  0.75340100  0.05417474  0.00987980  1  0  0.381124  0  0.948713  0  0  0.337524  0  1.034953  0  0  0.3489  0  1.018716  0  0  0.274438  0.329555  0  1.046246  0
C  C30  1  0.11539648  0.76090912  0.23976433  1  0  0.661809  0  3.891355  0  0  0.609221  0  4.183168  0  0  0.644667  0  4.17499  0  0  0.216033  0.585147  0  4.188001  0
C  C31  1  0.88460278  0.23908869  0.76023569  1  0  0.661794  0  3.891343  0  0  0.609198  0  4.183147  0  0  0.644643  0  4.174969  0  0  0.216021  0.585125  0  4.187982  0
C  C32  1  0.01764087  0.63415395  0.31319594  1  0  -0.054952  0  3.734449  0  0  -0.034331  0  3.969568  0  0  -0.041463  0  3.991919  0  0  -0.011458  -0.029764  0  3.954571  0
C  C33  1  0.98235722  0.36584589  0.68680436  1  0  -0.054973  0  3.734444  0  0  -0.034311  0  3.969504  0  0  -0.04144  0  3.991853  0  0  -0.011464  -0.029742  0  3.954508  0
C  C34  1  0.83902855  0.63432281  0.34975167  1  0  -0.053445  0  3.69111  0  0  -0.077414  0  3.939877  0  0  -0.077489  0  3.959058  0  0  -0.073714  -0.077142  0  3.926651  0
C  C35  1  0.16097085  0.36567702  0.65024919  1  0  -0.053472  0  3.691058  0  0  -0.077475  0  3.93983  0  0  -0.077549  0  3.959007  0  0  -0.073725  -0.077206  0  3.926607  0
C  C36  1  0.74943333  0.51397124  0.41476251  1  0  -0.069466  0  3.734885  0  0  -0.092452  0  3.984164  0  0  -0.093908  0  4.004588  0  0  -0.081236  -0.091296  0  3.970087  0
C  C37  1  0.25056737  0.48602859  0.58523823  1  0  -0.069476  0  3.734847  0  0  -0.092433  0  3.984125  0  0  -0.093891  0  4.00455  0  0  -0.081226  -0.091277  0  3.970048  0
C  C38  1  0.10701557  0.51371100  0.34356011  1  0  -0.060547  0  3.710987  0  0  -0.083418  0  3.958868  0  0  -0.084008  0  3.978574  0  0  -0.077824  -0.08285  0  3.945528  0
C  C39  1  0.89298259  0.48628985  0.65644062  1  0  -0.060478  0  3.711061  0  0  -0.083364  0  3.958924  0  0  -0.083953  0  3.978632  0  0  -0.077807  -0.082797  0  3.945586  0
C  C40  1  0.01872837  0.39314694  0.40912570  1  0  -0.07038  0  3.751577  0  0  -0.092378  0  3.999254  0  0  -0.094023  0  4.020954  0  0  -0.080235  -0.091216  0  3.984394  0
C  C41  1  0.98127217  0.60685088  0.59087142  1  0  -0.070333  0  3.751546  0  0  -0.092334  0  3.999223  0  0  -0.09399  0  4.020932  0  0  -0.080213  -0.091172  0  3.984364  0
C  C42  1  0.84020415  0.39461479  0.44379908  1  0  -0.099942  0  3.751688  0  0  -0.07706  0  3.999605  0  0  -0.082509  0  4.024063  0  0  -0.018105  -0.07327  0  3.982908  0
C  C43  1  0.15979400  0.60538607  0.55620096  1  0  -0.099996  0  3.751711  0  0  -0.077092  0  3.999587  0  0  -0.082539  0  4.024047  0  0  -0.018115  -0.0733  0  3.98289  0
C  C44  1  0.65034099  0.17719999  0.43922260  1  0  -0.100801  0  3.750897  0  0  -0.07913  0  4.00056  0  0  -0.084737  0  4.025232  0  0  -0.018131  -0.075271  0  3.983795  0
C  C45  1  0.34965319  0.82279985  0.56077738  1  0  -0.100742  0  3.751025  0  0  -0.079032  0  4.000631  0  0  -0.084648  0  4.025309  0  0  -0.018039  -0.075173  0  3.983867  0
C  C46  1  0.49034396  0.21964310  0.41056095  1  0  -0.077406  0  3.761136  0  0  -0.098298  0  4.008598  0  0  -0.100158  0  4.030741  0  0  -0.083011  -0.096914  0  3.993361  0
C  C47  1  0.50965407  0.78035572  0.58943892  1  0  -0.077568  0  3.761274  0  0  -0.098455  0  4.008758  0  0  -0.100308  0  4.030899  0  0  -0.083069  -0.09707  0  3.99352  0
C  C48  1  0.43275643  0.17586256  0.34079736  1  0  -0.060053  0  3.718542  0  0  -0.084814  0  3.967175  0  0  -0.08546  0  3.987543  0  0  -0.078171  -0.08427  0  3.953389  0
C  C49  1  0.56724172  0.82413830  0.65920129  1  0  -0.059939  0  3.71847  0  0  -0.084714  0  3.967056  0  0  -0.085357  0  3.987419  0  0  -0.07818  -0.084166  0  3.953271  0
C  C50  1  0.75290702  0.09141634  0.40018222  1  0  -0.06389  0  3.718719  0  0  -0.085669  0  3.966006  0  0  -0.086918  0  3.98617  0  0  -0.076697  -0.08465  0  3.9521  0
C  C51  1  0.24709244  0.90858452  0.59981700  1  0  -0.063939  0  3.71886  0  0  -0.085718  0  3.96615  0  0  -0.086971  0  3.986318  0  0  -0.076725  -0.0847  0  3.952244  0
C  C52  1  0.69327089  0.04713735  0.33087069  1  0  -0.041608  0  3.668451  0  0  -0.068987  0  3.920632  0  0  -0.068996  0  3.940018  0  0  -0.071716  -0.068829  0  3.907381  0
C  C53  1  0.30672744  0.95286656  0.66912716  1  0  -0.041524  0  3.668507  0  0  -0.068922  0  3.920663  0  0  -0.068931  0  3.940047  0  0  -0.071656  -0.068763  0  3.907415  0
C  C54  1  0.53397340  0.08999532  0.30067017  1  0  -0.052779  0  3.721806  0  0  -0.031038  0  3.959142  0  0  -0.038332  0  3.981663  0  0  -0.009749  -0.026285  0  3.943928  0
C  C55  1  0.46602624  0.91000859  0.69932756  1  0  -0.052931  0  3.721877  0  0  -0.031103  0  3.959099  0  0  -0.038397  0  3.981617  0  0  -0.009758  -0.026357  0  3.943898  0
C  C56  1  0.46781981  0.04347119  0.22644071  1  0  0.67912  0  3.86862  0  0  0.619075  0  4.169465  0  0  0.655341  0  4.160575  0  0  0.224353  0.594475  0  4.174665  0
C  C57  1  0.53217970  0.95653068  0.77355755  1  0  0.679152  0  3.868576  0  0  0.619107  0  4.169377  0  0  0.655374  0  4.160486  0  0  0.224335  0.594509  0  4.174576  0
C  C58  1  0.82934102  0.33636032  0.09800237  1  0  0.229665  0  3.817652  0  0  0.213798  0  4.094709  0  0  0.218682  0  4.112236  0  0  0.209206  0.210472  0  4.082755  0
C  C59  1  0.17065968  0.66363951  0.90199837  1  0  0.229573  0  3.817711  0  0  0.213745  0  4.094721  0  0  0.21863  0  4.112248  0  0  0.209173  0.210418  0  4.082766  0
C  C60  1  0.75089716  0.45663785  0.11085812  1  0  0.080863  0  3.765145  0  0  0.094339  0  3.993653  0  0  0.09949  0  4.013781  0  0  0.023296  0.090887  0  3.980148  0
C  C61  1  0.24910876  0.54336197  0.88914351  1  0  0.080852  0  3.765272  0  0  0.094322  0  3.993791  0  0  0.099471  0  4.013922  0  0  0.02331  0.090872  0  3.980285  0
C  C62  1  0.57288010  0.47379221  0.10734236  1  0  -0.148787  0  3.69606  0  0  -0.166889  0  3.939423  0  0  -0.175362  0  3.961141  0  0  -0.076569  -0.161452  0  3.924834  0
C  C63  1  0.42712437  0.52620559  0.89265716  1  0  -0.148718  0  3.695977  0  0  -0.166833  0  3.939319  0  0  -0.175307  0  3.961042  0  0  -0.076563  -0.161394  0  3.924731  0
C  C64  1  0.50223979  0.59522049  0.10737551  1  0  0.141595  0  3.702528  0  0  0.11039  0  3.954515  0  0  0.118414  0  3.971066  0  0  0.050145  0.10514  0  3.943405  0
C  C65  1  0.49776202  0.40477630  0.89262521  1  0  0.141588  0  3.702478  0  0  0.110432  0  3.954406  0  0  0.118456  0  3.970954  0  0  0.050217  0.10518  0  3.943298  0
C  C66  1  0.84762091  0.56001758  0.12144724  1  0  -0.13451  0  3.678384  0  0  -0.158251  0  3.929975  0  0  -0.166091  0  3.951976  0  0  -0.077163  -0.153327  0  3.915622  0
C  C67  1  0.15238241  0.43998224  0.87855463  1  0  -0.134565  0  3.678344  0  0  -0.158328  0  3.929974  0  0  -0.166165  0  3.951973  0  0  -0.077201  -0.153406  0  3.915625  0
C  C68  1  0.76718959  0.67911035  0.12058920  1  0  0.133034  0  3.700272  0  0  0.099963  0  3.957997  0  0  0.107108  0  3.977415  0  0  0.049633  0.095173  0  3.944937  0
C  C69  1  0.23281099  0.32088745  0.87941207  1  0  0.133124  0  3.699999  0  0  0.100043  0  3.957753  0  0  0.107187  0  3.977171  0  0  0.049723  0.095254  0  3.944695  0
S  S70  1  0.72500629  0.23965277  0.52529658  1  0  1.053568  0  5.246303  0  0  0.981377  0  5.741417  0  0  1.020306  0  5.729858  0  0  0.472305  0.954028  0  5.749597  0
S  S71  1  0.27500965  0.76034095  0.47470219  1  0  1.053564  0  5.24656  0  0  0.981334  0  5.741708  0  0  1.020272  0  5.730139  0  0  0.472223  0.953985  0  5.749885  0
N  N72  1  0.99486565  0.17726170  0.09650409  1  0  -0.152656  0  3.312616  0  0  -0.089693  0  3.634628  0  0  -0.101809  0  3.646638  0  0  -0.12903  -0.08143  0  3.626548  0
N  N73  1  0.00513636  0.82273812  0.90349722  1  0  -0.152722  0  3.3125  0  0  -0.089764  0  3.634521  0  0  -0.10188  0  3.646532  0  0  -0.129082  -0.081501  0  3.626442  0
N  N74  1  0.86171060  0.16480843  0.05250724  1  0  -0.085445  0  3.057626  0  0  -0.058242  0  3.338099  0  0  -0.059861  0  3.35165  0  0  -0.085863  -0.057158  0  3.328981  0
N  N75  1  0.13829264  0.83519039  0.94749351  1  0  -0.085517  0  3.057559  0  0  -0.058323  0  3.338052  0  0  -0.059941  0  3.351602  0  0  -0.085872  -0.057238  0  3.328934  0
N  N76  1  0.75561106  0.26376661  0.05278375  1  0  -0.281044  0  2.953273  0  0  -0.263873  0  3.236104  0  0  -0.272522  0  3.250192  0  0  -0.206092  -0.257876  0  3.226463  0
N  N77  1  0.24439087  0.73623220  0.94721576  1  0  -0.280896  0  2.953209  0  0  -0.26373  0  3.236017  0  0  -0.272378  0  3.250104  0  0  -0.206039  -0.257733  0  3.226375  0
N  N78  1  0.97950114  0.28451365  0.12531861  1  0  -0.260728  0  2.891734  0  0  -0.253322  0  3.158687  0  0  -0.257731  0  3.172262  0  0  -0.21386  -0.250023  0  3.149475  0
N  N79  1  0.02049826  0.71548618  0.87468226  1  0  -0.260663  0  2.891668  0  0  -0.253268  0  3.15861  0  0  -0.257678  0  3.172185  0  0  -0.213833  -0.24997  0  3.1494  0
N  N80  1  0.59853898  0.69793049  0.11131060  1  0  -0.333986  0  3.290523  0  0  -0.249898  0  3.564418  0  0  -0.269745  0  3.578146  0  0  -0.331739  -0.236653  0  3.555171  0
N  N81  1  0.40146291  0.30206730  0.88869262  1  0  -0.334015  0  3.290504  0  0  -0.249927  0  3.564377  0  0  -0.269774  0  3.578104  0  0  -0.331828  -0.236682  0  3.555131  0
O  O82  1  0.31955945  0.99739217  0.01665684  1  0  -0.975349  0  1.987857  0  0  -0.864098  0  2.302918  0  0  -0.897422  0  2.260317  0  0  -0.567106  -0.840331  0  2.331555  0
O  O83  1  0.68044007  0.00260970  0.98334280  1  0  -0.975347  0  1.987892  0  0  -0.864121  0  2.302959  0  0  -0.897446  0  2.260355  0  0  -0.567113  -0.840355  0  2.331599  0
O  O84  1  0.02990821  0.86964843  0.21375896  1  0  -0.629947  0  2.04479  0  0  -0.560457  0  2.317149  0  0  -0.588497  0  2.300579  0  0  -0.317202  -0.540813  0  2.327814  0
O  O85  1  0.97008989  0.13035140  0.78624202  1  0  -0.629938  0  2.044837  0  0  -0.56044  0  2.31719  0  0  -0.588482  0  2.30062  0  0  -0.317187  -0.540789  0  2.327838  0
O  O86  1  0.27420498  0.75123901  0.20692987  1  0  -0.643762  0  2.104967  0  0  -0.581136  0  2.370656  0  0  -0.608708  0  2.357769  0  0  -0.307825  -0.561781  0  2.378738  0
O  O87  1  0.72579325  0.24876286  0.79306990  1  0  -0.643803  0  2.104986  0  0  -0.581158  0  2.370656  0  0  -0.60873  0  2.357769  0  0  -0.307845  -0.561801  0  2.378732  0
O  O88  1  0.55271258  0.95539287  0.19869431  1  0  -0.613359  0  2.075726  0  0  -0.542318  0  2.344175  0  0  -0.570278  0  2.329271  0  0  -0.305106  -0.523082  0  2.354023  0
O  O89  1  0.44728712  0.04461206  0.80130246  1  0  -0.613313  0  2.075611  0  0  -0.542297  0  2.344059  0  0  -0.570258  0  2.329156  0  0  -0.305089  -0.523061  0  2.353904  0
O  O90  1  0.32973474  0.09779767  0.19665227  1  0  -0.636125  0  2.076881  0  0  -0.56289  0  2.356305  0  0  -0.590263  0  2.336956  0  0  -0.319018  -0.543749  0  2.36887  0
O  O91  1  0.67026354  0.90220522  0.80334654  1  0  -0.636098  0  2.076832  0  0  -0.562863  0  2.356241  0  0  -0.590236  0  2.336893  0  0  -0.31898  -0.543722  0  2.368806  0
O  O92  1  0.84941150  0.14694102  0.57406319  1  0  -0.567611  0  1.90975  0  0  -0.525568  0  2.143326  0  0  -0.54517  0  2.134368  0  0  -0.314215  -0.511671  0  2.149052  0
O  O93  1  0.15058188  0.85306696  0.42593410  1  0  -0.567703  0  1.909068  0  0  -0.525638  0  2.142633  0  0  -0.545246  0  2.13368  0  0  -0.314226  -0.511737  0  2.148355  0
O  O94  1  0.57370806  0.27431220  0.58401374  1  0  -0.56622  0  1.939872  0  0  -0.522167  0  2.182276  0  0  -0.541877  0  2.173476  0  0  -0.308309  -0.508168  0  2.187815  0
O  O95  1  0.42627962  0.72568764  0.41598824  1  0  -0.566062  0  1.940658  0  0  -0.522023  0  2.183107  0  0  -0.541732  0  2.174303  0  0  -0.308214  -0.508027  0  2.188645  0
