# generated using pymatgen
data_RbHCN4
_symmetry_space_group_name_H-M   'P 1'
_cell_length_a   8.24663748
_cell_length_b   8.24666639
_cell_length_c   11.26301656
_cell_angle_alpha   89.99966497
_cell_angle_beta   90.00014111
_cell_angle_gamma   120.00033457
_symmetry_Int_Tables_number   1
_chemical_formula_structural   RbHCN4
_chemical_formula_sum   'Rb6 H6 C6 N24'
_cell_volume   663.34463262
_cell_formula_units_Z   6
loop_
 _symmetry_equiv_pos_site_id
 _symmetry_equiv_pos_as_xyz
  1  'x, y, z'
loop_
 _atom_site_type_symbol
 _atom_site_label
 _atom_site_symmetry_multiplicity
 _atom_site_fract_x
 _atom_site_fract_y
 _atom_site_fract_z
 _atom_site_occupancy
 _atom_site_hle17_bader_spin_density
 _atom_site_hle17_ddec_charge
 _atom_site_hle17_ddec_spin_density
 _atom_site_hle17_ddec_sum_bond_order
 _atom_site_hle17_magmom
 _atom_site_hse06_10hf_bader_spin_density
 _atom_site_hse06_10hf_ddec_charge
 _atom_site_hse06_10hf_ddec_spin_density
 _atom_site_hse06_10hf_ddec_sum_bond_order
 _atom_site_hse06_10hf_magmom
 _atom_site_hse06_bader_spin_density
 _atom_site_hse06_ddec_charge
 _atom_site_hse06_ddec_spin_density
 _atom_site_hse06_ddec_sum_bond_order
 _atom_site_hse06_magmom
 _atom_site_pbe_bader_spin_density
 _atom_site_pbe_cm5_charge
 _atom_site_pbe_ddec_charge
 _atom_site_pbe_ddec_spin_density
 _atom_site_pbe_ddec_sum_bond_order
 _atom_site_pbe_magmom
Rb  Rb0  1  0.66666669  0.33333309  0.03248496  1  0  0.842772  0  0.542762  0  0  0.743084  0  0.774386  0  0  0.761072  0  0.751253  0  0  0.840939  0.730083  0  0.790541  0
Rb  Rb1  1  0.33333213  0.66666546  0.53248499  1  0  0.842789  0  0.542779  0  0  0.743117  0  0.774394  0  0  0.761103  0  0.75126  0  0  0.840984  0.730135  0  0.79055  0
Rb  Rb2  1  0.33333176  0.66666625  0.96751586  1  0  0.842778  0  0.54278  0  0  0.743102  0  0.774398  0  0  0.761089  0  0.751265  0  0  0.840935  0.7301  0  0.790553  0
Rb  Rb3  1  0.66666702  0.33333319  0.46751496  1  0  0.842796  0  0.542788  0  0  0.743127  0  0.774402  0  0  0.761114  0  0.751267  0  0  0.840985  0.730136  0  0.790574  0
Rb  Rb4  1  0.00000000  0.00000000  0.00000000  1  0  0.895585  0  0.530602  0  0  0.811576  0  0.759308  0  0  0.825192  0  0.741516  0  0  0.921644  0.800921  0  0.772697  0
Rb  Rb5  1  0.00000039  0.99999985  0.49999977  1  0  0.895603  0  0.530594  0  0  0.81158  0  0.759332  0  0  0.825194  0  0.741542  0  0  0.921696  0.800947  0  0.772721  0
H  H6  1  0.40597076  0.36345968  0.74999759  1  0  0.086952  0  0.964692  0  0  0.093068  0  1.03446  0  0  0.095004  0  1.032912  0  0  0.141102  0.091622  0  1.03564  0
H  H7  1  0.63653508  0.04250379  0.74999583  1  0  0.086974  0  0.964659  0  0  0.093063  0  1.034451  0  0  0.094999  0  1.032902  0  0  0.141083  0.091616  0  1.03563  0
H  H8  1  0.95748863  0.59402913  0.74999315  1  0  0.087029  0  0.96462  0  0  0.093103  0  1.034426  0  0  0.095039  0  1.032876  0  0  0.141111  0.091657  0  1.035606  0
H  H9  1  0.36346388  0.95749747  0.25000500  1  0  0.087002  0  0.964647  0  0  0.093068  0  1.034462  0  0  0.095004  0  1.032915  0  0  0.141099  0.091622  0  1.035641  0
H  H10  1  0.04250912  0.40597092  0.25000235  1  0  0.087043  0  0.964619  0  0  0.09311  0  1.034435  0  0  0.095046  0  1.032887  0  0  0.141116  0.091664  0  1.035615  0
H  H11  1  0.59403483  0.63653981  0.25000679  1  0  0.087003  0  0.964641  0  0  0.093062  0  1.034463  0  0  0.094998  0  1.032916  0  0  0.141104  0.091617  0  1.035642  0
C  C12  1  0.37337138  0.21869445  0.74999876  1  0  0.165716  0  3.798509  0  0  0.11945  0  4.079776  0  0  0.127317  0  4.095918  0  0  0.128141  0.114309  0  4.068713  0
C  C13  1  0.78129907  0.15467215  0.75000016  1  0  0.165781  0  3.79853  0  0  0.119539  0  4.079797  0  0  0.12741  0  4.095928  0  0  0.128204  0.114399  0  4.068734  0
C  C14  1  0.84532383  0.62662860  0.75000097  1  0  0.165676  0  3.798604  0  0  0.119445  0  4.079871  0  0  0.127313  0  4.09601  0  0  0.128147  0.114303  0  4.068808  0
C  C15  1  0.21869760  0.84533382  0.24999801  1  0  0.165663  0  3.798587  0  0  0.119434  0  4.079862  0  0  0.127306  0  4.09599  0  0  0.128131  0.114293  0  4.068802  0
C  C16  1  0.15467461  0.37337075  0.25000163  1  0  0.16567  0  3.7985  0  0  0.119449  0  4.079758  0  0  0.127315  0  4.0959  0  0  0.128155  0.114308  0  4.068696  0
C  C17  1  0.62663682  0.78130484  0.24999763  1  0  0.165654  0  3.798584  0  0  0.119426  0  4.079876  0  0  0.1273  0  4.095998  0  0  0.128133  0.114283  0  4.068819  0
N  N18  1  0.34947554  0.11816808  0.84884015  1  0  -0.383956  0  3.081664  0  0  -0.341569  0  3.370255  0  0  -0.352652  0  3.38321  0  0  -0.364013  -0.333915  0  3.361414  0
N  N19  1  0.88182462  0.23130266  0.84884039  1  0  -0.384  0  3.081808  0  0  -0.341617  0  3.370395  0  0  -0.3527  0  3.383354  0  0  -0.364055  -0.333965  0  3.361557  0
N  N20  1  0.76869331  0.65052393  0.84884116  1  0  -0.384014  0  3.081738  0  0  -0.341628  0  3.370318  0  0  -0.352711  0  3.383274  0  0  -0.364046  -0.333976  0  3.361481  0
N  N21  1  0.11817389  0.76870300  0.34884372  1  0  -0.383946  0  3.081664  0  0  -0.34156  0  3.370234  0  0  -0.352643  0  3.383192  0  0  -0.364014  -0.333914  0  3.361412  0
N  N22  1  0.23130436  0.34947529  0.34884472  1  0  -0.383966  0  3.081753  0  0  -0.34158  0  3.370326  0  0  -0.352663  0  3.383282  0  0  -0.364043  -0.333934  0  3.361505  0
N  N23  1  0.65052945  0.88182867  0.34884306  1  0  -0.383952  0  3.081707  0  0  -0.341566  0  3.370267  0  0  -0.352649  0  3.383225  0  0  -0.364043  -0.33392  0  3.361444  0
N  N24  1  0.65053126  0.88183262  0.15115890  1  0  -0.384001  0  3.08181  0  0  -0.341619  0  3.370381  0  0  -0.352701  0  3.38334  0  0  -0.364072  -0.333966  0  3.361544  0
N  N25  1  0.11817154  0.76870140  0.15115866  1  0  -0.383985  0  3.081852  0  0  -0.341606  0  3.37043  0  0  -0.352689  0  3.383388  0  0  -0.364073  -0.333953  0  3.361592  0
N  N26  1  0.23130514  0.34947542  0.15115967  1  0  -0.384014  0  3.081695  0  0  -0.34163  0  3.37027  0  0  -0.352715  0  3.383227  0  0  -0.364057  -0.333977  0  3.361432  0
N  N27  1  0.88182610  0.23130208  0.65115623  1  0  -0.383975  0  3.081733  0  0  -0.341592  0  3.370311  0  0  -0.352675  0  3.383268  0  0  -0.364033  -0.333946  0  3.361489  0
N  N28  1  0.76869409  0.65052406  0.65115611  1  0  -0.383945  0  3.081728  0  0  -0.341557  0  3.370299  0  0  -0.352641  0  3.383254  0  0  -0.364029  -0.333911  0  3.361477  0
N  N29  1  0.34947422  0.11817031  0.65115510  1  0  -0.383972  0  3.081677  0  0  -0.341589  0  3.370275  0  0  -0.352673  0  3.383229  0  0  -0.364046  -0.333944  0  3.361454  0
N  N30  1  0.30813843  0.94692889  0.80868923  1  0  -0.172598  0  3.103057  0  0  -0.147679  0  3.399644  0  0  -0.149764  0  3.411652  0  0  -0.204534  -0.145926  0  3.391323  0
N  N31  1  0.05306388  0.36120580  0.80869026  1  0  -0.172579  0  3.103218  0  0  -0.14766  0  3.399808  0  0  -0.149745  0  3.411817  0  0  -0.204529  -0.145907  0  3.391487  0
N  N32  1  0.63878799  0.69185668  0.80868919  1  0  -0.172508  0  3.102994  0  0  -0.14759  0  3.399589  0  0  -0.149675  0  3.411596  0  0  -0.204506  -0.145837  0  3.391266  0
N  N33  1  0.94693522  0.63879236  0.30869209  1  0  -0.172653  0  3.103096  0  0  -0.147733  0  3.399684  0  0  -0.149818  0  3.411692  0  0  -0.204573  -0.145985  0  3.391372  0
N  N34  1  0.36120971  0.30814288  0.30869405  1  0  -0.172623  0  3.103295  0  0  -0.147705  0  3.399881  0  0  -0.14979  0  3.41189  0  0  -0.204559  -0.145958  0  3.391569  0
N  N35  1  0.69185703  0.05306563  0.30869223  1  0  -0.172629  0  3.103129  0  0  -0.147709  0  3.399714  0  0  -0.149793  0  3.411722  0  0  -0.204545  -0.145961  0  3.391402  0
N  N36  1  0.69186020  0.05306785  0.19130983  1  0  -0.172456  0  3.103052  0  0  -0.147522  0  3.399623  0  0  -0.149607  0  3.411633  0  0  -0.204439  -0.145769  0  3.391301  0
N  N37  1  0.94693527  0.63879285  0.19130968  1  0  -0.17247  0  3.103112  0  0  -0.147538  0  3.399686  0  0  -0.149623  0  3.411695  0  0  -0.204435  -0.145786  0  3.391363  0
N  N38  1  0.36121046  0.30814267  0.19131164  1  0  -0.1725  0  3.103185  0  0  -0.147571  0  3.39976  0  0  -0.149655  0  3.411769  0  0  -0.20448  -0.145818  0  3.391436  0
N  N39  1  0.05306584  0.36120680  0.69130785  1  0  -0.172588  0  3.103136  0  0  -0.147666  0  3.399723  0  0  -0.149748  0  3.411731  0  0  -0.204528  -0.14592  0  3.391411  0
N  N40  1  0.63878804  0.69185717  0.69130678  1  0  -0.172614  0  3.10309  0  0  -0.147698  0  3.399688  0  0  -0.14978  0  3.411694  0  0  -0.204543  -0.145952  0  3.391376  0
N  N41  1  0.30813899  0.94693129  0.69130682  1  0  -0.172542  0  3.103095  0  0  -0.147619  0  3.39968  0  0  -0.149702  0  3.411688  0  0  -0.204512  -0.145874  0  3.391369  0
