# generated using pymatgen
data_ZnH20C22SN4O7
_symmetry_space_group_name_H-M   'P 1'
_cell_length_a   10.29092597
_cell_length_b   11.32307397
_cell_length_c   11.72918044
_cell_angle_alpha   65.81393535
_cell_angle_beta   81.12335658
_cell_angle_gamma   76.87459657
_symmetry_Int_Tables_number   1
_chemical_formula_structural   ZnH20C22SN4O7
_chemical_formula_sum   'Zn2 H40 C44 S2 N8 O14'
_cell_volume   1211.30626506
_cell_formula_units_Z   2
loop_
 _symmetry_equiv_pos_site_id
 _symmetry_equiv_pos_as_xyz
  1  'x, y, z'
loop_
 _atom_site_type_symbol
 _atom_site_label
 _atom_site_symmetry_multiplicity
 _atom_site_fract_x
 _atom_site_fract_y
 _atom_site_fract_z
 _atom_site_occupancy
 _atom_site_hle17_bader_spin_density
 _atom_site_hle17_ddec_charge
 _atom_site_hle17_ddec_spin_density
 _atom_site_hle17_ddec_sum_bond_order
 _atom_site_hle17_magmom
 _atom_site_hse06_10hf_bader_spin_density
 _atom_site_hse06_10hf_ddec_charge
 _atom_site_hse06_10hf_ddec_spin_density
 _atom_site_hse06_10hf_ddec_sum_bond_order
 _atom_site_hse06_10hf_magmom
 _atom_site_hse06_bader_spin_density
 _atom_site_hse06_ddec_charge
 _atom_site_hse06_ddec_spin_density
 _atom_site_hse06_ddec_sum_bond_order
 _atom_site_hse06_magmom
 _atom_site_pbe_bader_spin_density
 _atom_site_pbe_cm5_charge
 _atom_site_pbe_ddec_charge
 _atom_site_pbe_ddec_spin_density
 _atom_site_pbe_ddec_sum_bond_order
 _atom_site_pbe_magmom
Zn  Zn0  1  0.29037136  0.20063079  0.74157616  1  0  1.047644  0  1.781842  0  0  0.862298  0  2.240619  0  0  0.912899  0  2.183336  0  0  0.678196  0.825537  0  2.282625  0
Zn  Zn1  1  0.70962815  0.79937177  0.25842331  1  0  1.047638  0  1.781833  0  0  0.862307  0  2.240578  0  0  0.912907  0  2.183302  0  0  0.678172  0.82555  0  2.282578  0
H  H2  1  0.47359834  0.02939369  0.70687759  1  0  0.409054  0  0.883338  0  0  0.382163  0  0.949718  0  0  0.392516  0  0.934453  0  0  0.291389  0.374785  0  0.960616  0
H  H3  1  0.52640213  0.97060394  0.29312537  1  0  0.409072  0  0.883278  0  0  0.382189  0  0.949668  0  0  0.392541  0  0.934405  0  0  0.291416  0.37481  0  0.960568  0
H  H4  1  0.35507152  0.96160026  0.69599528  1  0  0.426235  0  0.874074  0  0  0.394786  0  0.93902  0  0  0.405809  0  0.922862  0  0  0.291516  0.386981  0  0.950425  0
H  H5  1  0.64492804  0.03840232  0.30400247  1  0  0.426167  0  0.874195  0  0  0.394773  0  0.939029  0  0  0.405793  0  0.922874  0  0  0.291523  0.386968  0  0.950433  0
H  H6  1  0.11091361  0.39640549  0.85352987  1  0  0.10653  0  0.943863  0  0  0.113256  0  1.005357  0  0  0.116247  0  1.002769  0  0  0.125992  0.110965  0  1.007401  0
H  H7  1  0.88908216  0.60359991  0.14647661  1  0  0.106466  0  0.943866  0  0  0.113215  0  1.005388  0  0  0.116211  0  1.00278  0  0  0.125985  0.11092  0  1.007429  0
H  H8  1  0.36610277  0.69162640  0.50335545  1  0  0.126055  0  0.97643  0  0  0.130454  0  1.045763  0  0  0.134184  0  1.044068  0  0  0.106046  0.127555  0  1.047531  0
H  H9  1  0.63389167  0.30837211  0.49664616  1  0  0.126054  0  0.976408  0  0  0.130455  0  1.04574  0  0  0.134187  0  1.044043  0  0  0.106037  0.127535  0  1.047533  0
H  H10  1  0.46317864  0.15518903  0.50843036  1  0  0.088305  0  0.953629  0  0  0.095503  0  1.017813  0  0  0.098801  0  1.014372  0  0  0.119407  0.093004  0  1.020551  0
H  H11  1  0.53682757  0.84481256  0.49158236  1  0  0.08839  0  0.953627  0  0  0.095565  0  1.017812  0  0  0.098863  0  1.014373  0  0  0.11945  0.093065  0  1.02055  0
H  H12  1  0.46262968  0.25935448  0.27757885  1  0  0.118992  0  0.951916  0  0  0.127371  0  1.013913  0  0  0.131534  0  1.011381  0  0  0.113942  0.124202  0  1.01613  0
H  H13  1  0.53737707  0.74063529  0.72243495  1  0  0.119015  0  0.952004  0  0  0.127399  0  1.013977  0  0  0.131558  0  1.011449  0  0  0.113947  0.124245  0  1.016178  0
H  H14  1  0.10214213  0.38808329  0.55381837  1  0  0.082272  0  0.938489  0  0  0.090397  0  1.001627  0  0  0.093263  0  0.999271  0  0  0.116855  0.088348  0  1.003236  0
H  H15  1  0.89786288  0.61192136  0.44617881  1  0  0.08225  0  0.938537  0  0  0.090388  0  1.001667  0  0  0.093255  0  0.999312  0  0  0.116816  0.08834  0  1.003277  0
H  H16  1  0.09093529  0.51224190  0.31996019  1  0  0.113572  0  0.952162  0  0  0.118908  0  1.021361  0  0  0.12195  0  1.020784  0  0  0.109972  0.116504  0  1.022277  0
H  H17  1  0.90907049  0.48774996  0.68003757  1  0  0.113539  0  0.952082  0  0  0.118863  0  1.021306  0  0  0.121906  0  1.020735  0  0  0.109934  0.116462  0  1.022215  0
H  H18  1  0.83526250  0.13401501  0.08604269  1  0  0.11693  0  0.9268  0  0  0.130251  0  0.980203  0  0  0.133558  0  0.978549  0  0  0.109823  0.127856  0  0.98146  0
H  H19  1  0.16473183  0.86598452  0.91395513  1  0  0.116915  0  0.926828  0  0  0.130236  0  0.980223  0  0  0.133542  0  0.97857  0  0  0.109822  0.12784  0  0.981481  0
H  H20  1  0.40169532  0.44711117  0.55905173  1  0  0.072521  0  0.94306  0  0  0.082564  0  1.004851  0  0  0.084472  0  1.004011  0  0  0.113746  0.081118  0  1.005529  0
H  H21  1  0.59829476  0.55288922  0.44095135  1  0  0.072502  0  0.942986  0  0  0.082549  0  1.004787  0  0  0.084455  0  1.003948  0  0  0.113704  0.081102  0  1.005469  0
H  H22  1  0.05776147  0.63629095  0.80841754  1  0  0.137564  0  0.917029  0  0  0.147559  0  0.971359  0  0  0.15194  0  0.968484  0  0  0.124479  0.144333  0  0.973563  0
H  H23  1  0.94223419  0.36371546  0.19158515  1  0  0.137663  0  0.917008  0  0  0.14767  0  0.971313  0  0  0.152057  0  0.968437  0  0  0.124502  0.144441  0  0.973519  0
H  H24  1  0.14290346  0.06049567  0.60817530  1  0  0.097742  0  0.941953  0  0  0.110449  0  1.004658  0  0  0.111565  0  1.004091  0  0  0.11763  0.109526  0  1.00524  0
H  H25  1  0.85708980  0.93950876  0.39182331  1  0  0.09773  0  0.941989  0  0  0.110432  0  1.004734  0  0  0.111548  0  1.00417  0  0  0.117628  0.109507  0  1.005313  0
H  H26  1  0.96849273  0.06095641  0.63957816  1  0  0.076006  0  0.965585  0  0  0.085801  0  1.037201  0  0  0.08679  0  1.036117  0  0  0.102433  0.084893  0  1.038112  0
H  H27  1  0.03149750  0.93904403  0.36041892  1  0  0.076031  0  0.965589  0  0  0.085875  0  1.037173  0  0  0.086879  0  1.036075  0  0  0.10244  0.084943  0  1.038097  0
H  H28  1  0.49704047  0.47552157  0.21770267  1  0  0.071584  0  0.964658  0  0  0.088555  0  1.027005  0  0  0.087559  0  1.029944  0  0  0.106971  0.08932  0  1.024801  0
H  H29  1  0.50295707  0.52448095  0.78229790  1  0  0.071533  0  0.964532  0  0  0.088495  0  1.026913  0  0  0.087497  0  1.029851  0  0  0.106938  0.089262  0  1.024713  0
H  H30  1  0.51738524  0.61764766  0.08163866  1  0  0.088138  0  0.914338  0  0  0.101891  0  0.97858  0  0  0.102308  0  0.978657  0  0  0.111978  0.101496  0  0.978593  0
H  H31  1  0.48261094  0.38235187  0.91836321  1  0  0.088093  0  0.914329  0  0  0.101857  0  0.978584  0  0  0.102273  0  0.978658  0  0  0.111965  0.101463  0  0.978598  0
H  H32  1  0.87720454  0.88136680  0.61887079  1  0  0.087676  0  0.892774  0  0  0.106271  0  0.945829  0  0  0.106682  0  0.94618  0  0  0.116685  0.105875  0  0.945651  0
H  H33  1  0.12279185  0.11864165  0.38112506  1  0  0.087613  0  0.892642  0  0  0.106237  0  0.945711  0  0  0.106648  0  0.946062  0  0  0.116655  0.105841  0  0.945531  0
H  H34  1  0.99290489  0.76640031  0.56823982  1  0  0.074312  0  0.963691  0  0  0.091269  0  1.025926  0  0  0.090355  0  1.028888  0  0  0.110515  0.091864  0  1.02388  0
H  H35  1  0.00708777  0.23360212  0.43176048  1  0  0.074233  0  0.963743  0  0  0.091219  0  1.025981  0  0  0.090303  0  1.028946  0  0  0.110504  0.091815  0  1.023934  0
H  H36  1  0.59478962  0.12625307  0.03624849  1  0  0.12284  0  0.947568  0  0  0.133279  0  1.006758  0  0  0.13696  0  1.003486  0  0  0.107315  0.130526  0  1.009267  0
H  H37  1  0.40520765  0.87375251  0.96373813  1  0  0.122929  0  0.947449  0  0  0.133292  0  1.006718  0  0  0.136974  0  1.003443  0  0  0.107317  0.13054  0  1.009227  0
H  H38  1  0.38671700  0.66988122  0.89459229  1  0  0.074213  0  0.924396  0  0  0.087743  0  0.9931  0  0  0.087853  0  0.992715  0  0  0.106712  0.087605  0  0.993396  0
H  H39  1  0.61328258  0.33012032  0.10541268  1  0  0.074151  0  0.924448  0  0  0.087694  0  0.993125  0  0  0.087803  0  0.992741  0  0  0.106706  0.08756  0  0.993417  0
H  H40  1  0.28401052  0.55543478  0.91165658  1  0  0.086535  0  0.975169  0  0  0.100713  0  1.037155  0  0  0.101532  0  1.03749  0  0  0.112551  0.100127  0  1.036929  0
H  H41  1  0.71599007  0.44456678  0.08834741  1  0  0.086502  0  0.975166  0  0  0.100648  0  1.037165  0  0  0.101467  0  1.037499  0  0  0.112528  0.10006  0  1.036944  0
C  C42  1  0.04144243  0.17893718  0.88213885  1  0  0.637054  0  3.989466  0  0  0.588852  0  4.288391  0  0  0.622016  0  4.281964  0  0  0.189254  0.566066  0  4.291997  0
C  C43  1  0.95856022  0.82105950  0.11786337  1  0  0.63718  0  3.989472  0  0  0.588958  0  4.288408  0  0  0.622123  0  4.281979  0  0  0.189279  0.566172  0  4.292014  0
C  C44  1  0.16342970  0.46523330  0.77541928  1  0  0.141425  0  3.650439  0  0  0.111401  0  3.903816  0  0  0.118473  0  3.918913  0  0  0.059205  0.106838  0  3.893794  0
C  C45  1  0.83656502  0.53477205  0.22458989  1  0  0.141574  0  3.650688  0  0  0.11141  0  3.904161  0  0  0.118486  0  3.919267  0  0  0.059198  0.106855  0  3.894131  0
C  C46  1  0.56043771  0.16578301  0.78068659  1  0  0.649647  0  3.957726  0  0  0.603211  0  4.243927  0  0  0.638039  0  4.236624  0  0  0.195032  0.57949  0  4.247994  0
C  C47  1  0.43957160  0.83422079  0.21930360  1  0  0.649942  0  3.957257  0  0  0.603522  0  4.24343  0  0  0.638351  0  4.236121  0  0  0.195153  0.579801  0  4.247495  0
C  C48  1  0.30884608  0.62833485  0.58193304  1  0  -0.144916  0  3.713077  0  0  -0.166867  0  3.964577  0  0  -0.172701  0  3.984948  0  0  -0.083806  -0.163201  0  3.951223  0
C  C49  1  0.69115009  0.37166468  0.41806883  1  0  -0.144935  0  3.713104  0  0  -0.166881  0  3.964619  0  0  -0.172709  0  3.984966  0  0  -0.083794  -0.163201  0  3.95128  0
C  C50  1  0.38046073  0.23226960  0.46387734  1  0  0.132043  0  3.701978  0  0  0.099456  0  3.957811  0  0  0.106401  0  3.974304  0  0  0.050098  0.094855  0  3.946909  0
C  C51  1  0.61954845  0.76772816  0.53612884  1  0  0.131882  0  3.70218  0  0  0.099315  0  3.958007  0  0  0.106262  0  3.974497  0  0  0.050053  0.094714  0  3.947115  0
C  C52  1  0.21004362  0.68229721  0.65231881  1  0  0.009976  0  3.757036  0  0  0.025394  0  3.995928  0  0  0.025128  0  4.014825  0  0  0.008286  0.025397  0  3.983355  0
C  C53  1  0.78995424  0.31770332  0.34768504  1  0  0.009993  0  3.757153  0  0  0.02537  0  3.996071  0  0  0.025108  0  4.014968  0  0  0.008317  0.025372  0  3.983496  0
C  C54  1  0.38066855  0.29331851  0.33397186  1  0  -0.141904  0  3.701978  0  0  -0.160966  0  3.946256  0  0  -0.166172  0  3.964349  0  0  -0.078158  -0.157744  0  3.934778  0
C  C55  1  0.61933578  0.70667423  0.66603596  1  0  -0.141934  0  3.701862  0  0  -0.160938  0  3.946143  0  0  -0.166141  0  3.964241  0  0  -0.078143  -0.157751  0  3.934639  0
C  C56  1  0.19681150  0.82467475  0.62879438  1  0  0.502189  0  3.815622  0  0  0.450896  0  4.104033  0  0  0.480715  0  4.102358  0  0  0.253815  0.43082  0  4.104577  0
C  C57  1  0.80318967  0.17532985  0.37120070  1  0  0.502093  0  3.815883  0  0  0.45083  0  4.104201  0  0  0.480649  0  4.102526  0  0  0.253851  0.430754  0  4.104748  0
C  C58  1  0.67314745  0.16835949  0.84309278  1  0  -0.147928  0  3.740072  0  0  -0.12931  0  4.006053  0  0  -0.136711  0  4.02614  0  0  -0.029978  -0.124419  0  3.992427  0
C  C59  1  0.32685560  0.83164617  0.15689656  1  0  -0.148044  0  3.740189  0  0  -0.129419  0  4.006149  0  0  -0.136821  0  4.026234  0  0  -0.02989  -0.124527  0  3.99252  0
C  C60  1  0.26870610  0.46839580  0.14084703  1  0  0.470078  0  3.851487  0  0  0.42216  0  4.139605  0  0  0.450677  0  4.139522  0  0  0.238535  0.403043  0  4.13898  0
C  C61  1  0.73130289  0.53158525  0.85915368  1  0  0.470183  0  3.851457  0  0  0.422279  0  4.139671  0  0  0.450814  0  4.13956  0  0  0.238532  0.403102  0  4.139096  0
C  C62  1  0.18029647  0.36514896  0.48794241  1  0  0.120646  0  3.714268  0  0  0.091048  0  3.96777  0  0  0.097689  0  3.985021  0  0  0.04401  0.086808  0  3.955987  0
C  C63  1  0.81971169  0.63484982  0.51205753  1  0  0.12065  0  3.714417  0  0  0.091032  0  3.967909  0  0  0.097675  0  3.985161  0  0  0.044008  0.086789  0  3.956132  0
C  C64  1  0.17415473  0.43290464  0.35939833  1  0  -0.1399  0  3.721214  0  0  -0.163591  0  3.977008  0  0  -0.169416  0  3.997205  0  0  -0.078038  -0.159986  0  3.964123  0
C  C65  1  0.82584835  0.56709008  0.64060375  1  0  -0.139902  0  3.721029  0  0  -0.163517  0  3.976879  0  0  -0.169348  0  3.997088  0  0  -0.077981  -0.159933  0  3.963974  0
C  C66  1  0.80670023  0.15118260  0.99425125  1  0  -0.065231  0  3.718223  0  0  -0.09549  0  3.982979  0  0  -0.095493  0  4.001226  0  0  -0.092984  -0.095151  0  3.970149  0
C  C67  1  0.19329744  0.84881996  0.00574416  1  0  -0.065193  0  3.718342  0  0  -0.095457  0  3.983065  0  0  -0.095459  0  4.001313  0  0  -0.092954  -0.095123  0  3.970247  0
C  C68  1  0.32769250  0.49385641  0.61235164  1  0  0.112105  0  3.746507  0  0  0.083456  0  4.000194  0  0  0.088858  0  4.019796  0  0  0.040097  0.080443  0  3.986265  0
C  C69  1  0.67229773  0.50614298  0.38765352  1  0  0.112202  0  3.746175  0  0  0.083522  0  3.999834  0  0  0.088928  0  4.019434  0  0  0.040156  0.08051  0  3.985902  0
C  C70  1  0.13542198  0.59970458  0.75018541  1  0  -0.136572  0  3.688709  0  0  -0.158325  0  3.940981  0  0  -0.162349  0  3.9572  0  0  -0.070808  -0.155998  0  3.930497  0
C  C71  1  0.86457448  0.40030284  0.24981594  1  0  -0.136774  0  3.688893  0  0  -0.15849  0  3.941189  0  0  -0.162531  0  3.957427  0  0  -0.070861  -0.156159  0  3.930702  0
C  C72  1  0.05634990  0.04190511  0.57889775  1  0  -0.021865  0  3.62831  0  0  -0.081829  0  3.886561  0  0  -0.0774  0  3.896706  0  0  -0.059411  -0.084744  0  3.879818  0
C  C73  1  0.94364592  0.95809640  0.42110169  1  0  -0.021823  0  3.628429  0  0  -0.081943  0  3.886787  0  0  -0.077524  0  3.896927  0  0  -0.059435  -0.084822  0  3.880031  0
C  C74  1  0.89758093  0.17340485  0.89094227  1  0  -0.131948  0  3.717679  0  0  -0.114202  0  3.982531  0  0  -0.120184  0  4.002823  0  0  -0.023687  -0.109875  0  3.967986  0
C  C75  1  0.10241981  0.82659676  0.10905572  1  0  -0.132071  0  3.717782  0  0  -0.11428  0  3.982589  0  0  -0.12026  0  4.002877  0  0  -0.023692  -0.109947  0  3.968033  0
C  C76  1  0.27790926  0.39858468  0.27996941  1  0  0.034833  0  3.730741  0  0  0.050215  0  3.965257  0  0  0.051576  0  3.982762  0  0  0.016984  0.048858  0  3.953869  0
C  C77  1  0.72209678  0.60141011  0.72003145  1  0  0.034918  0  3.730372  0  0  0.050138  0  3.965136  0  0  0.05149  0  3.982642  0  0  0.016954  0.048861  0  3.953667  0
C  C78  1  0.50294578  0.51489208  0.11536719  1  0  -0.018397  0  3.640097  0  0  -0.084368  0  3.906187  0  0  -0.080428  0  3.919234  0  0  -0.057987  -0.086668  0  3.896814  0
C  C79  1  0.49705040  0.48510745  0.88463468  1  0  -0.018202  0  3.639915  0  0  -0.084191  0  3.906099  0  0  -0.080239  0  3.919133  0  0  -0.057942  -0.086491  0  3.896719  0
C  C80  1  0.96781811  0.86919949  0.55805314  1  0  -0.01152  0  3.62904  0  0  -0.077853  0  3.895141  0  0  -0.074066  0  3.907853  0  0  -0.052197  -0.08  0  3.886071  0
C  C81  1  0.03217653  0.13080298  0.44194606  1  0  -0.011305  0  3.628891  0  0  -0.077765  0  3.895001  0  0  -0.073977  0  3.907711  0  0  -0.052173  -0.079908  0  3.885937  0
C  C82  1  0.67864855  0.14828973  0.96714920  1  0  -0.066837  0  3.717496  0  0  -0.100427  0  3.9858  0  0  -0.098261  0  4.002258  0  0  -0.094226  -0.101336  0  3.974525  0
C  C83  1  0.32134883  0.85171978  0.03283845  1  0  -0.066926  0  3.717603  0  0  -0.100453  0  3.985891  0  0  -0.098289  0  4.002353  0  0  -0.094342  -0.101358  0  3.974601  0
C  C84  1  0.37917782  0.56484335  0.93440795  1  0  -0.02312  0  3.642355  0  0  -0.08681  0  3.90446  0  0  -0.082255  0  3.915695  0  0  -0.062044  -0.089865  0  3.896689  0
C  C85  1  0.62082103  0.43515720  0.06559578  1  0  -0.022959  0  3.642271  0  0  -0.08659  0  3.904297  0  0  -0.082028  0  3.915535  0  0  -0.062014  -0.089649  0  3.896528  0
S  S86  1  0.82518242  0.19020584  0.76098569  1  0  0.127106  0  2.682473  0  0  0.125438  0  3.003794  0  0  0.125477  0  3.01127  0  0  0.080903  0.12596  0  2.998234  0
S  S87  1  0.17482502  0.80980185  0.23900663  1  0  0.127173  0  2.682595  0  0  0.125481  0  3.003908  0  0  0.125519  0  3.011388  0  0  0.080851  0.126002  0  2.998336  0
N  N88  1  0.25696641  0.41351466  0.70690458  1  0  -0.327552  0  3.269896  0  0  -0.255605  0  3.536263  0  0  -0.272745  0  3.553121  0  0  -0.315515  -0.244054  0  3.52469  0
N  N89  1  0.74302609  0.58648772  0.29310173  1  0  -0.327601  0  3.269748  0  0  -0.25554  0  3.536088  0  0  -0.272681  0  3.552944  0  0  -0.315533  -0.243991  0  3.524516  0
N  N90  1  0.28327447  0.26836722  0.54012614  1  0  -0.338109  0  3.286706  0  0  -0.261207  0  3.556022  0  0  -0.278799  0  3.571564  0  0  -0.322335  -0.24929  0  3.545538  0
N  N91  1  0.71673097  0.73163442  0.45987898  1  0  -0.338027  0  3.286937  0  0  -0.261137  0  3.556269  0  0  -0.278733  0  3.571815  0  0  -0.322272  -0.249222  0  3.545782  0
N  N92  1  0.07757763  0.90390465  0.59681803  1  0  -0.190913  0  3.394135  0  0  -0.106059  0  3.633227  0  0  -0.126654  0  3.653706  0  0  -0.267093  -0.092374  0  3.619145  0
N  N93  1  0.92241710  0.09609785  0.40317774  1  0  -0.190927  0  3.394405  0  0  -0.105959  0  3.63345  0  0  -0.126551  0  3.653933  0  0  -0.267114  -0.092277  0  3.619358  0
N  N94  1  0.37845909  0.51414986  0.07039815  1  0  -0.207138  0  3.401737  0  0  -0.119625  0  3.639792  0  0  -0.141577  0  3.662605  0  0  -0.276428  -0.104753  0  3.623852  0
N  N95  1  0.62153906  0.48584971  0.92960262  1  0  -0.207251  0  3.401669  0  0  -0.119756  0  3.63975  0  0  -0.141718  0  3.662554  0  0  -0.276432  -0.104869  0  3.623828  0
O  O96  1  0.10209191  0.18493295  0.77318355  1  0  -0.689812  0  2.065105  0  0  -0.617895  0  2.350552  0  0  -0.648048  0  2.335773  0  0  -0.35388  -0.596449  0  2.359795  0
O  O97  1  0.89790870  0.81506472  0.22681426  1  0  -0.689777  0  2.065174  0  0  -0.617853  0  2.350632  0  0  -0.648007  0  2.335856  0  0  -0.353824  -0.596405  0  2.359866  0
O  O98  1  0.44390014  0.17947725  0.83727418  1  0  -0.615235  0  2.024836  0  0  -0.542237  0  2.278808  0  0  -0.571441  0  2.265266  0  0  -0.321813  -0.522114  0  2.288772  0
O  O99  1  0.55610841  0.82053545  0.16271011  1  0  -0.61538  0  2.024522  0  0  -0.542397  0  2.278493  0  0  -0.571599  0  2.264945  0  0  -0.321886  -0.522277  0  2.288465  0
O  O100  1  0.38667696  0.00240540  0.74418303  1  0  -0.823272  0  1.901666  0  0  -0.76359  0  2.096539  0  0  -0.784704  0  2.062555  0  0  -0.573768  -0.748625  0  2.120633  0
O  O101  1  0.61332392  0.99759520  0.25581789  1  0  -0.823185  0  1.901714  0  0  -0.763553  0  2.096623  0  0  -0.784663  0  2.062644  0  0  -0.573782  -0.748587  0  2.120718  0
O  O102  1  0.09457853  0.17932768  0.97009956  1  0  -0.578593  0  1.854292  0  0  -0.540105  0  2.054252  0  0  -0.559984  0  2.045835  0  0  -0.32634  -0.525502  0  2.060168  0
O  O103  1  0.90542802  0.82066517  0.02989772  1  0  -0.578733  0  1.854251  0  0  -0.540264  0  2.054241  0  0  -0.560147  0  2.04582  0  0  -0.326423  -0.52566  0  2.060155  0
O  O104  1  0.58327144  0.15052136  0.67728137  1  0  -0.665495  0  1.920106  0  0  -0.617152  0  2.141548  0  0  -0.639941  0  2.129273  0  0  -0.345716  -0.601212  0  2.149602  0
O  O105  1  0.41674109  0.84946669  0.32271452  1  0  -0.665512  0  1.920112  0  0  -0.617175  0  2.141534  0  0  -0.639959  0  2.129252  0  0  -0.345701  -0.601239  0  2.149592  0
O  O106  1  0.16266001  0.47866553  0.09645246  1  0  -0.511181  0  1.874326  0  0  -0.47395  0  2.077134  0  0  -0.495254  0  2.073166  0  0  -0.290904  -0.458942  0  2.079148  0
O  O107  1  0.83735320  0.52129095  0.90355041  1  0  -0.511237  0  1.874425  0  0  -0.474  0  2.077253  0  0  -0.495304  0  2.073269  0  0  -0.290893  -0.458979  0  2.07929  0
O  O108  1  0.29664631  0.86180632  0.64329014  1  0  -0.564474  0  1.957524  0  0  -0.515576  0  2.179559  0  0  -0.539288  0  2.172131  0  0  -0.293222  -0.498738  0  2.183955  0
O  O109  1  0.70334618  0.13819815  0.35670086  1  0  -0.564489  0  1.957535  0  0  -0.515628  0  2.179527  0  0  -0.539343  0  2.172096  0  0  -0.293295  -0.498787  0  2.183922  0
