# generated using pymatgen
data_H11PbC5NO2
_symmetry_space_group_name_H-M   'P 1'
_cell_length_a   9.50338267
_cell_length_b   9.50245424
_cell_length_c   10.25941324
_cell_angle_alpha   99.23553106
_cell_angle_beta   115.36691738
_cell_angle_gamma   111.37297938
_symmetry_Int_Tables_number   1
_chemical_formula_structural   H11PbC5NO2
_chemical_formula_sum   'H44 Pb4 C20 N4 O8'
_cell_volume   722.28292768
_cell_formula_units_Z   4
loop_
 _symmetry_equiv_pos_site_id
 _symmetry_equiv_pos_as_xyz
  1  'x, y, z'
loop_
 _atom_site_type_symbol
 _atom_site_label
 _atom_site_symmetry_multiplicity
 _atom_site_fract_x
 _atom_site_fract_y
 _atom_site_fract_z
 _atom_site_occupancy
 _atom_site_pbe_bader_spin_density
 _atom_site_pbe_cm5_charge
 _atom_site_pbe_ddec_charge
 _atom_site_pbe_ddec_spin_density
 _atom_site_pbe_ddec_sum_bond_order
 _atom_site_pbe_magmom
H  H0  1  0.61738698  0.66538835  0.32506664  1  0  0.082513  0.033993  0  1.026107  0
H  H1  1  0.84041945  0.29233320  0.17481765  1  0  0.082235  0.033559  0  1.026911  0
H  H2  1  0.38261257  0.33460919  0.67493978  1  0  0.082514  0.033979  0  1.026139  0
H  H3  1  0.15958103  0.70767056  0.82517647  1  0  0.082223  0.033565  0  1.026932  0
H  H4  1  0.71505704  0.60300629  0.23088124  1  0  0.077746  0.028558  0  1.041831  0
H  H5  1  0.87220355  0.48424724  0.26890768  1  0  0.077539  0.02889  0  1.04173  0
H  H6  1  0.28494807  0.39699738  0.76912640  1  0  0.077749  0.028555  0  1.041821  0
H  H7  1  0.12779745  0.51575528  0.73108938  1  0  0.077544  0.028885  0  1.041774  0
H  H8  1  0.46781175  0.63914188  0.04949570  1  0  0.093991  0.068937  0  1.021121  0
H  H9  1  0.08969043  0.41838965  0.45040693  1  0  0.093334  0.067337  0  1.021203  0
H  H10  1  0.53218780  0.36085565  0.95051170  1  0  0.093969  0.068931  0  1.021054  0
H  H11  1  0.91031173  0.58161287  0.54959156  1  0  0.09332  0.067335  0  1.021188  0
H  H12  1  0.56565158  0.83986845  0.18167525  1  0  0.097657  0.058572  0  1.065361  0
H  H13  1  0.15826286  0.38399675  0.31830241  1  0  0.097663  0.058534  0  1.063754  0
H  H14  1  0.43434746  0.16013033  0.81832825  1  0  0.097668  0.058578  0  1.065352  0
H  H15  1  0.84173996  0.61600703  0.68169263  1  0  0.09765  0.058515  0  1.063725  0
H  H16  1  0.85577390  0.65762632  0.87840339  1  0  0.088292  0.042974  0  1.055026  0
H  H17  1  0.27930338  0.97736976  0.62181528  1  0  0.088139  0.043203  0  1.055009  0
H  H18  1  0.14422720  0.34237862  0.12159603  1  0  0.08827  0.042981  0  1.055034  0
H  H19  1  0.72070006  0.02263517  0.37818604  1  0  0.088139  0.043231  0  1.054996  0
H  H20  1  0.85047129  0.84440545  0.88777235  1  0  0.082935  0.030784  0  1.058412  0
H  H21  1  0.45675165  0.96278828  0.61253928  1  0  0.082465  0.029697  0  1.057758  0
H  H22  1  0.14951970  0.15559574  0.11222638  1  0  0.082929  0.030816  0  1.058487  0
H  H23  1  0.54324998  0.03721545  0.38745919  1  0  0.08247  0.029698  0  1.057776  0
H  H24  1  0.57972993  0.62294489  0.85912187  1  0  0.088224  0.054963  0  1.023716  0
H  H25  1  0.26367792  0.72044841  0.64072393  1  0  0.087946  0.053883  0  1.023576  0
H  H26  1  0.42026747  0.37704413  0.14088238  1  0  0.08819  0.054941  0  1.023756  0
H  H27  1  0.73632127  0.27955288  0.35927221  1  0  0.087986  0.053892  0  1.023559  0
H  H28  1  0.72372126  0.60680023  0.03144364  1  0  0.105173  0.082954  0  1.030846  0
H  H29  1  0.07536838  0.69231023  0.46837045  1  0  0.104858  0.081665  0  1.030784  0
H  H30  1  0.27628789  0.39320226  0.96856346  1  0  0.105146  0.082898  0  1.030677  0
H  H31  1  0.92463028  0.30769226  0.53162665  1  0  0.104874  0.081645  0  1.030797  0
H  H32  1  0.65226152  0.01584621  0.07262535  1  0  0.095098  0.095857  0  1.042477  0
H  H33  1  0.44330481  0.57967021  0.42739847  1  0  0.095273  0.096133  0  1.042867  0
H  H34  1  0.34773198  0.98414647  0.92737403  1  0  0.095136  0.095887  0  1.042419  0
H  H35  1  0.55669927  0.42033596  0.57260232  1  0  0.095226  0.096076  0  1.042899  0
H  H36  1  0.50793116  0.84758579  0.88935830  1  0  0.085579  0.090394  0  1.021402  0
H  H37  1  0.45827393  0.61865664  0.61063161  1  0  0.085411  0.090673  0  1.021575  0
H  H38  1  0.49206713  0.15240936  0.11064238  1  0  0.085574  0.090373  0  1.021423  0
H  H39  1  0.54172899  0.38134954  0.38936678  1  0  0.085407  0.090667  0  1.021543  0
H  H40  1  0.73541498  0.97693022  0.95287114  1  0  0.102117  0.111852  0  1.042652  0
H  H41  1  0.52417180  0.78263497  0.54715067  1  0  0.102216  0.112295  0  1.041132  0
H  H42  1  0.26458278  0.02306613  0.04713147  1  0  0.102117  0.111887  0  1.042624  0
H  H43  1  0.47583164  0.21736998  0.45284968  1  0  0.102194  0.112276  0  1.041147  0
Pb  Pb44  1  0.03845240  0.01561260  0.32081443  1  0  0.550202  0.871787  0  2.103768  0
Pb  Pb45  1  0.19499650  0.71780882  0.17924183  1  0  0.550363  0.872102  0  2.102736  0
Pb  Pb46  1  0.96153977  0.98437535  0.67917003  1  0  0.550189  0.871809  0  2.103706  0
Pb  Pb47  1  0.80500968  0.28221685  0.82075893  1  0  0.550375  0.87216  0  2.102762  0
C  C48  1  0.70131481  0.70858684  0.27583006  1  0  -0.090696  0.056451  0  4.066689  0
C  C49  1  0.93288530  0.42555219  0.22408234  1  0  -0.091204  0.054242  0  4.068435  0
C  C50  1  0.29868486  0.29141314  0.72417582  1  0  -0.090758  0.05639  0  4.066782  0
C  C51  1  0.06711698  0.57445278  0.77591462  1  0  -0.091245  0.054156  0  4.068621  0
C  C52  1  0.59678222  0.74861745  0.13903206  1  0  -0.080699  -0.135333  0  3.962233  0
C  C53  1  0.10966153  0.45779686  0.36090798  1  0  -0.080048  -0.131445  0  3.959096  0
C  C54  1  0.40321798  0.25138133  0.86097286  1  0  -0.080646  -0.135268  0  3.962053  0
C  C55  1  0.89034414  0.54220569  0.63908995  1  0  -0.079991  -0.131335  0  3.958898  0
C  C56  1  0.86351433  0.76215017  0.95207473  1  0  -0.093914  0.040555  0  4.052307  0
C  C57  1  0.31016485  0.91151183  0.54810224  1  0  -0.093564  0.04031  0  4.050182  0
C  C58  1  0.13647720  0.23784983  0.04792208  1  0  -0.093941  0.040383  0  4.052606  0
C  C59  1  0.68983316  0.08848943  0.45189636  1  0  -0.093542  0.040312  0  4.050062  0
C  C60  1  0.70712803  0.69248236  0.97383182  1  0  -0.078155  -0.110913  0  3.932418  0
C  C61  1  0.21867220  0.73331306  0.52611517  1  0  -0.077639  -0.106563  0  3.929147  0
C  C62  1  0.29287375  0.30751277  0.02617414  1  0  -0.078102  -0.11076  0  3.93197  0
C  C63  1  0.78133072  0.26669312  0.47388321  1  0  -0.077722  -0.106565  0  3.929102  0
C  C64  1  0.64594407  0.91907732  0.99202212  1  0  -0.146402  -0.281704  0  3.950512  0
C  C65  1  0.42713274  0.65397371  0.50796209  1  0  -0.146735  -0.28275  0  3.950733  0
C  C66  1  0.35404901  0.08091900  0.00797863  1  0  -0.146414  -0.281764  0  3.950625  0
C  C67  1  0.57287252  0.34603248  0.49203722  1  0  -0.146673  -0.282702  0  3.95072  0
N  N68  1  0.70167166  0.81792897  0.07215530  1  0  -0.332688  -0.054487  0  3.515742  0
N  N69  1  0.24587547  0.62960796  0.42780389  1  0  -0.332454  -0.056949  0  3.51558  0
N  N70  1  0.29832535  0.18206372  0.92784644  1  0  -0.332763  -0.054584  0  3.51579  0
N  N71  1  0.75412606  0.37039335  0.57219318  1  0  -0.332456  -0.056935  0  3.515397  0
O  O72  1  0.86822750  0.84223024  0.39118161  1  0  -0.366702  -0.550122  0  2.263798  0
O  O73  1  0.95123683  0.47702660  0.10873623  1  0  -0.365956  -0.548777  0  2.262832  0
O  O74  1  0.13176996  0.15777218  0.60882182  1  0  -0.366681  -0.550082  0  2.263686  0
O  O75  1  0.04875939  0.52297348  0.89125660  1  0  -0.365918  -0.54875  0  2.262913  0
O  O76  1  0.02695621  0.84589289  0.09600330  1  0  -0.36017  -0.536482  0  2.274358  0
O  O77  1  0.25007472  0.93115866  0.40428116  1  0  -0.359898  -0.535626  0  2.271727  0
O  O78  1  0.97303736  0.15411323  0.90399234  1  0  -0.360125  -0.536391  0  2.274296  0
O  O79  1  0.74992713  0.06884991  0.59572010  1  0  -0.359929  -0.53569  0  2.27171  0
