# generated using pymatgen
data_ZnH6C9O4
_symmetry_space_group_name_H-M   'P 1'
_cell_length_a   4.59958151
_cell_length_b   11.90610099
_cell_length_c   15.39328504
_cell_angle_alpha   89.99984808
_cell_angle_beta   94.52222305
_cell_angle_gamma   89.99991435
_symmetry_Int_Tables_number   1
_chemical_formula_structural   ZnH6C9O4
_chemical_formula_sum   'Zn4 H24 C36 O16'
_cell_volume   840.35937701
_cell_formula_units_Z   4
loop_
 _symmetry_equiv_pos_site_id
 _symmetry_equiv_pos_as_xyz
  1  'x, y, z'
loop_
 _atom_site_type_symbol
 _atom_site_label
 _atom_site_symmetry_multiplicity
 _atom_site_fract_x
 _atom_site_fract_y
 _atom_site_fract_z
 _atom_site_occupancy
 _atom_site_pbe_bader_spin_density
 _atom_site_pbe_cm5_charge
 _atom_site_pbe_ddec_charge
 _atom_site_pbe_ddec_spin_density
 _atom_site_pbe_ddec_sum_bond_order
 _atom_site_pbe_magmom
Zn  Zn0  1  0.31302569  0.12825432  0.49393027  1  0  0.712645  0.985417  0  2.266851  0
Zn  Zn1  1  0.68697596  0.62825332  0.00606957  1  0  0.712629  0.985367  0  2.266926  0
Zn  Zn2  1  0.68697882  0.87174780  0.50606901  1  0  0.71263  0.985404  0  2.266859  0
Zn  Zn3  1  0.31302421  0.37174711  0.99393221  1  0  0.712634  0.985389  0  2.266839  0
H  H4  1  0.18851006  0.40995284  0.46155832  1  0  0.101158  0.098595  0  1.041566  0
H  H5  1  0.81149037  0.90995503  0.03844352  1  0  0.101158  0.098595  0  1.041636  0
H  H6  1  0.81150538  0.59004339  0.53844316  1  0  0.101135  0.098532  0  1.041709  0
H  H7  1  0.18850325  0.09004373  0.96155616  1  0  0.101156  0.098591  0  1.041628  0
H  H8  1  0.12197838  0.57165442  0.21049290  1  0  0.105418  0.116397  0  1.005025  0
H  H9  1  0.87802135  0.07165579  0.28950767  1  0  0.105443  0.11641  0  1.005004  0
H  H10  1  0.87802179  0.42834601  0.78950823  1  0  0.105425  0.116428  0  1.004988  0
H  H11  1  0.12197444  0.92834548  0.71049141  1  0  0.105436  0.116417  0  1.004994  0
H  H12  1  0.58266726  0.28629883  0.25713416  1  0  0.111064  0.119409  0  1.00999  0
H  H13  1  0.41733588  0.78629886  0.24286605  1  0  0.111057  0.119382  0  1.009978  0
H  H14  1  0.41734164  0.71370161  0.74286782  1  0  0.111052  0.11938  0  1.009963  0
H  H15  1  0.58265556  0.21370158  0.75713358  1  0  0.111044  0.119374  0  1.009959  0
H  H16  1  0.28829440  0.67427207  0.37595120  1  0  0.092635  0.142312  0  1.012251  0
H  H17  1  0.71169832  0.17427326  0.12404771  1  0  0.09264  0.142317  0  1.012229  0
H  H18  1  0.71170357  0.32572417  0.62404729  1  0  0.09265  0.142343  0  1.01221  0
H  H19  1  0.28830183  0.82572466  0.87595148  1  0  0.092654  0.142329  0  1.012224  0
H  H20  1  0.57802770  0.59818754  0.33406982  1  0  0.091469  0.13392  0  1.014409  0
H  H21  1  0.42196536  0.09819043  0.16592925  1  0  0.091465  0.133914  0  1.014375  0
H  H22  1  0.42197681  0.40181122  0.66592881  1  0  0.091447  0.133899  0  1.014425  0
H  H23  1  0.57802606  0.90181169  0.83406909  1  0  0.091459  0.133913  0  1.014438  0
H  H24  1  0.47895882  0.57206296  0.44150128  1  0  0.086226  0.119352  0  1.032774  0
H  H25  1  0.52104309  0.07206364  0.05849934  1  0  0.086215  0.119335  0  1.032778  0
H  H26  1  0.52104570  0.42793580  0.55849865  1  0  0.086215  0.119332  0  1.032769  0
H  H27  1  0.47895925  0.92793595  0.94149989  1  0  0.086219  0.119354  0  1.032779  0
C  C28  1  0.79095862  0.24991629  0.42594903  1  0  0.227559  0.606513  0  4.152209  0
C  C29  1  0.20903813  0.74991702  0.07404981  1  0  0.227551  0.606457  0  4.152291  0
C  C30  1  0.20904154  0.75008582  0.57405080  1  0  0.227622  0.606612  0  4.15209  0
C  C31  1  0.79095766  0.25008593  0.92594928  1  0  0.227624  0.606614  0  4.152124  0
C  C32  1  0.09506123  0.41643705  0.39450724  1  0  -0.075454  -0.134677  0  3.910429  0
C  C33  1  0.90493697  0.91643812  0.10549324  1  0  -0.075447  -0.134695  0  3.910453  0
C  C34  1  0.90494329  0.58356170  0.60549204  1  0  -0.075399  -0.134488  0  3.910311  0
C  C35  1  0.09505884  0.08356148  0.89450780  1  0  -0.075383  -0.134484  0  3.910396  0
C  C36  1  0.05652560  0.50677502  0.25494059  1  0  -0.071512  -0.124689  0  3.873258  0
C  C37  1  0.94347007  0.00677651  0.24506002  1  0  -0.071609  -0.124778  0  3.873291  0
C  C38  1  0.94347457  0.49322373  0.74505989  1  0  -0.071599  -0.124882  0  3.87312  0
C  C39  1  0.05652356  0.99322393  0.75494031  1  0  -0.0716  -0.124824  0  3.873032  0
C  C40  1  0.75332535  0.34494850  0.27992345  1  0  -0.072001  -0.099561  0  3.918592  0
C  C41  1  0.24667754  0.84495123  0.22007728  1  0  -0.071982  -0.099454  0  3.918559  0
C  C42  1  0.24667483  0.65505025  0.72007833  1  0  -0.072014  -0.099564  0  3.918684  0
C  C43  1  0.75332262  0.15505005  0.77992255  1  0  -0.071971  -0.099436  0  3.918591  0
C  C44  1  0.18009023  0.50324808  0.34093755  1  0  -0.004299  0.168839  0  3.979517  0
C  C45  1  0.81990327  0.00324909  0.15906367  1  0  -0.004243  0.168951  0  3.979406  0
C  C46  1  0.81991867  0.49674984  0.65906378  1  0  -0.00432  0.168796  0  3.979486  0
C  C47  1  0.18008163  0.99675051  0.84093647  1  0  -0.004328  0.168768  0  3.979539  0
C  C48  1  0.88414981  0.33758403  0.36480859  1  0  -0.019981  -0.04583  0  4.004056  0
C  C49  1  0.11584874  0.83758544  0.13519141  1  0  -0.019974  -0.045828  0  4.00403  0
C  C50  1  0.11585036  0.66241641  0.63519190  1  0  -0.019997  -0.045942  0  4.003953  0
C  C51  1  0.88415360  0.16241499  0.86480847  1  0  -0.020058  -0.046046  0  4.004075  0
C  C52  1  0.39300237  0.59141116  0.37473777  1  0  -0.242021  -0.415389  0  3.938795  0
C  C53  1  0.60699509  0.09141325  0.12526206  1  0  -0.242044  -0.415423  0  3.938786  0
C  C54  1  0.60700433  0.40858591  0.62526156  1  0  -0.242027  -0.415398  0  3.93874  0
C  C55  1  0.39300071  0.90858719  0.87473767  1  0  -0.242037  -0.415399  0  3.938769  0
C  C56  1  0.70872565  0.43935247  0.13366515  1  0  0.229941  0.609923  0  4.143895  0
C  C57  1  0.29127681  0.93935383  0.36633537  1  0  0.229992  0.61005  0  4.143794  0
C  C58  1  0.29127452  0.56064713  0.86633533  1  0  0.229963  0.610049  0  4.143743  0
C  C59  1  0.70872117  0.06064745  0.63366506  1  0  0.229978  0.610129  0  4.143774  0
C  C60  1  0.84398904  0.42883582  0.22442341  1  0  -0.016453  -0.036581  0  3.98131  0
C  C61  1  0.15601565  0.92883672  0.27557719  1  0  -0.01646  -0.036674  0  3.981414  0
C  C62  1  0.15601985  0.57116546  0.77557792  1  0  -0.016368  -0.036417  0  3.981047  0
C  C63  1  0.84397579  0.07116539  0.72442244  1  0  -0.016416  -0.036599  0  3.981077  0
O  O64  1  0.95686700  0.22323485  0.49334209  1  0  -0.3273  -0.570983  0  2.34178  0
O  O65  1  0.04312769  0.72323842  0.00665740  1  0  -0.327282  -0.570931  0  2.341807  0
O  O66  1  0.04313316  0.77676559  0.50665774  1  0  -0.327291  -0.570984  0  2.341819  0
O  O67  1  0.95686811  0.27676369  0.99334233  1  0  -0.327303  -0.570997  0  2.341775  0
O  O68  1  0.53682191  0.20850737  0.40860580  1  0  -0.308594  -0.547681  0  2.351243  0
O  O69  1  0.46317720  0.70850706  0.09139318  1  0  -0.308594  -0.547659  0  2.351218  0
O  O70  1  0.46318696  0.79149306  0.59139358  1  0  -0.30863  -0.54772  0  2.351169  0
O  O71  1  0.53681424  0.29149254  0.90860645  1  0  -0.30861  -0.547698  0  2.351261  0
O  O72  1  0.47630854  0.38277821  0.11361132  1  0  -0.302425  -0.535209  0  2.363855  0
O  O73  1  0.52369417  0.88277937  0.38638868  1  0  -0.302449  -0.535291  0  2.363823  0
O  O74  1  0.52369163  0.61721970  0.88638982  1  0  -0.302429  -0.535271  0  2.36383  0
O  O75  1  0.47630163  0.11722023  0.61361105  1  0  -0.302432  -0.535304  0  2.363793  0
O  O76  1  0.83264844  0.50389926  0.08168878  1  0  -0.318073  -0.59005  0  2.449021  0
O  O77  1  0.16735376  0.00390144  0.41831003  1  0  -0.318068  -0.590068  0  2.448966  0
O  O78  1  0.16735173  0.49610201  0.91831235  1  0  -0.318083  -0.590116  0  2.448916  0
O  O79  1  0.83264422  0.99610152  0.58168910  1  0  -0.318051  -0.590085  0  2.448996  0
