# generated using pymatgen
data_SrH13Au2C19N7O
_symmetry_space_group_name_H-M   'P 1'
_cell_length_a   9.82219827
_cell_length_b   10.14550161
_cell_length_c   11.65279524
_cell_angle_alpha   96.67262886
_cell_angle_beta   92.39866099
_cell_angle_gamma   113.05080169
_symmetry_Int_Tables_number   1
_chemical_formula_structural   SrH13Au2C19N7O
_chemical_formula_sum   'Sr2 H26 Au4 C38 N14 O2'
_cell_volume   1056.40461212
_cell_formula_units_Z   2
loop_
 _symmetry_equiv_pos_site_id
 _symmetry_equiv_pos_as_xyz
  1  'x, y, z'
loop_
 _atom_site_type_symbol
 _atom_site_label
 _atom_site_symmetry_multiplicity
 _atom_site_fract_x
 _atom_site_fract_y
 _atom_site_fract_z
 _atom_site_occupancy
 _atom_site_hle17_bader_spin_density
 _atom_site_hle17_ddec_charge
 _atom_site_hle17_ddec_spin_density
 _atom_site_hle17_ddec_sum_bond_order
 _atom_site_hle17_magmom
 _atom_site_hse06_10hf_bader_spin_density
 _atom_site_hse06_10hf_ddec_charge
 _atom_site_hse06_10hf_ddec_spin_density
 _atom_site_hse06_10hf_ddec_sum_bond_order
 _atom_site_hse06_10hf_magmom
 _atom_site_hse06_bader_spin_density
 _atom_site_hse06_ddec_charge
 _atom_site_hse06_ddec_spin_density
 _atom_site_hse06_ddec_sum_bond_order
 _atom_site_hse06_magmom
 _atom_site_pbe_bader_spin_density
 _atom_site_pbe_cm5_charge
 _atom_site_pbe_ddec_charge
 _atom_site_pbe_ddec_spin_density
 _atom_site_pbe_ddec_sum_bond_order
 _atom_site_pbe_magmom
Sr  Sr0  1  0.53694990  0.22700069  0.70974189  1  0  1.467708  0  1.276111  0  0  1.287684  0  1.671904  0  0  1.325239  0  1.63516  0  0  1.01926  1.261341  0  1.696831  0
Sr  Sr1  1  0.46305079  0.77300041  0.29025790  1  0  1.467735  0  1.27605  0  0  1.287716  0  1.671845  0  0  1.325271  0  1.635103  0  0  1.019239  1.261368  0  1.696772  0
H  H2  1  0.50176038  0.89972603  0.60591179  1  0  0.417019  0  0.883499  0  0  0.388734  0  0.943622  0  0  0.397385  0  0.931174  0  0  0.302551  0.383213  0  0.95157  0
H  H3  1  0.49824368  0.10027827  0.39408670  1  0  0.417037  0  0.883474  0  0  0.388749  0  0.943603  0  0  0.3974  0  0.931156  0  0  0.302573  0.383228  0  0.951551  0
H  H4  1  0.34943192  0.91016995  0.60983995  1  0  0.41182  0  0.868823  0  0  0.385618  0  0.941199  0  0  0.392964  0  0.930698  0  0  0.305753  0.380572  0  0.948376  0
H  H5  1  0.65057216  0.08983437  0.39016112  1  0  0.411803  0  0.868884  0  0  0.385638  0  0.941148  0  0  0.392983  0  0.930647  0  0  0.305787  0.380599  0  0.948316  0
H  H6  1  0.84692099  0.15804811  0.76788207  1  0  0.0732  0  0.973828  0  0  0.075481  0  1.049981  0  0  0.078263  0  1.047508  0  0  0.109055  0.073236  0  1.052588  0
H  H7  1  0.15307654  0.84195518  0.23211696  1  0  0.073197  0  0.9738  0  0  0.075528  0  1.049902  0  0  0.078311  0  1.04743  0  0  0.109062  0.073279  0  1.052513  0
H  H8  1  0.00335399  0.10809519  0.91732591  1  0  0.099104  0  0.960249  0  0  0.108239  0  1.023619  0  0  0.110594  0  1.02441  0  0  0.102891  0.107992  0  1.020247  0
H  H9  1  0.99664567  0.89190589  0.08267127  1  0  0.099091  0  0.960323  0  0  0.108203  0  1.023717  0  0  0.110567  0  1.024478  0  0  0.102879  0.107956  0  1.020344  0
H  H10  1  0.92488704  0.09895254  0.12201222  1  0  0.090146  0  0.959969  0  0  0.10019  0  1.023412  0  0  0.102518  0  1.021912  0  0  0.101632  0.097941  0  1.025461  0
H  H11  1  0.07511217  0.90104747  0.87798569  1  0  0.09014  0  0.959958  0  0  0.10017  0  1.02342  0  0  0.102499  0  1.021918  0  0  0.10163  0.097922  0  1.025468  0
H  H12  1  0.70261852  0.14447057  0.16605037  1  0  0.113319  0  0.963099  0  0  0.122181  0  1.02645  0  0  0.125668  0  1.02479  0  0  0.111444  0.119769  0  1.027259  0
H  H13  1  0.29738059  0.85553161  0.83394861  1  0  0.113294  0  0.963091  0  0  0.122155  0  1.026443  0  0  0.125644  0  1.024781  0  0  0.111433  0.119741  0  1.027259  0
H  H14  1  0.50310217  0.15008937  0.18515175  1  0  0.113323  0  0.976831  0  0  0.122436  0  1.039107  0  0  0.125906  0  1.037563  0  0  0.108332  0.119883  0  1.040309  0
H  H15  1  0.49689963  0.84990954  0.81484787  1  0  0.113335  0  0.976785  0  0  0.122451  0  1.039063  0  0  0.125921  0  1.03752  0  0  0.108332  0.119898  0  1.040265  0
H  H16  1  0.30261359  0.23711767  0.22287077  1  0  0.085645  0  0.967498  0  0  0.092837  0  1.036883  0  0  0.095156  0  1.035267  0  0  0.097091  0.091163  0  1.03824  0
H  H17  1  0.69738630  0.76287910  0.77713029  1  0  0.085626  0  0.967502  0  0  0.092813  0  1.036896  0  0  0.095133  0  1.035278  0  0  0.09707  0.091141  0  1.03825  0
H  H18  1  0.22221118  0.35446251  0.07596743  1  0  0.10614  0  0.969209  0  0  0.115128  0  1.031752  0  0  0.118324  0  1.030449  0  0  0.107878  0.113928  0  1.030081  0
H  H19  1  0.77778669  0.64553429  0.92403443  1  0  0.106125  0  0.969217  0  0  0.115091  0  1.031779  0  0  0.118285  0  1.030475  0  0  0.107872  0.11389  0  1.030111  0
H  H20  1  0.15253365  0.43290728  0.95015110  1  0  0.101932  0  0.952891  0  0  0.116168  0  1.005351  0  0  0.119333  0  1.004475  0  0  0.107266  0.113674  0  1.006589  0
H  H21  1  0.84746761  0.56709275  0.04985118  1  0  0.101902  0  0.952956  0  0  0.116125  0  1.005432  0  0  0.119289  0  1.00456  0  0  0.10725  0.113631  0  1.006673  0
H  H22  1  0.08349582  0.54508478  0.79168228  1  0  0.08996  0  0.952771  0  0  0.100556  0  1.012853  0  0  0.102723  0  1.01223  0  0  0.101505  0.09903  0  1.013259  0
H  H23  1  0.91650250  0.45491310  0.20831969  1  0  0.089966  0  0.952746  0  0  0.100511  0  1.012886  0  0  0.102678  0  1.012264  0  0  0.101485  0.098986  0  1.013292  0
H  H24  1  0.22812155  0.57663290  0.61640261  1  0  0.0917  0  0.987756  0  0  0.095322  0  1.063343  0  0  0.098817  0  1.060921  0  0  0.089208  0.092755  0  1.06535  0
H  H25  1  0.77187520  0.42336608  0.38359856  1  0  0.091701  0  0.987737  0  0  0.095321  0  1.063324  0  0  0.098816  0  1.060902  0  0  0.089227  0.092758  0  1.065329  0
H  H26  1  0.42406345  0.47748064  0.60326294  1  0  0.077421  0  0.929035  0  0  0.085842  0  0.991196  0  0  0.088095  0  0.989937  0  0  0.12056  0.084135  0  0.992257  0
H  H27  1  0.57593734  0.52251827  0.39673664  1  0  0.077463  0  0.929048  0  0  0.085863  0  0.991222  0  0  0.088118  0  0.98996  0  0  0.120578  0.084157  0  0.992282  0
Au  Au28  1  0.98837775  0.66127665  0.56347637  1  0  0.073859  0  2.589582  0  0  0.03279  0  3.099233  0  0  0.038279  0  3.066085  0  0  0.285187  0.027194  0  3.120978  0
Au  Au29  1  0.01162203  0.33872227  0.43652232  1  0  0.073875  0  2.589395  0  0  0.032789  0  3.099052  0  0  0.038279  0  3.065912  0  0  0.285178  0.027193  0  3.1208  0
Au  Au30  1  0.08975406  0.07429126  0.38432372  1  0  0.079501  0  2.565961  0  0  0.030025  0  3.084139  0  0  0.037059  0  3.048475  0  0  0.283663  0.02769  0  3.104603  0
Au  Au31  1  0.91024535  0.92570438  0.61567207  1  0  0.079554  0  2.565885  0  0  0.030085  0  3.084048  0  0  0.03712  0  3.048377  0  0  0.2837  0.027749  0  3.104512  0
C  C32  1  0.83749472  0.55703655  0.66402378  1  0  0.057642  0  3.651107  0  0  0.058986  0  3.992773  0  0  0.064465  0  4.003805  0  0  -0.002854  0.055093  0  3.987015  0
C  C33  1  0.16249949  0.44296127  0.33596775  1  0  0.057594  0  3.651226  0  0  0.058947  0  3.99289  0  0  0.064423  0  4.003926  0  0  -0.002818  0.055051  0  3.987137  0
C  C34  1  0.14912455  0.75595677  0.46721259  1  0  0.052235  0  3.665731  0  0  0.052771  0  4.012447  0  0  0.059202  0  4.021272  0  0  -0.001037  0.04863  0  4.00433  0
C  C35  1  0.85087163  0.24404331  0.53278952  1  0  0.052178  0  3.665874  0  0  0.052705  0  4.012607  0  0  0.059139  0  4.021431  0  0  -0.001081  0.048567  0  4.004495  0
C  C36  1  0.29894255  0.16878115  0.45063972  1  0  0.098622  0  3.607411  0  0  0.094654  0  3.949389  0  0  0.101719  0  3.95838  0  0  0.02031  0.089638  0  3.943505  0
C  C37  1  0.70105985  0.83121671  0.54936411  1  0  0.098677  0  3.607328  0  0  0.094715  0  3.949306  0  0  0.10178  0  3.958292  0  0  0.020296  0.089691  0  3.943432  0
C  C38  1  0.81919068  0.15573250  0.85764569  1  0  0.131617  0  3.727331  0  0  0.106071  0  3.979026  0  0  0.11186  0  3.996878  0  0  0.050326  0.101116  0  3.970035  0
C  C39  1  0.18080833  0.84427187  0.14235435  1  0  0.131547  0  3.727297  0  0  0.10597  0  3.978981  0  0  0.111756  0  3.996837  0  0  0.050253  0.101016  0  3.969985  0
C  C40  1  0.88182058  0.97593968  0.31550499  1  0  0.038943  0  3.662646  0  0  0.042033  0  4.010994  0  0  0.047281  0  4.02068  0  0  -0.010891  0.038353  0  4.003143  0
C  C41  1  0.11818850  0.02405472  0.68448672  1  0  0.038852  0  3.662377  0  0  0.041938  0  4.010736  0  0  0.04719  0  4.02041  0  0  -0.010955  0.038261  0  4.002884  0
C  C42  1  0.90554532  0.12672715  0.94112391  1  0  -0.130793  0  3.753106  0  0  -0.142213  0  4.002517  0  0  -0.149196  0  4.025496  0  0  -0.087391  -0.138101  0  3.98621  0
C  C43  1  0.09445480  0.87327502  0.05887424  1  0  -0.130726  0  3.753127  0  0  -0.142134  0  4.002538  0  0  -0.149112  0  4.025525  0  0  -0.087318  -0.138022  0  3.986229  0
C  C44  1  0.86244560  0.12224108  0.05346419  1  0  -0.003075  0  3.731796  0  0  -0.020255  0  3.977007  0  0  -0.017545  0  3.996976  0  0  -0.068849  -0.021557  0  3.962528  0
C  C45  1  0.13755351  0.87776112  0.94653565  1  0  -0.003042  0  3.731829  0  0  -0.020207  0  3.977023  0  0  -0.017499  0  3.996994  0  0  -0.068826  -0.02151  0  3.962544  0
C  C46  1  0.73683318  0.14810250  0.07844259  1  0  -0.140236  0  3.688057  0  0  -0.159607  0  3.936201  0  0  -0.166395  0  3.957516  0  0  -0.076555  -0.15348  0  3.920466  0
C  C47  1  0.26316650  0.85189860  0.92155716  1  0  -0.140224  0  3.688158  0  0  -0.159587  0  3.936307  0  0  -0.166378  0  3.957624  0  0  -0.07657  -0.153461  0  3.920572  0
C  C48  1  0.65759624  0.18021126  0.99046524  1  0  0.177067  0  3.748944  0  0  0.17575  0  3.990502  0  0  0.181911  0  4.010582  0  0  0.125812  0.171281  0  3.977704  0
C  C49  1  0.34240196  0.81978877  0.00953350  1  0  0.177096  0  3.748964  0  0  0.175769  0  3.990552  0  0  0.181932  0  4.010631  0  0  0.125809  0.171297  0  3.977752  0
C  C50  1  0.52898732  0.21918945  0.01435062  1  0  0.180239  0  3.762761  0  0  0.178997  0  4.009341  0  0  0.184917  0  4.029497  0  0  0.125999  0.174753  0  3.996831  0
C  C51  1  0.47101540  0.78081163  0.98565095  1  0  0.180225  0  3.762663  0  0  0.178962  0  4.009286  0  0  0.18488  0  4.029445  0  0  0.125981  0.174719  0  3.996776  0
C  C52  1  0.46520539  0.19997144  0.11995618  1  0  -0.136385  0  3.678579  0  0  -0.157304  0  3.925563  0  0  -0.163986  0  3.947994  0  0  -0.078939  -0.152277  0  3.910935  0
C  C53  1  0.53479732  0.80002964  0.88004453  1  0  -0.136414  0  3.678575  0  0  -0.157337  0  3.92558  0  0  -0.164018  0  3.948012  0  0  -0.078947  -0.15231  0  3.910952  0
C  C54  1  0.35242865  0.24743179  0.14076277  1  0  0.012127  0  3.725056  0  0  -0.002643  0  3.974421  0  0  -0.000511  0  3.994829  0  0  -0.066387  -0.004716  0  3.96061  0
C  C55  1  0.64757124  0.75256498  0.85923829  1  0  0.012091  0  3.725135  0  0  -0.002672  0  3.974495  0  0  -0.000541  0  3.994903  0  0  -0.066369  -0.004746  0  3.960684  0
C  C56  1  0.30565842  0.31172439  0.05709235  1  0  -0.131926  0  3.680952  0  0  -0.156031  0  3.93466  0  0  -0.161891  0  3.954816  0  0  -0.074926  -0.149441  0  3.916482  0
C  C57  1  0.69434138  0.68827457  0.94290977  1  0  -0.131853  0  3.680977  0  0  -0.155948  0  3.93468  0  0  -0.161805  0  3.954836  0  0  -0.074917  -0.149359  0  3.916502  0
C  C58  1  0.37083462  0.32404799  0.95192860  1  0  0.189373  0  3.743256  0  0  0.186171  0  3.992976  0  0  0.192785  0  4.011244  0  0  0.128743  0.180834  0  3.981169  0
C  C59  1  0.62916562  0.67595205  0.04807364  1  0  0.189322  0  3.743274  0  0  0.186165  0  3.992935  0  0  0.192778  0  4.011204  0  0  0.128728  0.180828  0  3.981129  0
C  C60  1  0.32452247  0.39242223  0.85966774  1  0  0.186072  0  3.736006  0  0  0.183526  0  3.979264  0  0  0.189958  0  3.998807  0  0  0.126874  0.179054  0  3.966957  0
C  C61  1  0.67547878  0.60757779  0.14033368  1  0  0.186223  0  3.735865  0  0  0.183674  0  3.979113  0  0  0.190106  0  3.998651  0  0  0.12695  0.1792  0  3.966805  0
C  C62  1  0.21122474  0.44329196  0.87235619  1  0  -0.13982  0  3.694306  0  0  -0.15781  0  3.938306  0  0  -0.1646  0  3.95978  0  0  -0.079998  -0.153803  0  3.925257  0
C  C63  1  0.78877686  0.55671132  0.12764555  1  0  -0.139882  0  3.694317  0  0  -0.15788  0  3.938327  0  0  -0.164671  0  3.9598  0  0  -0.080017  -0.153874  0  3.925277  0
C  C64  1  0.17302505  0.50749982  0.78404333  1  0  -0.009586  0  3.745988  0  0  -0.025124  0  3.991175  0  0  -0.02307  0  4.012341  0  0  -0.072105  -0.025759  0  3.976628  0
C  C65  1  0.82697610  0.49250238  0.21595829  1  0  -0.009463  0  3.745901  0  0  -0.024943  0  3.991067  0  0  -0.022888  0  4.012232  0  0  -0.072042  -0.025579  0  3.976522  0
C  C66  1  0.25152438  0.52361852  0.68619191  1  0  -0.122048  0  3.751331  0  0  -0.13328  0  4.004522  0  0  -0.140357  0  4.026684  0  0  -0.089395  -0.128934  0  3.988905  0
C  C67  1  0.74847495  0.47637935  0.31380924  1  0  -0.122126  0  3.751303  0  0  -0.133353  0  4.004486  0  0  -0.140431  0  4.026648  0  0  -0.089419  -0.12901  0  3.988869  0
C  C68  1  0.36149876  0.46916549  0.67928183  1  0  0.142124  0  3.72097  0  0  0.114203  0  3.975458  0  0  0.119801  0  3.994528  0  0  0.056878  0.111386  0  3.961709  0
C  C69  1  0.63850001  0.53083346  0.32071940  1  0  0.142136  0  3.720958  0  0  0.114232  0  3.975452  0  0  0.119831  0  3.994518  0  0  0.056868  0.111414  0  3.961706  0
N  N70  1  0.75032620  0.48954880  0.72302400  1  0  -0.475298  0  2.857858  0  0  -0.418738  0  3.106154  0  0  -0.434489  0  3.122761  0  0  -0.40592  -0.408933  0  3.096254  0
N  N71  1  0.24966738  0.51045235  0.27697383  1  0  -0.475232  0  2.858063  0  0  -0.418676  0  3.106362  0  0  -0.434418  0  3.122968  0  0  -0.405936  -0.408868  0  3.096461  0
N  N72  1  0.25053498  0.80869392  0.41394512  1  0  -0.483622  0  2.889527  0  0  -0.425323  0  3.137824  0  0  -0.441529  0  3.153917  0  0  -0.394681  -0.413224  0  3.125773  0
N  N73  1  0.74946653  0.19131154  0.58605768  1  0  -0.48358  0  2.889711  0  0  -0.425281  0  3.138019  0  0  -0.441489  0  3.154106  0  0  -0.394659  -0.413188  0  3.125971  0
N  N74  1  0.42320979  0.22126746  0.49110607  1  0  -0.508751  0  2.850954  0  0  -0.44454  0  3.087629  0  0  -0.461148  0  3.102204  0  0  -0.39819  -0.43396  0  3.078473  0
N  N75  1  0.57678786  0.77873369  0.50889534  1  0  -0.508838  0  2.850758  0  0  -0.444633  0  3.087439  0  0  -0.461243  0  3.102014  0  0  -0.398204  -0.434051  0  3.078285  0
N  N76  1  0.69888289  0.18227366  0.88098109  1  0  -0.387611  0  3.139546  0  0  -0.329072  0  3.389504  0  0  -0.343424  0  3.406271  0  0  -0.36397  -0.320348  0  3.379624  0
N  N77  1  0.30111813  0.81773068  0.11901730  1  0  -0.38762  0  3.139596  0  0  -0.329077  0  3.389569  0  0  -0.34343  0  3.406336  0  0  -0.363939  -0.32035  0  3.379683  0
N  N78  1  0.75631800  0.92296323  0.27921161  1  0  -0.458136  0  2.898835  0  0  -0.402452  0  3.146776  0  0  -0.418777  0  3.167356  0  0  -0.39374  -0.390759  0  3.132437  0
N  N79  1  0.24368795  0.07703342  0.72078450  1  0  -0.45802  0  2.898709  0  0  -0.402321  0  3.146638  0  0  -0.418647  0  3.167213  0  0  -0.393676  -0.390632  0  3.132295  0
N  N80  1  0.48017606  0.27742035  0.93167382  1  0  -0.407462  0  3.132752  0  0  -0.363016  0  3.391088  0  0  -0.376634  0  3.406824  0  0  -0.353838  -0.354834  0  3.382504  0
N  N81  1  0.51982418  0.72257967  0.06832757  1  0  -0.407459  0  3.132709  0  0  -0.363016  0  3.39104  0  0  -0.376635  0  3.40678  0  0  -0.353876  -0.354832  0  3.38245  0
N  N82  1  0.39609853  0.40361752  0.76232910  1  0  -0.385653  0  3.17749  0  0  -0.333411  0  3.438025  0  0  -0.347808  0  3.455891  0  0  -0.361461  -0.323987  0  3.425891  0
N  N83  1  0.60390080  0.59638034  0.23767118  1  0  -0.385748  0  3.177461  0  0  -0.333498  0  3.43798  0  0  -0.347906  0  3.455874  0  0  -0.361488  -0.324075  0  3.425846  0
O  O84  1  0.44721700  0.94571976  0.65330591  1  0  -0.837522  0  1.849259  0  0  -0.781655  0  2.026222  0  0  -0.798946  0  2.00007  0  0  -0.607084  -0.769609  0  2.043319  0
O  O85  1  0.55278764  0.05428347  0.34669507  1  0  -0.83749  0  1.849352  0  0  -0.781644  0  2.026292  0  0  -0.798931  0  2.000134  0  0  -0.607129  -0.769605  0  2.04338  0
