# generated using pymatgen
data_NiH15C23(NO2)2
_symmetry_space_group_name_H-M   'P 1'
_cell_length_a   12.94091330
_cell_length_b   12.94094989
_cell_length_c   14.96473112
_cell_angle_alpha   67.14658589
_cell_angle_beta   67.14618170
_cell_angle_gamma   62.70855933
_symmetry_Int_Tables_number   1
_chemical_formula_structural   NiH15C23(NO2)2
_chemical_formula_sum   'Ni4 H60 C92 N8 O16'
_cell_volume   1983.48750537
_cell_formula_units_Z   4
loop_
 _symmetry_equiv_pos_site_id
 _symmetry_equiv_pos_as_xyz
  1  'x, y, z'
loop_
 _atom_site_type_symbol
 _atom_site_label
 _atom_site_symmetry_multiplicity
 _atom_site_fract_x
 _atom_site_fract_y
 _atom_site_fract_z
 _atom_site_occupancy
 _atom_site_pbe_bader_charge
 _atom_site_pbe_bader_spin_density
 _atom_site_pbe_cm5_charge
 _atom_site_pbe_ddec_charge
 _atom_site_pbe_ddec_spin_density
 _atom_site_pbe_ddec_sum_bond_order
 _atom_site_pbe_magmom
Ni  Ni0  1  0.58842250  0.02880865  0.84854159  1  1.187035  1.562214  0.658671  0.779518  1.778807  2.462826  1.546
Ni  Ni1  1  0.97119172  0.41157596  0.65145694  1  1.187057  1.562207  0.658689  0.779566  1.778805  2.462766  1.546
Ni  Ni2  1  0.41157643  0.97118987  0.15145985  1  1.187162  1.562211  0.658691  0.779617  1.778805  2.462793  1.546
Ni  Ni3  1  0.02880541  0.58842320  0.34854222  1  1.187337  1.562191  0.658685  0.779548  1.778801  2.462734  1.546
H  H4  1  0.74179728  0.18383392  0.87013279  1  0.134896  0.000495  0.110767  0.126168  0.000361  1.027324  0.0
H  H5  1  0.81616131  0.25820211  0.62986581  1  0.134924  0.000495  0.110755  0.126156  0.000361  1.027286  0.0
H  H6  1  0.25820256  0.81616344  0.12986807  1  0.135011  0.000495  0.110794  0.126197  0.000361  1.027279  0.0
H  H7  1  0.18383492  0.74179906  0.37013231  1  0.134964  0.000495  0.110783  0.126151  0.000361  1.027251  0.0
H  H8  1  0.77342896  0.41236735  0.99609139  1  0.05652  0.000484  0.100325  0.104543  0.000334  1.027565  0.0
H  H9  1  0.58762747  0.22657463  0.50390507  1  0.05642  0.000484  0.100293  0.104561  0.000333  1.027496  0.0
H  H10  1  0.22657086  0.58763169  0.00390757  1  0.056501  0.000484  0.100304  0.104518  0.000334  1.02758  0.0
H  H11  1  0.41236604  0.77343170  0.49609290  1  0.05652  0.000484  0.1003  0.104556  0.000334  1.02754  0.0
H  H12  1  0.53383430  0.21595033  0.16896446  1  0.116973  0.000243  0.100422  0.109155  0.000119  1.036838  0.0
H  H13  1  0.78405080  0.46616442  0.33103591  1  0.11699  0.000243  0.100399  0.109128  0.000119  1.036832  0.0
H  H14  1  0.46616551  0.78404955  0.83103757  1  0.116995  0.000243  0.100438  0.109183  0.000119  1.036831  0.0
H  H15  1  0.21594901  0.53383631  0.66896182  1  0.117022  0.000243  0.100419  0.109146  0.000119  1.036809  0.0
H  H16  1  0.74378232  0.25621596  0.24999887  1  0.051386  6.9e-05  0.096896  0.097953  3.9e-05  1.025692  0.0
H  H17  1  0.25621841  0.74378276  0.74999723  1  0.051385  6.9e-05  0.096897  0.097938  3.9e-05  1.025723  0.0
H  H18  1  0.45260105  0.51883271  0.11681905  1  0.085284  3e-06  0.098105  0.103025  -2.4e-05  1.020608  0.0
H  H19  1  0.48117176  0.54739770  0.38318175  1  0.08526  3e-06  0.098122  0.103016  -2.4e-05  1.020622  0.0
H  H20  1  0.54739696  0.48117033  0.88318185  1  0.085244  3e-06  0.098089  0.102979  -2.4e-05  1.020674  0.0
H  H21  1  0.51883706  0.45259896  0.61681700  1  0.085251  3e-06  0.098112  0.102996  -2.4e-05  1.020631  0.0
H  H22  1  0.37455016  0.62545105  0.25000142  1  0.111195  0.000221  0.105444  0.109363  0.000215  1.026832  0.0
H  H23  1  0.62545145  0.37454902  0.75000061  1  0.111165  0.000221  0.105462  0.10944  0.000215  1.026836  0.0
H  H24  1  0.49469336  0.26803948  0.88486089  1  0.09295  0.001823  0.116205  0.085808  0.000559  1.034039  0.001
H  H25  1  0.73196240  0.50530527  0.61513852  1  0.092914  0.001823  0.116228  0.085834  0.000559  1.034003  0.001
H  H26  1  0.50530827  0.73195892  0.11513969  1  0.092865  0.001823  0.116199  0.085832  0.000559  1.034038  0.001
H  H27  1  0.26803921  0.49469649  0.38486027  1  0.092896  0.001823  0.116219  0.085819  0.000559  1.034  0.001
H  H28  1  0.30683840  0.44455950  0.89706680  1  0.097317  0.000847  0.100572  0.101874  0.000401  1.050827  0.0
H  H29  1  0.55544656  0.69315835  0.60293002  1  0.097336  0.000847  0.100573  0.101904  0.0004  1.050867  0.0
H  H30  1  0.69316321  0.55544142  0.10293227  1  0.097302  0.000847  0.100566  0.101892  0.000401  1.050807  0.0
H  H31  1  0.44455685  0.30684361  0.39706477  1  0.096831  0.000847  0.100575  0.101931  0.000401  1.050807  0.0
H  H32  1  0.14207310  0.25302709  0.84813891  1  0.091486  0.00088  0.111528  0.126248  0.000365  1.000746  0.0
H  H33  1  0.74697410  0.85792499  0.65186304  1  0.091555  0.00088  0.111532  0.126258  0.000365  1.000723  0.0
H  H34  1  0.85792942  0.74697182  0.15186053  1  0.091458  0.00088  0.111527  0.12624  0.000365  1.000771  0.0
H  H35  1  0.25302572  0.14207321  0.34813955  1  0.09152  0.00088  0.111536  0.126267  0.000365  1.000744  0.0
H  H36  1  0.34075931  0.08402158  0.83479269  1  0.096664  0.001883  0.117945  0.088726  0.000684  1.007879  0.001
H  H37  1  0.91597635  0.65923550  0.66521125  1  0.096327  0.001884  0.117963  0.088712  0.000684  1.007883  0.001
H  H38  1  0.65924142  0.91597629  0.16521037  1  0.096514  0.001883  0.117959  0.088699  0.000684  1.007878  0.001
H  H39  1  0.08402259  0.34076218  0.33479047  1  0.096545  0.001883  0.117978  0.088735  0.000684  1.007878  0.001
H  H40  1  0.02117924  0.44793146  0.86718399  1  0.134116  0.000114  0.106983  0.121154  9.3e-05  1.035763  0.0
H  H41  1  0.55206825  0.97881332  0.63281971  1  0.133945  0.000114  0.107007  0.121176  9.3e-05  1.03582  0.0
H  H42  1  0.97882328  0.55206914  0.13281154  1  0.134264  0.000114  0.106986  0.121141  9.3e-05  1.035827  0.0
H  H43  1  0.44793247  0.02118540  0.36718040  1  0.134022  0.000114  0.107014  0.121202  9.3e-05  1.035778  0.0
H  H44  1  0.14673281  0.59836048  0.87246153  1  0.055312  5.1e-05  0.096369  0.088667  4e-05  1.048499  0.0
H  H45  1  0.40164094  0.85327531  0.62752575  1  0.055584  5.1e-05  0.096383  0.088689  4e-05  1.048438  0.0
H  H46  1  0.85327061  0.40163896  0.12753676  1  0.055351  5.1e-05  0.096372  0.088684  4e-05  1.048503  0.0
H  H47  1  0.59835977  0.14672761  0.37247229  1  0.0555  5.1e-05  0.096365  0.088651  4e-05  1.048498  0.0
H  H48  1  0.03061973  0.81032621  0.85537862  1  0.061416  0.000983  0.104979  0.112183  0.000478  1.002849  0.0
H  H49  1  0.18967410  0.96938060  0.64461976  1  0.061329  0.000984  0.104966  0.112148  0.000478  1.002801  0.0
H  H50  1  0.96938098  0.18967503  0.14462065  1  0.061434  0.000983  0.104981  0.112175  0.000478  1.002791  0.0
H  H51  1  0.81032662  0.03062064  0.35537817  1  0.061311  0.000984  0.10498  0.112178  0.000478  1.002745  0.0
H  H52  1  0.83869464  0.98499827  0.83792081  1  0.128783  0.001748  0.12111  0.098869  0.000602  0.998075  0.001
H  H53  1  0.01499971  0.16130479  0.66208586  1  0.128739  0.001749  0.121117  0.098883  0.000602  0.998109  0.001
H  H54  1  0.16130427  0.01500276  0.16208648  1  0.128845  0.001748  0.121113  0.098896  0.000602  0.998109  0.001
H  H55  1  0.98500101  0.83869645  0.33791207  1  0.128779  0.001749  0.121106  0.098877  0.000602  0.998063  0.001
H  H56  1  0.67288290  0.76778228  0.85649096  1  0.119963  0.00138  0.116934  0.094438  0.000482  1.023854  0.001
H  H57  1  0.23222072  0.32711705  0.64350972  1  0.119931  0.00138  0.116936  0.094447  0.000482  1.02389  0.001
H  H58  1  0.32712320  0.23221955  0.14350564  1  0.119838  0.00138  0.116946  0.094436  0.000482  1.023933  0.001
H  H59  1  0.76777910  0.67288282  0.35649164  1  0.11994  0.001379  0.116937  0.09446  0.000482  1.023875  0.001
H  H60  1  0.85646415  0.58504252  0.87014754  1  0.104956  0.000859  0.108681  0.12146  0.000426  1.018675  0.0
H  H61  1  0.41496201  0.14353601  0.62984703  1  0.104905  0.000859  0.108695  0.121438  0.000426  1.018645  0.0
H  H62  1  0.14354285  0.41495983  0.12984190  1  0.104917  0.000859  0.108691  0.12146  0.000426  1.018601  0.0
H  H63  1  0.58503601  0.85646451  0.37015405  1  0.104891  0.000859  0.108678  0.121431  0.000426  1.018644  0.0
C  C64  1  0.58148903  0.10180217  0.03040377  1  1.5783  0.001169  0.211858  0.564087  0.000766  4.216606  0.001
C  C65  1  0.89819182  0.41851347  0.46959668  1  1.578039  0.001173  0.211892  0.564033  0.000766  4.216575  0.001
C  C66  1  0.41851171  0.89819402  0.96959851  1  1.57773  0.001172  0.211883  0.564036  0.000766  4.216616  0.001
C  C67  1  0.10180079  0.58149235  0.53040244  1  1.578017  0.001167  0.21191  0.564128  0.000765  4.216594  0.001
C  C68  1  0.63582065  0.18735076  0.02208307  1  -0.092841  0.012158  -0.020751  -0.032685  0.007197  3.981922  0.009
C  C69  1  0.81264647  0.36417933  0.47791788  1  -0.092839  0.012157  -0.020769  -0.032696  0.007196  3.981888  0.009
C  C70  1  0.36417738  0.81264808  0.97791856  1  -0.092785  0.012157  -0.020725  -0.032641  0.007196  3.981935  0.009
C  C71  1  0.18734796  0.63582248  0.52208196  1  -0.092875  0.012156  -0.020708  -0.032664  0.007196  3.981851  0.009
C  C72  1  0.71860565  0.21939593  0.93331947  1  -0.026547  0.001361  -0.076996  -0.112096  0.000714  3.908065  0.001
C  C73  1  0.78060060  0.28139365  0.56667820  1  -0.026148  0.001361  -0.076969  -0.112001  0.000715  3.908113  0.001
C  C74  1  0.28139328  0.78060175  0.06668092  1  -0.026454  0.001361  -0.077084  -0.112185  0.000715  3.908223  0.001
C  C75  1  0.21939292  0.71861017  0.43332061  1  -0.026066  0.001361  -0.077097  -0.11209  0.000714  3.908118  0.001
C  C76  1  0.76846709  0.29999126  0.92424117  1  -0.028161  0.005338  -0.019312  -0.020569  0.003355  3.990295  0.004
C  C77  1  0.70000661  0.23153036  0.57575741  1  -0.02812  0.005338  -0.019335  -0.020666  0.003355  3.990376  0.004
C  C78  1  0.23153365  0.70000578  0.07575950  1  -0.027993  0.005338  -0.019273  -0.020518  0.003355  3.990282  0.004
C  C79  1  0.29998601  0.76847378  0.42424293  1  -0.028099  0.005338  -0.019263  -0.02067  0.003355  3.990496  0.004
C  C80  1  0.73477204  0.34879570  0.00457879  1  -0.013605  0.000723  -0.084035  -0.149404  0.000325  3.9388  0.001
C  C81  1  0.65120173  0.26522796  0.49541889  1  -0.013667  0.000723  -0.084048  -0.149485  0.000326  3.93874  0.001
C  C82  1  0.26522869  0.65120302  0.99541998  1  -0.013699  0.000723  -0.084027  -0.149425  0.000326  3.938801  0.001
C  C83  1  0.34879449  0.73477489  0.50458000  1  -0.014287  0.000723  -0.084047  -0.149449  0.000325  3.938722  0.001
C  C84  1  0.64907524  0.32028853  0.09266799  1  -0.024903  0.001003  -0.011197  0.061241  0.000459  4.020121  0.001
C  C85  1  0.67971068  0.35092270  0.40732925  1  -0.024902  0.001003  -0.011196  0.061309  0.000459  4.020225  0.001
C  C86  1  0.35092368  0.67971167  0.90733155  1  -0.024859  0.001003  -0.011219  0.061261  0.000459  4.020163  0.001
C  C87  1  0.32029006  0.64907434  0.59266941  1  -0.024745  0.001003  -0.011233  0.061236  0.000459  4.020046  0.001
C  C88  1  0.60041387  0.23908033  0.10094758  1  -0.028673  0.000133  -0.081839  -0.133553  -0.000412  3.916756  0.0
C  C89  1  0.76091735  0.39958474  0.39905188  1  -0.028864  0.000133  -0.081786  -0.133516  -0.000412  3.916637  0.0
C  C90  1  0.39958415  0.76092103  0.89905188  1  -0.028959  0.000133  -0.081826  -0.133577  -0.000412  3.91672  0.0
C  C91  1  0.23908157  0.60041547  0.60094566  1  -0.028625  0.000133  -0.081799  -0.13349  -0.000412  3.916603  0.0
C  C92  1  0.85085872  0.33905147  0.82643976  1  1.514278  -0.004158  0.194523  0.541744  -0.005753  4.20411  -0.006
C  C93  1  0.66094551  0.14913896  0.67355760  1  1.515002  -0.004158  0.194488  0.541683  -0.005753  4.204397  -0.006
C  C94  1  0.14914021  0.66094621  0.17355928  1  1.514617  -0.004158  0.194457  0.541677  -0.005754  4.204305  -0.006
C  C95  1  0.33904891  0.85086368  0.32644464  1  1.514671  -0.004157  0.194567  0.541797  -0.005753  4.204292  -0.006
C  C96  1  0.60374382  0.38102908  0.17422141  1  -0.054673  0.000236  -0.009433  0.070633  0.000121  4.019856  0.0
C  C97  1  0.61897176  0.39625273  0.32577733  1  -0.054808  0.000236  -0.009421  0.070613  0.000121  4.019694  0.0
C  C98  1  0.39625421  0.61897060  0.82577794  1  -0.054755  0.000236  -0.009469  0.070553  0.000121  4.019617  0.0
C  C99  1  0.38102899  0.60374179  0.67422283  1  -0.054732  0.000236  -0.009461  0.070586  0.000121  4.019799  0.0
C  C100  1  0.66273822  0.33725797  0.25000043  1  -0.043291  3e-05  -0.095077  -0.20103  1.3e-05  3.977222  0.0
C  C101  1  0.33725803  0.66273899  0.75000177  1  -0.043244  3e-05  -0.095068  -0.200992  1.3e-05  3.9772  0.0
C  C102  1  0.49922385  0.48479194  0.17530781  1  -0.124058  9.9e-05  -0.090949  -0.137972  3.7e-05  3.951122  0.0
C  C103  1  0.51520671  0.50077703  0.32469137  1  -0.123953  9.9e-05  -0.090997  -0.138017  3.7e-05  3.951124  0.0
C  C104  1  0.50077957  0.51520665  0.82469010  1  -0.058829  9.8e-05  -0.090917  -0.137854  3.7e-05  3.951094  0.0
C  C105  1  0.48479311  0.49922285  0.67530798  1  -0.124009  9.9e-05  -0.090924  -0.137871  3.7e-05  3.951177  0.0
C  C106  1  0.45549678  0.54450429  0.24999994  1  0.063148  0.000121  -0.084238  -0.062513  4.3e-05  4.009998  0.0
C  C107  1  0.54450484  0.45549494  0.75000036  1  -0.001998  0.000122  -0.084287  -0.062718  4.3e-05  4.010219  0.0
C  C108  1  0.41435891  0.26783275  0.87775345  1  0.438914  -0.004564  0.043256  0.094657  -0.005201  3.942105  -0.003
C  C109  1  0.73216635  0.58563681  0.62224939  1  0.438807  -0.004563  0.043223  0.094679  -0.0052  3.942182  -0.003
C  C110  1  0.58564091  0.73216629  0.12224885  1  0.439015  -0.004564  0.043231  0.094583  -0.005201  3.94221  -0.003
C  C111  1  0.26783257  0.41436255  0.37775244  1  0.438861  -0.004563  0.043246  0.094698  -0.0052  3.942081  -0.003
C  C112  1  0.30822424  0.36663103  0.88434681  1  -0.020528  0.004186  -0.084717  -0.171553  0.002377  3.942275  0.003
C  C113  1  0.63336976  0.69176991  0.61565580  1  -0.0205  0.004186  -0.08477  -0.171734  0.002377  3.942381  0.003
C  C114  1  0.69177648  0.63336768  0.11565530  1  -0.020474  0.004186  -0.084713  -0.171592  0.002377  3.942218  0.003
C  C115  1  0.36663096  0.30823049  0.38434241  1  -0.020023  0.004186  -0.084797  -0.17176  0.002377  3.942367  0.003
C  C116  1  0.20615274  0.36533898  0.87270656  1  -0.018565  -0.007063  0.00483  0.142993  -0.007572  4.026872  -0.004
C  C117  1  0.63466196  0.79384598  0.62729604  1  -0.018806  -0.007063  0.004831  0.143049  -0.007572  4.026801  -0.004
C  C118  1  0.79384978  0.63465994  0.12729354  1  -0.018643  -0.007063  0.004828  0.143  -0.007572  4.026885  -0.004
C  C119  1  0.36533875  0.20615526  0.37270256  1  -0.018811  -0.007063  0.004871  0.143087  -0.007572  4.026865  -0.004
C  C120  1  0.21847599  0.25932471  0.85717017  1  0.031262  0.004321  -0.079926  -0.172922  0.002357  3.914648  0.004
C  C121  1  0.74067304  0.78151965  0.64283426  1  0.031313  0.004322  -0.079917  -0.172956  0.002358  3.914527  0.004
C  C122  1  0.78152564  0.74067369  0.14283042  1  0.031117  0.004321  -0.079921  -0.172945  0.002357  3.914619  0.004
C  C123  1  0.25932679  0.21847939  0.35716738  1  0.031331  0.004321  -0.079956  -0.172995  0.002358  3.914659  0.004
C  C124  1  0.32858633  0.16488818  0.85025402  1  0.43527  -0.005149  0.04662  0.10352  -0.005643  3.944001  -0.003
C  C125  1  0.83511299  0.67140679  0.64974829  1  0.435802  -0.005151  0.046637  0.103591  -0.005645  3.943922  -0.003
C  C126  1  0.67141349  0.83511086  0.14974829  1  0.435583  -0.005149  0.046608  0.103584  -0.005643  3.943901  -0.003
C  C127  1  0.16488684  0.32859141  0.35025295  1  0.435595  -0.005151  0.046613  0.103551  -0.005645  3.943856  -0.003
C  C128  1  0.09290550  0.46648665  0.87203746  1  -0.061771  -0.003553  -0.076929  -0.110876  -0.003953  3.928191  -0.002
C  C129  1  0.53351613  0.90709430  0.62796065  1  -0.0616  -0.003551  -0.07697  -0.1109  -0.003951  3.928283  -0.002
C  C130  1  0.90709791  0.53351278  0.12795950  1  -0.061914  -0.003553  -0.076929  -0.110825  -0.003952  3.928284  -0.002
C  C131  1  0.46648638  0.09290713  0.37203795  1  -0.061635  -0.003551  -0.07691  -0.110879  -0.003951  3.928246  -0.002
C  C132  1  0.07374387  0.57888168  0.87108530  1  -0.014485  -0.003951  -0.084687  -0.12373  -0.004367  3.960357  -0.002
C  C133  1  0.42112348  0.92625649  0.62891080  1  -0.014702  -0.003951  -0.084674  -0.123713  -0.004368  3.960281  -0.002
C  C134  1  0.92625865  0.42111723  0.12891480  1  -0.014503  -0.003951  -0.084724  -0.123852  -0.004367  3.960456  -0.002
C  C135  1  0.57887903  0.07374410  0.37108942  1  -0.014626  -0.003951  -0.084705  -0.123719  -0.004367  3.960325  -0.002
C  C136  1  0.96196226  0.68080171  0.86386072  1  -0.004169  -0.006738  0.006052  0.150688  -0.007217  4.02972  -0.004
C  C137  1  0.31919836  0.03803774  0.63613872  1  -0.003997  -0.006737  0.00606  0.150666  -0.007217  4.029605  -0.004
C  C138  1  0.03804295  0.31919876  0.13613797  1  -0.003804  -0.006738  0.006035  0.150784  -0.007217  4.029812  -0.004
C  C139  1  0.68080237  0.96196098  0.36386273  1  -0.003834  -0.006737  0.00604  0.150686  -0.007216  4.029681  -0.004
C  C140  1  0.95372448  0.79672125  0.85470501  1  -0.080373  0.003953  -0.088217  -0.189103  0.002129  3.941207  0.003
C  C141  1  0.20327905  0.04627856  0.64529094  1  -0.080198  0.003952  -0.088223  -0.189091  0.002129  3.941184  0.003
C  C142  1  0.04627984  0.20327702  0.14529471  1  -0.080428  0.003952  -0.08818  -0.189086  0.002129  3.941198  0.003
C  C143  1  0.79672077  0.95372215  0.35470880  1  -0.08046  0.003953  -0.088237  -0.18914  0.002129  3.941188  0.003
C  C144  1  0.84744174  0.89448429  0.84526196  1  0.488416  -0.005172  0.046193  0.100264  -0.005745  3.938848  -0.003
C  C145  1  0.10551523  0.15256101  0.65473817  1  0.488456  -0.005172  0.04623  0.100323  -0.005746  3.93883  -0.003
C  C146  1  0.15255897  0.10551526  0.15474255  1  0.488247  -0.005171  0.046225  0.100271  -0.005745  3.938948  -0.003
C  C147  1  0.89448549  0.84744023  0.34526043  1  0.488657  -0.005171  0.046253  0.100307  -0.005745  3.938798  -0.003
C  C148  1  0.75505238  0.77281532  0.85528877  1  0.463425  -0.003408  0.042253  0.085751  -0.003831  3.962355  -0.002
C  C149  1  0.22718730  0.24494910  0.64471201  1  0.463386  -0.003407  0.042193  0.085641  -0.003829  3.962469  -0.002
C  C150  1  0.24495372  0.22718566  0.14470878  1  0.463307  -0.003409  0.042217  0.085683  -0.003832  3.962522  -0.002
C  C151  1  0.77281071  0.75505142  0.35529040  1  0.463352  -0.003407  0.042183  0.0856  -0.003829  3.962554  -0.002
C  C152  1  0.85781560  0.67117824  0.86409035  1  -0.032047  0.004131  -0.083575  -0.177489  0.002284  3.931682  0.004
C  C153  1  0.32882272  0.14218833  0.63590702  1  -0.032173  0.004131  -0.083574  -0.177421  0.002284  3.931614  0.004
C  C154  1  0.14218781  0.32882372  0.13590443  1  -0.032328  0.004132  -0.08356  -0.177477  0.002284  3.931803  0.004
C  C155  1  0.67117620  0.85781187  0.36409587  1  -0.032283  0.004131  -0.083555  -0.177435  0.002283  3.931738  0.004
N  N156  1  0.42639514  0.16775961  0.86014460  1  -1.191933  0.065985  -0.329107  -0.224223  0.038479  3.577514  0.059
N  N157  1  0.83224080  0.57360256  0.63985688  1  -1.192029  0.065987  -0.329126  -0.22423  0.03848  3.577599  0.059
N  N158  1  0.57360559  0.83223826  0.13985713  1  -1.191915  0.065985  -0.32908  -0.224194  0.038479  3.577539  0.059
N  N159  1  0.16775812  0.42639764  0.36014467  1  -1.192024  0.065985  -0.329116  -0.224228  0.038479  3.577496  0.059
N  N160  1  0.74837075  0.88385722  0.84545443  1  -1.208023  0.065191  -0.325585  -0.218556  0.038186  3.543677  0.059
N  N161  1  0.11614582  0.25162746  0.65454958  1  -1.208012  0.065193  -0.325575  -0.218527  0.038187  3.543659  0.059
N  N162  1  0.25163264  0.11614472  0.15454837  1  -1.207764  0.065196  -0.325634  -0.218579  0.038189  3.543702  0.059
N  N163  1  0.88385399  0.74837410  0.34545055  1  -1.208015  0.065194  -0.325577  -0.218475  0.038187  3.54361  0.059
O  O164  1  0.62648714  0.04849690  0.96144909  1  -1.16223  0.052193  -0.308993  -0.561446  0.028615  2.468504  0.047
O  O165  1  0.95150179  0.37351461  0.53855019  1  -1.16178  0.052188  -0.309041  -0.561507  0.028614  2.468438  0.047
O  O166  1  0.37351358  0.95150265  0.03855341  1  -1.16156  0.052188  -0.309031  -0.561485  0.028615  2.468519  0.047
O  O167  1  0.04849261  0.62649140  0.46145093  1  -1.161998  0.052191  -0.309038  -0.561499  0.028613  2.468543  0.047
O  O168  1  0.49492200  0.08922280  0.10769917  1  -1.150766  0.080553  -0.306605  -0.543647  0.045326  2.424731  0.074
O  O169  1  0.91076980  0.50508010  0.39230339  1  -1.151005  0.080546  -0.306598  -0.543542  0.045322  2.424737  0.074
O  O170  1  0.50507964  0.91077139  0.89230415  1  -1.150956  0.080549  -0.306601  -0.54355  0.045324  2.42466  0.074
O  O171  1  0.08922734  0.49491907  0.60769510  1  -1.150897  0.080558  -0.306616  -0.543647  0.045328  2.424663  0.074
O  O172  1  0.85169630  0.32030166  0.74830138  1  -1.127429  0.086212  -0.301816  -0.519014  0.048258  2.280112  0.078
O  O173  1  0.67968873  0.14830767  0.75169804  1  -1.127908  0.08622  -0.301817  -0.518964  0.048262  2.280147  0.078
O  O174  1  0.14830174  0.67969466  0.25169976  1  -1.128075  0.086237  -0.301796  -0.518988  0.048261  2.280108  0.078
O  O175  1  0.32030387  0.85169898  0.24830413  1  -1.127563  0.086216  -0.301851  -0.519027  0.04826  2.280214  0.078
O  O176  1  0.91630930  0.39263411  0.82012563  1  -1.138935  0.080583  -0.311985  -0.550474  0.044831  2.186255  0.072
O  O177  1  0.60736617  0.08368845  0.67986991  1  -1.139211  0.080577  -0.31194  -0.550408  0.044827  2.186426  0.072
O  O178  1  0.08368963  0.60736526  0.17987152  1  -1.138986  0.080583  -0.311938  -0.550404  0.04483  2.186363  0.072
O  O179  1  0.39263275  0.91631259  0.32012935  1  -1.139204  0.080579  -0.311986  -0.550464  0.044828  2.186299  0.072
