# generated using pymatgen
data_Cu2H14C8IN3
_symmetry_space_group_name_H-M   'P 1'
_cell_length_a   15.16428788
_cell_length_b   15.16477443
_cell_length_c   15.16414470
_cell_angle_alpha   100.53814222
_cell_angle_beta   114.11359818
_cell_angle_gamma   114.11429035
_symmetry_Int_Tables_number   1
_chemical_formula_structural   Cu2H14C8IN3
_chemical_formula_sum   'Cu16 H112 C64 I8 N24'
_cell_volume   2636.61831867
_cell_formula_units_Z   8
loop_
 _symmetry_equiv_pos_site_id
 _symmetry_equiv_pos_as_xyz
  1  'x, y, z'
loop_
 _atom_site_type_symbol
 _atom_site_label
 _atom_site_symmetry_multiplicity
 _atom_site_fract_x
 _atom_site_fract_y
 _atom_site_fract_z
 _atom_site_occupancy
 _atom_site_pbe_bader_charge
 _atom_site_pbe_bader_spin_density
 _atom_site_pbe_cm5_charge
 _atom_site_pbe_ddec_charge
 _atom_site_pbe_ddec_spin_density
 _atom_site_pbe_ddec_sum_bond_order
 _atom_site_pbe_magmom
Cu  Cu0  1  0.67238185  0.74862929  0.08212298  1  0.38008  0  0.256549  0.121753  0  2.768898  0
Cu  Cu1  1  0.82759834  0.90972937  0.07622218  1  0.381123  0  0.256552  0.121805  0  2.76812  0
Cu  Cu2  1  0.33346872  0.08216966  0.90974911  1  0.378121  0  0.256319  0.121652  0  2.769762  0
Cu  Cu3  1  0.16648999  0.07625530  0.74861998  1  0.386212  0  0.256471  0.1218  0  2.768764  0
Cu  Cu4  1  0.32760983  0.25136471  0.91787162  1  0.379945  0  0.256565  0.121747  0  2.768912  0
Cu  Cu5  1  0.17239931  0.09026902  0.92377963  1  0.381296  0  0.256559  0.121729  0  2.768211  0
Cu  Cu6  1  0.66653090  0.91783229  0.09024756  1  0.377954  0  0.256335  0.121667  0  2.769698  0
Cu  Cu7  1  0.83350899  0.92373963  0.25137778  1  0.386199  0  0.256458  0.121771  0  2.768824  0
Cu  Cu8  1  0.42792296  0.69463302  0.01203735  1  0.537846  0  0.446401  0.261892  0  2.310659  0
Cu  Cu9  1  0.07204073  0.08412891  0.26672795  1  0.539324  0  0.446546  0.262  0  2.311272  0
Cu  Cu10  1  0.31742882  0.01209113  0.08413801  1  0.539866  0  0.446303  0.261898  0  2.310364  0
Cu  Cu11  1  0.18255799  0.26671928  0.69464040  1  0.540314  0  0.446608  0.261888  0  2.311243  0
Cu  Cu12  1  0.57207660  0.30536648  0.98795818  1  0.537879  0  0.446402  0.261862  0  2.31059  0
Cu  Cu13  1  0.92795305  0.91586481  0.73327142  1  0.539353  0  0.446566  0.261981  0  2.311382  0
Cu  Cu14  1  0.68256980  0.98791777  0.91586415  1  0.539908  0  0.446277  0.261771  0  2.310453  0
Cu  Cu15  1  0.81743862  0.73327488  0.30535493  1  0.54025  0  0.446605  0.261932  0  2.31129  0
H  H16  1  0.68951662  0.42295487  0.24250616  1  0.044367  0  0.085952  0.095095  0  1.034387  0
H  H17  1  0.81046404  0.05301962  0.73343400  1  0.046087  0  0.085964  0.095013  0  1.034503  0
H  H18  1  0.81955767  0.24251852  0.05299755  1  0.04883  0  0.08593  0.095097  0  1.034557  0
H  H19  1  0.68040791  0.73343779  0.42295285  1  0.04867  0  0.08599  0.095106  0  1.034492  0
H  H20  1  0.31048525  0.57704296  0.75749397  1  0.044377  0  0.085948  0.095057  0  1.034404  0
H  H21  1  0.18952894  0.94697967  0.26656870  1  0.046092  0  0.085967  0.094987  0  1.034508  0
H  H22  1  0.18044330  0.75747124  0.94700600  1  0.048991  0  0.085926  0.094995  0  1.034543  0
H  H23  1  0.31959344  0.26655792  0.57705261  1  0.048501  0  0.085982  0.095119  0  1.034582  0
H  H24  1  0.81042213  0.55588527  0.31595736  1  0.060157  0  0.094341  0.097031  0  1.018386  0
H  H25  1  0.68963536  0.00555550  0.74551377  1  0.047533  0  0.094413  0.097172  0  1.018048  0
H  H26  1  0.76007705  0.31595070  0.00558318  1  0.048206  0  0.094334  0.097087  0  1.018228  0
H  H27  1  0.73994301  0.74550927  0.55586692  1  0.049047  0  0.094358  0.097122  0  1.018184  0
H  H28  1  0.18957816  0.44411495  0.68404256  1  0.060203  0  0.094344  0.097034  0  1.018336  0
H  H29  1  0.31035605  0.99443744  0.25448120  1  0.047288  0  0.094385  0.097095  0  1.018175  0
H  H30  1  0.23993488  0.68405478  0.99443763  1  0.047844  0  0.094343  0.097039  0  1.018197  0
H  H31  1  0.26005605  0.25447938  0.44413236  1  0.048982  0  0.094329  0.097051  0  1.018255  0
H  H32  1  0.87133651  0.43016902  0.29881308  1  0.035065  0  0.090341  0.082479  0  0.979101  0
H  H33  1  0.62863811  0.92746183  0.55878964  1  0.005145  0  0.090428  0.082729  0  0.979087  0
H  H34  1  0.86864261  0.29879724  0.92745842  1  0.010558  0  0.090387  0.082492  0  0.979149  0
H  H35  1  0.63133099  0.55880862  0.43012681  1  0.042838  0  0.090388  0.082598  0  0.979138  0
H  H36  1  0.12866910  0.56983732  0.70119211  1  0.034886  0  0.090362  0.082517  0  0.979125  0
H  H37  1  0.37136053  0.07253834  0.44120762  1  0.005183  0  0.09041  0.082692  0  0.979014  0
H  H38  1  0.13135589  0.70120676  0.07254674  1  0.010604  0  0.090363  0.082517  0  0.979211  0
H  H39  1  0.36866129  0.44118121  0.56986398  1  0.042754  0  0.090388  0.082596  0  0.979163  0
H  H40  1  0.77753981  0.36775381  0.15964965  1  0.011234  0  0.080389  0.065976  0  1.037295  0
H  H41  1  0.72249742  0.88212995  0.59027901  1  0.025633  0  0.080404  0.065917  0  1.037339  0
H  H42  1  0.79187339  0.15962900  0.88212894  1  0.020748  0  0.080364  0.065903  0  1.037206  0
H  H43  1  0.70813684  0.59028103  0.36776125  1  0.022199  0  0.080407  0.065992  0  1.037391  0
H  H44  1  0.22245641  0.63224313  0.84035394  1  0.011342  0  0.0804  0.066011  0  1.037282  0
H  H45  1  0.27750385  0.11787205  0.40972361  1  0.026456  0  0.0804  0.065914  0  1.037295  0
H  H46  1  0.20812005  0.84036995  0.11786663  1  0.020652  0  0.080397  0.06603  0  1.037269  0
H  H47  1  0.29185701  0.40971514  0.63223068  1  0.022355  0  0.080428  0.066008  0  1.037421  0
H  H48  1  0.89097485  0.53548047  0.14591773  1  0.036352  0  0.082512  0.113814  0  1.010907  0
H  H49  1  0.60904557  0.75496149  0.64452173  1  0.006112  0  0.08249  0.113832  0  1.010878  0
H  H50  1  0.61042398  0.14591175  0.75495440  1  0.015047  0  0.082461  0.113834  0  1.010875  0
H  H51  1  0.88955624  0.64450745  0.53546584  1  0.04602  0  0.082515  0.113839  0  1.010912  0
H  H52  1  0.10900590  0.46450899  0.85406697  1  0.036169  0  0.082512  0.113852  0  1.010814  0
H  H53  1  0.39094380  0.24503418  0.35547158  1  0.005956  0  0.082463  0.113838  0  1.010921  0
H  H54  1  0.38957097  0.85409109  0.24505372  1  0.015193  0  0.082493  0.113834  0  1.010909  0
H  H55  1  0.11043176  0.35548050  0.46452022  1  0.04596  0  0.082444  0.1138  0  1.010852  0
H  H56  1  0.98110390  0.49294392  0.21407309  1  0.001903  0  0.084713  0.112919  0  1.011829  0
H  H57  1  0.51890224  0.73294561  0.51186572  1  0.01586  0  0.084704  0.112959  0  1.011781  0
H  H58  1  0.72107624  0.21404510  0.73294542  1  0.006426  0  0.084696  0.112974  0  1.011801  0
H  H59  1  0.77892568  0.51187039  0.49295296  1  0.002437  0  0.084678  0.112915  0  1.011715  0
H  H60  1  0.01889263  0.50705653  0.78591940  1  0.001719  0  0.084721  0.112906  0  1.011855  0
H  H61  1  0.48109351  0.26705167  0.48812587  1  0.015889  0  0.084715  0.113003  0  1.011727  0
H  H62  1  0.27892172  0.78596552  0.26706470  1  0.006223  0  0.084682  0.112921  0  1.01176  0
H  H63  1  0.22106824  0.48811950  0.50703324  1  0.00267  0  0.084717  0.112978  0  1.011784  0
H  H64  1  0.98347933  0.60118653  0.28641654  1  0.030535  0  0.082894  0.112973  0  1.020453  0
H  H65  1  0.51650596  0.80291448  0.61772533  1  0.01117  0  0.08292  0.112974  0  1.020392  0
H  H66  1  0.68518936  0.28640553  0.80293386  1  0.014051  0  0.082939  0.112995  0  1.020287  0
H  H67  1  0.81479928  0.61772342  0.60119609  1  0.017427  0  0.082905  0.112967  0  1.020434  0
H  H68  1  0.01651357  0.39881904  0.71357475  1  0.030628  0  0.082874  0.112957  0  1.020594  0
H  H69  1  0.48348440  0.19708298  0.38226277  1  0.010892  0  0.082911  0.112958  0  1.020335  0
H  H70  1  0.31480354  0.71360003  0.19707722  1  0.013443  0  0.082912  0.112932  0  1.020385  0
H  H71  1  0.18519479  0.38226262  0.39879341  1  0.017275  0  0.082894  0.112946  0  1.020339  0
H  H72  1  0.55263792  0.55603476  0.87267966  1  0.05701  0  0.082822  0.105043  0  1.028177  0
H  H73  1  0.94736330  0.82001776  0.00341192  1  0.059486  0  0.082836  0.105125  0  1.028172  0
H  H74  1  0.31659451  0.87265044  0.81999620  1  0.059131  0  0.082849  0.105148  0  1.02821  0
H  H75  1  0.18341394  0.00338194  0.55602870  1  0.066987  0  0.082927  0.105115  0  1.028021  0
H  H76  1  0.44736323  0.44396234  0.12732532  1  0.056803  0  0.082858  0.105163  0  1.028144  0
H  H77  1  0.05264396  0.17998862  0.99659659  1  0.05929  0  0.082874  0.105154  0  1.028172  0
H  H78  1  0.68340088  0.12736081  0.17999979  1  0.059104  0  0.082895  0.105196  0  1.0282  0
H  H79  1  0.81658193  0.99662023  0.44397109  1  0.067055  0  0.082926  0.105131  0  1.027971  0
H  H80  1  0.47676588  0.41830130  0.84234129  1  0.087619  0  0.082534  0.101333  0  1.046184  0
H  H81  1  0.02325509  0.86559309  0.94156088  1  0.066544  0  0.082559  0.101284  0  1.046063  0
H  H82  1  0.42400278  0.84233346  0.86560870  1  0.068205  0  0.082492  0.101345  0  1.046019  0
H  H83  1  0.07598841  0.94154715  0.41831700  1  0.068799  0  0.082469  0.101254  0  1.046319  0
H  H84  1  0.52323501  0.58169475  0.15765745  1  0.086566  0  0.082529  0.101295  0  1.04619  0
H  H85  1  0.97674289  0.13440881  0.05843510  1  0.066591  0  0.082524  0.101248  0  1.04609  0
H  H86  1  0.57598725  0.15766049  0.13438852  1  0.068196  0  0.082514  0.101329  0  1.046072  0
H  H87  1  0.92401202  0.05844923  0.58168161  1  0.069252  0  0.082478  0.101271  0  1.04631  0
H  H88  1  0.64431716  0.40984482  0.86154785  1  -0.000241  0  0.077887  0.056904  0  1.034451  0
H  H89  1  0.85572453  0.71729979  0.76554739  1  0.002911  0  0.077763  0.056813  0  1.034515  0
H  H90  1  0.45174517  0.86155785  0.71728609  1  0.017857  0  0.077811  0.056965  0  1.034625  0
H  H91  1  0.04832002  0.76554638  0.40987061  1  0.004577  0  0.077883  0.056898  0  1.034412  0
H  H92  1  0.35568925  0.59015596  0.13845005  1  -0.000199  0  0.07785  0.056851  0  1.034451  0
H  H93  1  0.14428240  0.28270310  0.23445441  1  0.00317  0  0.077752  0.056795  0  1.034589  0
H  H94  1  0.54826748  0.13844837  0.28272525  1  0.018062  0  0.077778  0.05689  0  1.034493  0
H  H95  1  0.95169849  0.23445932  0.59014105  1  0.004354  0  0.077886  0.056933  0  1.034435  0
H  H96  1  0.72282716  0.54714444  0.89444440  1  0.01565  0  0.087011  0.077284  0  0.994019  0
H  H97  1  0.77718607  0.67164279  0.82430934  1  0.041582  0  0.086992  0.077286  0  0.994102  0
H  H98  1  0.34731308  0.89443547  0.67163870  1  0.030341  0  0.086971  0.077183  0  0.994106  0
H  H99  1  0.15271931  0.82434447  0.54715706  1  0.029532  0  0.086991  0.07722  0  0.994159  0
H  H100  1  0.27717570  0.45285516  0.10555909  1  0.015681  0  0.086997  0.077277  0  0.994002  0
H  H101  1  0.22281494  0.32835815  0.17568903  1  0.0416  0  0.087012  0.077303  0  0.994081  0
H  H102  1  0.65269530  0.10556887  0.32835736  1  0.030003  0  0.087047  0.077231  0  0.994093  0
H  H103  1  0.84729248  0.17566486  0.45285318  1  0.029705  0  0.087042  0.077247  0  0.994103  0
H  H104  1  0.50060514  0.37560922  0.67927377  1  0.019191  0  0.079483  0.10988  0  1.03562  0
H  H105  1  0.99942360  0.67871742  0.87497236  1  0.024814  0  0.079371  0.109885  0  1.035766  0
H  H106  1  0.30373747  0.67929851  0.67870783  1  0.022451  0  0.079393  0.109843  0  1.035831  0
H  H107  1  0.19630103  0.87498277  0.37558796  1  -0.011054  0  0.079461  0.109888  0  1.035579  0
H  H108  1  0.49940232  0.62439578  0.32072666  1  0.019058  0  0.079469  0.109871  0  1.03567  0
H  H109  1  0.00057689  0.32128141  0.12503002  1  0.024817  0  0.079334  0.109818  0  1.035826  0
H  H110  1  0.69626868  0.32070121  0.32128252  1  0.022576  0  0.07934  0.10981  0  1.035861  0
H  H111  1  0.80371036  0.12502934  0.62442395  1  -0.010961  0  0.079443  0.10988  0  1.035685  0
H  H112  1  0.64069038  0.44196632  0.70312558  1  -0.00671  0  0.083738  0.107216  0  1.015284  0
H  H113  1  0.85931824  0.56247701  0.80123611  1  -0.02278  0  0.083793  0.107205  0  1.015457  0
H  H114  1  0.26121123  0.70311808  0.56244805  1  0.002736  0  0.083774  0.107222  0  1.015507  0
H  H115  1  0.23880284  0.80126681  0.44197365  1  -0.002112  0  0.083815  0.107259  0  1.015397  0
H  H116  1  0.35931595  0.55804074  0.29687278  1  -0.006696  0  0.083744  0.10722  0  1.015332  0
H  H117  1  0.14068277  0.43752393  0.19876687  1  -0.022817  0  0.083807  0.107211  0  1.01543  0
H  H118  1  0.73880642  0.29689075  0.43754932  1  0.002615  0  0.083782  0.107261  0  1.015395  0
H  H119  1  0.76121815  0.19875330  0.55803969  1  -0.002284  0  0.083867  0.107326  0  1.01534  0
H  H120  1  0.57443028  0.51382306  0.71075732  1  0.002495  0  0.082884  0.106577  0  1.015297  0
H  H121  1  0.92559278  0.63635293  0.93938030  1  0.010284  0  0.082908  0.106683  0  1.015289  0
H  H122  1  0.19697190  0.71075032  0.63631722  1  0.006238  0  0.082845  0.106575  0  1.015566  0
H  H123  1  0.30308270  0.93938700  0.51381292  1  0.001253  0  0.082865  0.106582  0  1.015499  0
H  H124  1  0.42557645  0.48618121  0.28924729  1  0.002424  0  0.082909  0.106592  0  1.015336  0
H  H125  1  0.07440659  0.36364796  0.06062135  1  0.010295  0  0.082904  0.106673  0  1.015273  0
H  H126  1  0.80303208  0.28924723  0.36366987  1  0.006009  0  0.082849  0.106579  0  1.015587  0
H  H127  1  0.69693289  0.06063329  0.48619825  1  0.001207  0  0.082841  0.106568  0  1.015493  0
C  C128  1  0.70600078  0.51573852  0.15464486  1  0.983862  0  0.208738  0.329878  0  3.964664  0
C  C129  1  0.79400456  0.94862775  0.80970156  1  0.988338  0  0.208597  0.329897  0  3.96458  0
C  C130  1  0.63889827  0.15463708  0.94864250  1  0.990223  0  0.208769  0.329962  0  3.964174  0
C  C131  1  0.86108310  0.80971707  0.51571173  1  0.977849  0  0.208624  0.329939  0  3.964556  0
C  C132  1  0.29399879  0.48426098  0.84535859  1  0.983622  0  0.208729  0.329899  0  3.96482  0
C  C133  1  0.20599053  0.05137125  0.19029997  1  0.988467  0  0.208733  0.330113  0  3.964197  0
C  C134  1  0.36110727  0.84536681  0.05136485  1  0.990136  0  0.20879  0.329998  0  3.964273  0
C  C135  1  0.13891819  0.19027619  0.48428798  1  0.978037  0  0.208661  0.330085  0  3.964486  0
C  C136  1  0.75834926  0.48496341  0.24023324  1  -0.012377  0  -0.161382  -0.25304  0  3.965812  0
C  C137  1  0.74166420  0.98188158  0.72660124  1  -0.023482  0  -0.161461  -0.253144  0  3.965826  0
C  C138  1  0.75526682  0.24022515  0.98188743  1  -0.013417  0  -0.161421  -0.253227  0  3.965843  0
C  C139  1  0.74471446  0.72660748  0.48492839  1  -0.000492  0  -0.161416  -0.253186  0  3.966031  0
C  C140  1  0.24165149  0.51503647  0.75976944  1  -0.012504  0  -0.161379  -0.253025  0  3.965826  0
C  C141  1  0.25833057  0.01811392  0.27339754  1  -0.023175  0  -0.161481  -0.253078  0  3.965927  0
C  C142  1  0.24473965  0.75977806  0.01812282  1  -0.013179  0  -0.161405  -0.25299  0  3.965701  0
C  C143  1  0.25528538  0.27338434  0.51507179  1  -0.000548  0  -0.161426  -0.253222  0  3.96608  0
C  C144  1  0.83327911  0.44538536  0.22884203  1  -0.005321  0  -0.166338  -0.078928  0  3.947031  0
C  C145  1  0.66670223  0.89556564  0.61209088  1  0.022089  0  -0.166433  -0.079084  0  3.947008  0
C  C146  1  0.78345353  0.22883778  0.89556299  1  0.005799  0  -0.166303  -0.078707  0  3.946718  0
C  C147  1  0.71652459  0.61210353  0.44536752  1  -0.025888  0  -0.166456  -0.079042  0  3.947135  0
C  C148  1  0.16672190  0.55461559  0.77115831  1  -0.005095  0  -0.166374  -0.079012  0  3.947189  0
C  C149  1  0.33329378  0.10443269  0.38790563  1  0.02134  0  -0.16638  -0.078999  0  3.946923  0
C  C150  1  0.21654543  0.77116589  0.10444098  1  0.006093  0  -0.16631  -0.078997  0  3.947128  0
C  C151  1  0.28347032  0.38788813  0.55462599  1  -0.025837  0  -0.16643  -0.079019  0  3.947088  0
C  C152  1  0.92735124  0.52288142  0.21817499  1  -0.067705  0  -0.248253  -0.354394  0  3.960755  0
C  C153  1  0.57264630  0.79082790  0.59553901  1  -0.033556  0  -0.248202  -0.354418  0  3.960486  0
C  C154  1  0.69527732  0.21817063  0.79082509  1  -0.030385  0  -0.248185  -0.35453  0  3.960404  0
C  C155  1  0.80469874  0.59554100  0.52286807  1  -0.06585  0  -0.248158  -0.35438  0  3.960497  0
C  C156  1  0.07264391  0.47712004  0.78181515  1  -0.067587  0  -0.248244  -0.354383  0  3.960901  0
C  C157  1  0.42734399  0.20916711  0.40445126  1  -0.033336  0  -0.248193  -0.354498  0  3.960491  0
C  C158  1  0.30471440  0.78183455  0.20918081  1  -0.029893  0  -0.248193  -0.354351  0  3.960535  0
C  C159  1  0.19529564  0.40444855  0.47712088  1  -0.065915  0  -0.248125  -0.354404  0  3.960369  0
C  C160  1  0.61821486  0.51900798  0.00246582  1  0.974  0  0.214706  0.341  0  3.934374  0
C  C161  1  0.88177394  0.88421126  0.90074870  1  0.969458  0  0.214943  0.341481  0  3.934438  0
C  C162  1  0.48344235  0.00244556  0.88421905  1  0.982894  0  0.214932  0.341332  0  3.934378  0
C  C163  1  0.01654981  0.90074883  0.51898636  1  0.960656  0  0.214889  0.341269  0  3.934663  0
C  C164  1  0.38178248  0.48098690  0.99753719  1  0.973656  0  0.214736  0.34097  0  3.934514  0
C  C165  1  0.11822470  0.11578891  0.09925119  1  0.969362  0  0.214934  0.341427  0  3.934595  0
C  C166  1  0.51655788  0.99755221  0.11578304  1  0.983205  0  0.214915  0.3413  0  3.934413  0
C  C167  1  0.98344825  0.09924678  0.48101312  1  0.960541  0  0.214899  0.341306  0  3.934715  0
C  C168  1  0.56274139  0.49124693  0.88656513  1  -0.033131  0  -0.167433  -0.244821  0  3.924394  0
C  C169  1  0.93727051  0.82382115  0.92852114  1  -0.019846  0  -0.167353  -0.244742  0  3.924639  0
C  C170  1  0.39529598  0.88654319  0.82382333  1  -0.021695  0  -0.167377  -0.244706  0  3.92396  0
C  C171  1  0.10470120  0.92850603  0.49125076  1  -0.033565  0  -0.167435  -0.244666  0  3.925079  0
C  C172  1  0.43726167  0.50875128  0.11343885  1  -0.031621  0  -0.167455  -0.244825  0  3.924545  0
C  C173  1  0.06273076  0.17618085  0.07148280  1  -0.019641  0  -0.167391  -0.244724  0  3.924663  0
C  C174  1  0.60470102  0.11345693  0.17617589  1  -0.021871  0  -0.167463  -0.244747  0  3.924186  0
C  C175  1  0.89529862  0.07149452  0.50875035  1  -0.034352  0  -0.167453  -0.24476  0  3.925143  0
C  C176  1  0.63568759  0.47516572  0.84642379  1  0.035746  0  -0.165241  -0.07514  0  3.939822  0
C  C177  1  0.86433185  0.71075652  0.83947781  1  -0.007652  0  -0.165161  -0.075152  0  3.939938  0
C  C178  1  0.37127673  0.84640861  0.71074364  1  -0.012781  0  -0.165216  -0.075366  0  3.939884  0
C  C179  1  0.12876775  0.83949710  0.47517497  1  0.011681  0  -0.165359  -0.075388  0  3.940629  0
C  C180  1  0.36431501  0.52483283  0.15357875  1  0.03577  0  -0.165204  -0.075144  0  3.939879  0
C  C181  1  0.13567014  0.28924620  0.16052326  1  -0.007962  0  -0.165155  -0.075157  0  3.940025  0
C  C182  1  0.62873191  0.15359678  0.28925404  1  -0.010355  0  -0.165223  -0.07524  0  3.939888  0
C  C183  1  0.87124496  0.16051156  0.52483553  1  0.011933  0  -0.165319  -0.075305  0  3.940691  0
C  C184  1  0.58514049  0.45039635  0.72848768  1  -0.03195  0  -0.245748  -0.35181  0  3.963521  0
C  C185  1  0.91488795  0.64337303  0.86523573  1  -0.015727  0  -0.245732  -0.351915  0  3.963776  0
C  C186  1  0.27812979  0.72847669  0.64334904  1  -0.029986  0  -0.245697  -0.3517  0  3.964113  0
C  C187  1  0.22191265  0.86526671  0.45039040  1  0.002397  0  -0.245718  -0.35167  0  3.96388  0
C  C188  1  0.41486768  0.54960937  0.27151647  1  -0.03181  0  -0.245748  -0.351791  0  3.963708  0
C  C189  1  0.08511260  0.35662825  0.13476647  1  -0.015724  0  -0.245699  -0.35184  0  3.963804  0
C  C190  1  0.72187925  0.27152592  0.35664433  1  -0.031896  0  -0.24568  -0.351769  0  3.964178  0
C  C191  1  0.77810472  0.13474979  0.54962343  1  0.002556  0  -0.24581  -0.351846  0  3.964153  0
I  I192  1  0.56403433  0.75484214  0.90441432  1  -0.35541  0  -0.117224  -0.234465  0  2.152948  0
I  I193  1  0.93598998  0.84042179  0.19082210  1  -0.353272  0  -0.117299  -0.234679  0  2.153014  0
I  I194  1  0.14963379  0.90440611  0.84036157  1  -0.355462  0  -0.117396  -0.234772  0  2.151857  0
I  I195  1  0.35041521  0.19080258  0.75484183  1  -0.354483  0  -0.11731  -0.234646  0  2.152551  0
I  I196  1  0.43596214  0.24515586  0.09558099  1  -0.355609  0  -0.117241  -0.234491  0  2.153031  0
I  I197  1  0.06400696  0.15957588  0.80917598  1  -0.353254  0  -0.117321  -0.234683  0  2.152907  0
I  I198  1  0.85036373  0.09559612  0.15962968  1  -0.355403  0  -0.117402  -0.234803  0  2.151839  0
I  I199  1  0.64958180  0.80918881  0.24515315  1  -0.354458  0  -0.117291  -0.234652  0  2.152645  0
N  N200  1  0.72404691  0.61298858  0.17407158  1  -0.799618  0  -0.323345  -0.228838  0  3.683668  0
N  N201  1  0.77594735  0.94999455  0.88891356  1  -0.797555  0  -0.323114  -0.228575  0  3.68293  0
N  N202  1  0.56104478  0.17405216  0.94999304  1  -0.781239  0  -0.323305  -0.228726  0  3.682784  0
N  N203  1  0.93892351  0.88894152  0.61297028  1  -0.799429  0  -0.323277  -0.228657  0  3.683556  0
N  N204  1  0.27594581  0.38700965  0.82592818  1  -0.799468  0  -0.323303  -0.228799  0  3.683629  0
N  N205  1  0.22404767  0.05000201  0.11108618  1  -0.797574  0  -0.323197  -0.228781  0  3.683022  0
N  N206  1  0.43895669  0.82594845  0.05000611  1  -0.781105  0  -0.323357  -0.22886  0  3.682776  0
N  N207  1  0.06107521  0.11105236  0.38703179  1  -0.799353  0  -0.323318  -0.228781  0  3.683698  0
N  N208  1  0.66756831  0.61510866  0.07747282  1  -0.776949  0  -0.29994  -0.190106  0  3.540107  0
N  N209  1  0.83241520  0.90986198  0.94749654  1  -0.767864  0  -0.299995  -0.190585  0  3.540649  0
N  N210  1  0.46232846  0.07744669  0.90985426  1  -0.79261  0  -0.299876  -0.190586  0  3.539963  0
N  N211  1  0.03763739  0.94751311  0.61508349  1  -0.773357  0  -0.299973  -0.190422  0  3.540484  0
N  N212  1  0.33242343  0.38488779  0.92252555  1  -0.777013  0  -0.299945  -0.190127  0  3.540275  0
N  N213  1  0.16757786  0.09013102  0.05249976  1  -0.767771  0  -0.299944  -0.190436  0  3.540615  0
N  N214  1  0.53767380  0.92255709  0.09014448  1  -0.792824  0  -0.299843  -0.190546  0  3.539998  0
N  N215  1  0.96236021  0.05248283  0.38491718  1  -0.773336  0  -0.29994  -0.190368  0  3.540443  0
N  N216  1  0.63838954  0.45375218  0.04789497  1  -1.227995  0  -0.408959  -0.38722  0  3.623328  0
N  N217  1  0.86161322  0.90947638  0.81531930  1  -1.219298  0  -0.409256  -0.387701  0  3.623779  0
N  N218  1  0.59413449  0.04788480  0.90949084  1  -1.231713  0  -0.409025  -0.387443  0  3.623517  0
N  N219  1  0.90586811  0.81531565  0.45373538  1  -1.20924  0  -0.409146  -0.387528  0  3.624166  0
N  N220  1  0.36161095  0.54624665  0.95211203  1  -1.227732  0  -0.408988  -0.387208  0  3.623439  0
N  N221  1  0.13838357  0.09052512  0.18467943  1  -1.219266  0  -0.409277  -0.387772  0  3.623736  0
N  N222  1  0.40586560  0.95211681  0.09051320  1  -1.231825  0  -0.409008  -0.387484  0  3.623435  0
N  N223  1  0.09413278  0.18468040  0.54626599  1  -1.209252  0  -0.409185  -0.387509  0  3.623964  0
