# generated using pymatgen
data_CaH12C8(NO4)2
_symmetry_space_group_name_H-M   'P 1'
_cell_length_a   5.56089016
_cell_length_b   7.61578747
_cell_length_c   13.15589205
_cell_angle_alpha   95.79751447
_cell_angle_beta   90.00053436
_cell_angle_gamma   90.00052325
_symmetry_Int_Tables_number   1
_chemical_formula_structural   CaH12C8(NO4)2
_chemical_formula_sum   'Ca2 H24 C16 N4 O16'
_cell_volume   554.30954510
_cell_formula_units_Z   2
loop_
 _symmetry_equiv_pos_site_id
 _symmetry_equiv_pos_as_xyz
  1  'x, y, z'
loop_
 _atom_site_type_symbol
 _atom_site_label
 _atom_site_symmetry_multiplicity
 _atom_site_fract_x
 _atom_site_fract_y
 _atom_site_fract_z
 _atom_site_occupancy
 _atom_site_hle17_bader_spin_density
 _atom_site_hle17_ddec_charge
 _atom_site_hle17_ddec_spin_density
 _atom_site_hle17_ddec_sum_bond_order
 _atom_site_hle17_magmom
 _atom_site_hse06_10hf_bader_spin_density
 _atom_site_hse06_10hf_ddec_charge
 _atom_site_hse06_10hf_ddec_spin_density
 _atom_site_hse06_10hf_ddec_sum_bond_order
 _atom_site_hse06_10hf_magmom
 _atom_site_hse06_bader_spin_density
 _atom_site_hse06_ddec_charge
 _atom_site_hse06_ddec_spin_density
 _atom_site_hse06_ddec_sum_bond_order
 _atom_site_hse06_magmom
 _atom_site_pbe_bader_spin_density
 _atom_site_pbe_cm5_charge
 _atom_site_pbe_ddec_charge
 _atom_site_pbe_ddec_spin_density
 _atom_site_pbe_ddec_sum_bond_order
 _atom_site_pbe_magmom
Ca  Ca0  1  0.00001191  0.50002126  0.00000611  1  0  1.572214  0  1.096398  0  0  1.442953  0  1.450656  0  0  1.483321  0  1.406398  0  0  0.891016  1.412384  0  1.482301  0
Ca  Ca1  1  0.50000121  0.00000731  0.50000664  1  0  1.572267  0  1.096344  0  0  1.442896  0  1.450781  0  0  1.483265  0  1.406521  0  0  0.891053  1.41233  0  1.482443  0
H  H2  1  0.85815194  0.00434600  0.92131086  1  0  0.122504  0  0.927523  0  0  0.132373  0  0.991079  0  0  0.135012  0  0.989559  0  0  0.125607  0.130416  0  0.9923  0
H  H3  1  0.35814461  0.49565105  0.57869074  1  0  0.12242  0  0.927394  0  0  0.132338  0  0.99096  0  0  0.134959  0  0.989451  0  0  0.12562  0.130383  0  0.992182  0
H  H4  1  0.14185090  0.99565032  0.07869449  1  0  0.122528  0  0.927396  0  0  0.132392  0  0.990985  0  0  0.135032  0  0.98946  0  0  0.125671  0.130435  0  0.992208  0
H  H5  1  0.64184924  0.50436104  0.42130637  1  0  0.12263  0  0.927481  0  0  0.132452  0  0.991052  0  0  0.135074  0  0.98955  0  0  0.125715  0.130496  0  0.992275  0
H  H6  1  0.69036466  0.81812562  0.87342232  1  0  0.118666  0  0.958394  0  0  0.124528  0  1.027888  0  0  0.127831  0  1.025802  0  0  0.127335  0.122063  0  1.02961  0
H  H7  1  0.19036915  0.68185714  0.62657701  1  0  0.118601  0  0.958354  0  0  0.124481  0  1.02785  0  0  0.127779  0  1.025761  0  0  0.127339  0.122018  0  1.029575  0
H  H8  1  0.30964538  0.18186936  0.12657991  1  0  0.118615  0  0.958503  0  0  0.124521  0  1.027964  0  0  0.12782  0  1.025881  0  0  0.127327  0.122056  0  1.029685  0
H  H9  1  0.80964448  0.31812329  0.37341908  1  0  0.118621  0  0.958389  0  0  0.124449  0  1.02792  0  0  0.127751  0  1.025834  0  0  0.127316  0.121985  0  1.029634  0
H  H10  1  0.55532453  0.77632301  0.21348796  1  0  0.118529  0  0.925035  0  0  0.127641  0  0.99159  0  0  0.130235  0  0.989391  0  0  0.125535  0.12569  0  0.993335  0
H  H11  1  0.05536014  0.72367848  0.28651962  1  0  0.11843  0  0.925011  0  0  0.127652  0  0.991558  0  0  0.130247  0  0.989359  0  0  0.125548  0.1257  0  0.993303  0
H  H12  1  0.44467471  0.22367593  0.78651525  1  0  0.11854  0  0.925023  0  0  0.12766  0  0.99159  0  0  0.130251  0  0.989394  0  0  0.125549  0.125709  0  0.993332  0
H  H13  1  0.94466968  0.27632176  0.71347987  1  0  0.118513  0  0.925096  0  0  0.127698  0  0.991595  0  0  0.130291  0  0.989401  0  0  0.125557  0.125744  0  0.993341  0
H  H14  1  0.35200235  0.95341152  0.24383837  1  0  0.118567  0  0.926564  0  0  0.131369  0  0.989193  0  0  0.134071  0  0.986739  0  0  0.13004  0.129332  0  0.991145  0
H  H15  1  0.85202618  0.54658435  0.25616547  1  0  0.11848  0  0.926654  0  0  0.131344  0  0.989308  0  0  0.134048  0  0.986856  0  0  0.13002  0.129302  0  0.991262  0
H  H16  1  0.64799150  0.04658480  0.75616850  1  0  0.118523  0  0.926623  0  0  0.131368  0  0.989224  0  0  0.134074  0  0.986775  0  0  0.130027  0.12933  0  0.99118  0
H  H17  1  0.14799285  0.45341058  0.74382916  1  0  0.118504  0  0.926665  0  0  0.131363  0  0.98924  0  0  0.134069  0  0.986789  0  0  0.130021  0.129323  0  0.991193  0
H  H18  1  0.25808427  0.72513878  0.86167937  1  0  0.431335  0  0.873888  0  0  0.397469  0  0.943507  0  0  0.408465  0  0.927533  0  0  0.294001  0.389699  0  0.954758  0
H  H19  1  0.75809188  0.77486166  0.63831970  1  0  0.431309  0  0.873931  0  0  0.397432  0  0.943573  0  0  0.408429  0  0.927598  0  0  0.293993  0.389663  0  0.954822  0
H  H20  1  0.74191498  0.27485885  0.13832529  1  0  0.431285  0  0.873945  0  0  0.397426  0  0.943556  0  0  0.408422  0  0.927582  0  0  0.294005  0.389654  0  0.95481  0
H  H21  1  0.24190916  0.22514385  0.36167856  1  0  0.431337  0  0.873881  0  0  0.397448  0  0.943548  0  0  0.408442  0  0.927576  0  0  0.293984  0.389677  0  0.954798  0
H  H22  1  0.45655197  0.58351571  0.88813090  1  0  0.424759  0  0.880252  0  0  0.391787  0  0.948042  0  0  0.403454  0  0.93092  0  0  0.296818  0.383457  0  0.960239  0
H  H23  1  0.95655883  0.91648365  0.61186886  1  0  0.424722  0  0.880282  0  0  0.391747  0  0.948077  0  0  0.403412  0  0.930959  0  0  0.296815  0.383418  0  0.960276  0
H  H24  1  0.54345627  0.41648189  0.11186843  1  0  0.424752  0  0.880271  0  0  0.391781  0  0.948057  0  0  0.403447  0  0.930937  0  0  0.296839  0.383454  0  0.960252  0
H  H25  1  0.04344042  0.08352582  0.38813114  1  0  0.424766  0  0.880231  0  0  0.391782  0  0.948043  0  0  0.40345  0  0.93092  0  0  0.29683  0.383453  0  0.96024  0
C  C26  1  0.68447483  0.93678792  0.92822144  1  0  -0.149717  0  3.659997  0  0  -0.207487  0  3.9106  0  0  -0.208017  0  3.916801  0  0  -0.045985  -0.207082  0  3.906646  0
C  C27  1  0.18446050  0.56320663  0.57177321  1  0  -0.149289  0  3.659899  0  0  -0.207269  0  3.910726  0  0  -0.207766  0  3.916889  0  0  -0.04599  -0.206862  0  3.90677  0
C  C28  1  0.31552981  0.06321495  0.07177819  1  0  -0.149723  0  3.659931  0  0  -0.207569  0  3.910643  0  0  -0.208089  0  3.916808  0  0  -0.046079  -0.207164  0  3.906688  0
C  C29  1  0.81552076  0.43679488  0.42822026  1  0  -0.149643  0  3.66017  0  0  -0.207409  0  3.910681  0  0  -0.207923  0  3.916871  0  0  -0.04601  -0.207  0  3.906724  0
C  C30  1  0.67490107  0.88025034  0.03416089  1  0  0.547947  0  3.790406  0  0  0.493055  0  4.090155  0  0  0.523812  0  4.087115  0  0  0.26245  0.472123  0  4.091812  0
C  C31  1  0.17490720  0.61975867  0.46584453  1  0  0.547697  0  3.790495  0  0  0.493041  0  4.089961  0  0  0.523807  0  4.086896  0  0  0.262508  0.472107  0  4.091623  0
C  C32  1  0.32510358  0.11975913  0.96583760  1  0  0.547901  0  3.790262  0  0  0.493089  0  4.089942  0  0  0.523855  0  4.086883  0  0  0.262472  0.472158  0  4.091595  0
C  C33  1  0.82508126  0.38024551  0.53415214  1  0  0.54742  0  3.790536  0  0  0.492799  0  4.089894  0  0  0.523572  0  4.086833  0  0  0.262397  0.471863  0  4.091555  0
C  C34  1  0.52391124  0.91665447  0.20658346  1  0  -0.1605  0  3.627438  0  0  -0.223114  0  3.882403  0  0  -0.222225  0  3.886815  0  0  -0.049623  -0.223565  0  3.879399  0
C  C35  1  0.02393458  0.58334409  0.29341699  1  0  -0.160069  0  3.626997  0  0  -0.223048  0  3.882341  0  0  -0.222162  0  3.886756  0  0  -0.049556  -0.223491  0  3.87933  0
C  C36  1  0.47607902  0.08334181  0.79341656  1  0  -0.160432  0  3.627384  0  0  -0.223164  0  3.882458  0  0  -0.222282  0  3.886883  0  0  -0.049605  -0.223622  0  3.879468  0
C  C37  1  0.97607546  0.41665481  0.70657938  1  0  -0.160452  0  3.627759  0  0  -0.22325  0  3.882736  0  0  -0.22237  0  3.887166  0  0  -0.049685  -0.223699  0  3.879732  0
C  C38  1  0.72433683  0.02523453  0.26354843  1  0  0.698768  0  3.851106  0  0  0.64659  0  4.160232  0  0  0.679659  0  4.151614  0  0  0.225233  0.62405  0  4.1654  0
C  C39  1  0.22435265  0.47476010  0.23645186  1  0  0.698822  0  3.850814  0  0  0.64679  0  4.159853  0  0  0.679859  0  4.151232  0  0  0.22541  0.624242  0  4.165028  0
C  C40  1  0.27564803  0.97476439  0.73645098  1  0  0.698917  0  3.851048  0  0  0.646865  0  4.160047  0  0  0.679938  0  4.151427  0  0  0.225386  0.624319  0  4.165221  0
C  C41  1  0.77565020  0.52523485  0.76354580  1  0  0.698915  0  3.851114  0  0  0.646928  0  4.160001  0  0  0.679997  0  4.151381  0  0  0.225484  0.62438  0  4.165177  0
N  N42  1  0.50814654  0.94812896  0.09966157  1  0  -0.146292  0  3.458706  0  0  -0.062984  0  3.68876  0  0  -0.081971  0  3.709059  0  0  -0.260845  -0.050237  0  3.674734  0
N  N43  1  0.00816836  0.55186945  0.40033653  1  0  -0.146374  0  3.45845  0  0  -0.063079  0  3.688532  0  0  -0.082067  0  3.708823  0  0  -0.261001  -0.050332  0  3.674518  0
N  N44  1  0.49183833  0.05187526  0.90034194  1  0  -0.146372  0  3.458967  0  0  -0.063025  0  3.688969  0  0  -0.082015  0  3.709277  0  0  -0.260922  -0.050282  0  3.674947  0
N  N45  1  0.99185607  0.44812683  0.59966425  1  0  -0.146399  0  3.458663  0  0  -0.063105  0  3.688657  0  0  -0.082105  0  3.708965  0  0  -0.260884  -0.050354  0  3.674633  0
O  O46  1  0.83366670  0.77512888  0.05979850  1  0  -0.644306  0  1.959942  0  0  -0.592026  0  2.212132  0  0  -0.616177  0  2.202547  0  0  -0.35247  -0.574953  0  2.218309  0
O  O47  1  0.33368965  0.72486689  0.44021210  1  0  -0.644089  0  1.959724  0  0  -0.591923  0  2.211866  0  0  -0.616077  0  2.202279  0  0  -0.352404  -0.574848  0  2.218045  0
O  O48  1  0.16630738  0.22486082  0.94020420  1  0  -0.643988  0  1.959264  0  0  -0.591973  0  2.211681  0  0  -0.616104  0  2.202047  0  0  -0.352373  -0.574901  0  2.217851  0
O  O49  1  0.66629881  0.27513738  0.55979977  1  0  -0.643881  0  1.95967  0  0  -0.591823  0  2.211906  0  0  -0.615953  0  2.202268  0  0  -0.352405  -0.574746  0  2.21808  0
O  O50  1  0.84520070  0.13373107  0.21915624  1  0  -0.624008  0  1.975758  0  0  -0.567293  0  2.202406  0  0  -0.591835  0  2.193954  0  0  -0.307226  -0.550226  0  2.207849  0
O  O51  1  0.34521806  0.36625260  0.28084010  1  0  -0.624189  0  1.9759  0  0  -0.567469  0  2.202468  0  0  -0.592012  0  2.194021  0  0  -0.307352  -0.550402  0  2.207911  0
O  O52  1  0.15478956  0.86625331  0.78083931  1  0  -0.62417  0  1.97589  0  0  -0.567446  0  2.202421  0  0  -0.591989  0  2.193965  0  0  -0.307312  -0.550377  0  2.207866  0
O  O53  1  0.65478119  0.63373706  0.71915499  1  0  -0.624137  0  1.975802  0  0  -0.567495  0  2.202386  0  0  -0.592038  0  2.193932  0  0  -0.307375  -0.550428  0  2.207829  0
O  O54  1  0.75682396  0.99466886  0.35688872  1  0  -0.731191  0  1.962438  0  0  -0.659598  0  2.198595  0  0  -0.688706  0  2.188059  0  0  -0.372863  -0.638746  0  2.205174  0
O  O55  1  0.25683217  0.50534467  0.14310510  1  0  -0.731277  0  1.962236  0  0  -0.659712  0  2.198328  0  0  -0.688823  0  2.187792  0  0  -0.372946  -0.638853  0  2.204899  0
O  O56  1  0.24318068  0.00533662  0.64310650  1  0  -0.731254  0  1.962359  0  0  -0.659701  0  2.198467  0  0  -0.688811  0  2.187931  0  0  -0.372907  -0.638835  0  2.205037  0
O  O57  1  0.74316528  0.49465686  0.85688990  1  0  -0.731237  0  1.962421  0  0  -0.659719  0  2.198474  0  0  -0.688827  0  2.187938  0  0  -0.3729  -0.638857  0  2.205041  0
O  O58  1  0.29574730  0.63311455  0.90831182  1  0  -0.911209  0  1.796382  0  0  -0.853744  0  1.989917  0  0  -0.87524  0  1.956718  0  0  -0.643567  -0.838178  0  2.013166  0
O  O59  1  0.79575312  0.86688354  0.59168574  1  0  -0.911183  0  1.796408  0  0  -0.853665  0  1.989911  0  0  -0.875162  0  1.956714  0  0  -0.643537  -0.838093  0  2.01316  0
O  O60  1  0.70424835  0.36687644  0.09168563  1  0  -0.911169  0  1.796373  0  0  -0.853694  0  1.989878  0  0  -0.87519  0  1.956681  0  0  -0.643564  -0.83813  0  2.013123  0
O  O61  1  0.20424433  0.13313520  0.40831783  1  0  -0.911254  0  1.7963  0  0  -0.85372  0  1.989821  0  0  -0.875215  0  1.956624  0  0  -0.643532  -0.838148  0  2.01307  0
