# generated using pymatgen
data_CuHC3N7
_symmetry_space_group_name_H-M   'P 1'
_cell_length_a   7.35600515
_cell_length_b   9.43126460
_cell_length_c   9.65366895
_cell_angle_alpha   90.00004495
_cell_angle_beta   90.00003279
_cell_angle_gamma   114.08261828
_symmetry_Int_Tables_number   1
_chemical_formula_structural   CuHC3N7
_chemical_formula_sum   'Cu4 H4 C12 N28'
_cell_volume   611.44184768
_cell_formula_units_Z   4
loop_
 _symmetry_equiv_pos_site_id
 _symmetry_equiv_pos_as_xyz
  1  'x, y, z'
loop_
 _atom_site_type_symbol
 _atom_site_label
 _atom_site_symmetry_multiplicity
 _atom_site_fract_x
 _atom_site_fract_y
 _atom_site_fract_z
 _atom_site_occupancy
 _atom_site_hle17_ddec_charge
 _atom_site_hle17_ddec_spin_density
 _atom_site_hle17_ddec_sum_bond_order
 _atom_site_hle17_magmom
 _atom_site_hse06_10hf_ddec_charge
 _atom_site_hse06_10hf_ddec_spin_density
 _atom_site_hse06_10hf_ddec_sum_bond_order
 _atom_site_hse06_10hf_magmom
 _atom_site_hse06_ddec_charge
 _atom_site_hse06_ddec_spin_density
 _atom_site_hse06_ddec_sum_bond_order
 _atom_site_hse06_magmom
 _atom_site_pbe_cm5_charge
 _atom_site_pbe_ddec_charge
 _atom_site_pbe_ddec_spin_density
 _atom_site_pbe_ddec_sum_bond_order
 _atom_site_pbe_magmom
Cu  Cu0  1  0.75789312  0.53325879  0.07737405  1  0.698054  -0.700911  2.073868  -0.513  0.639037  -0.796482  2.502753  -0.631  0.72055  -0.874495  2.444407  -0.717  0.810692  0.590571  -0.723337  2.541086  -0.56
Cu  Cu1  1  0.74210636  0.96673992  0.57737373  1  0.698062  0.700914  2.073734  0.513  0.639045  0.796495  2.502587  0.631  0.720624  0.874497  2.444253  0.717  0.810652  0.590577  0.723337  2.540903  0.56
Cu  Cu2  1  0.24211202  0.46674541  0.92262559  1  0.697994  -0.700915  2.07395  -0.513  0.639043  -0.796493  2.502705  -0.631  0.720617  -0.874498  2.444372  -0.717  0.810678  0.590585  -0.723328  2.541055  -0.56
Cu  Cu3  1  0.25788858  0.03325492  0.42262592  1  0.698056  0.700927  2.073755  0.513  0.639023  0.796497  2.50264  0.631  0.720603  0.874494  2.4443  0.717  0.810659  0.590569  0.723336  2.540948  0.56
H  H4  1  0.52373406  0.68670020  0.33190629  1  0.104532  0.000679  0.906746  0.001  0.114939  0.000404  0.95951  0.0  0.116005  0.000322  0.958139  0.0  0.140914  0.113962  0.000438  0.960541  0.0
H  H5  1  0.97626791  0.81329772  0.83190597  1  0.104531  -0.000681  0.906776  -0.001  0.114947  -0.000404  0.959524  0.0  0.116011  -0.000322  0.958155  0.0  0.140912  0.113967  -0.000438  0.960555  0.0
H  H6  1  0.47626089  0.31329464  0.66809647  1  0.104488  0.000682  0.906846  0.001  0.114941  0.000405  0.95956  0.0  0.116007  0.000322  0.958188  0.0  0.140911  0.113962  0.000438  0.960589  0.0
H  H7  1  0.02374210  0.18670537  0.16809471  1  0.1046  -0.00068  0.906808  -0.001  0.11496  -0.000404  0.959632  0.0  0.116024  -0.000322  0.958261  0.0  0.140916  0.113979  -0.000438  0.960659  0.0
C  C8  1  0.68403553  0.73949972  0.31937950  1  0.236199  0.004226  3.656211  0.005  0.188262  0.001083  3.940751  0.002  0.20542  0.000759  3.952855  0.001  0.15159  0.177742  0.001443  3.932083  0.002
C  C9  1  0.81596446  0.76049701  0.81937907  1  0.236123  -0.004223  3.656226  -0.005  0.188183  -0.001084  3.940743  -0.002  0.205339  -0.000759  3.952847  -0.001  0.151589  0.177663  -0.001444  3.932075  -0.002
C  C10  1  0.31596332  0.26049748  0.68062222  1  0.236185  0.004216  3.656028  0.005  0.188201  0.001084  3.940597  0.002  0.20536  0.000759  3.952701  0.001  0.15153  0.17768  0.001444  3.931928  0.002
C  C11  1  0.18403110  0.23950708  0.18062161  1  0.236119  -0.004211  3.656111  -0.005  0.188219  -0.001084  3.940657  -0.002  0.205381  -0.000761  3.952762  -0.001  0.151562  0.177708  -0.001444  3.931986  -0.002
C  C12  1  0.12812370  0.77236806  0.16545033  1  0.214369  0.001986  3.841793  0.001  0.199169  -0.000284  4.110382  -0.001  0.208419  0.00093  4.124191  0.001  0.216406  0.192686  -0.001115  4.101922  -0.002
C  C13  1  0.37187733  0.72763132  0.66545509  1  0.214266  -0.001985  3.841856  -0.001  0.199048  0.000284  4.110476  0.001  0.2083  -0.000931  4.124282  -0.001  0.21635  0.192559  0.001115  4.102014  0.002
C  C14  1  0.87187068  0.22763371  0.83454620  1  0.214273  0.001985  3.841855  0.001  0.199145  -0.000284  4.110339  -0.001  0.208398  0.000929  4.124149  0.001  0.21636  0.19265  -0.001116  4.101888  -0.002
C  C15  1  0.62812544  0.27236823  0.33454662  1  0.214273  -0.001992  3.841802  -0.001  0.199082  0.000284  4.110383  0.001  0.208334  -0.000931  4.12419  -0.001  0.216372  0.192594  0.001116  4.101927  0.002
C  C16  1  0.97770504  0.79524639  0.24548748  1  0.256508  -0.001671  3.824467  -0.001  0.238438  -0.000117  4.083396  0.001  0.254191  -0.000855  4.097482  0.0  0.217672  0.22789  0.000587  4.074656  0.002
C  C17  1  0.52229311  0.70475484  0.74549102  1  0.256479  0.001639  3.824603  0.001  0.238403  0.000117  4.083568  -0.001  0.254159  0.000855  4.097658  0.0  0.217659  0.227859  -0.000588  4.074821  -0.002
C  C18  1  0.02229226  0.20475310  0.75451217  1  0.256591  -0.001635  3.82452  -0.001  0.238495  -0.000116  4.083442  0.001  0.25425  -0.000856  4.097527  0.0  0.217686  0.227947  0.000587  4.074699  0.002
C  C19  1  0.47770811  0.29524701  0.25450967  1  0.256562  0.001641  3.824584  0.001  0.238482  0.000116  4.083519  -0.001  0.254235  0.000857  4.097607  0.0  0.217681  0.227938  -0.000588  4.07478  -0.002
N  N20  1  0.22782976  0.64722972  0.02399840  1  -0.075981  -0.070421  3.254398  -0.089  -0.053313  -0.053917  3.593796  -0.072  -0.071472  -0.044568  3.614569  -0.062  -0.132214  -0.043679  -0.057651  3.582082  -0.074
N  N21  1  0.27217362  0.85277180  0.52400423  1  -0.075982  0.070416  3.254284  0.089  -0.05333  0.05392  3.593706  0.072  -0.071486  0.044568  3.614477  0.062  -0.132212  -0.043697  0.057656  3.581981  0.074
N  N22  1  0.77217027  0.35276980  0.97600021  1  -0.075963  -0.070412  3.25426  -0.089  -0.053329  -0.053922  3.593688  -0.072  -0.07147  -0.044567  3.614441  -0.062  -0.132213  -0.043692  -0.057656  3.58197  -0.074
N  N23  1  0.72782446  0.14722654  0.47599749  1  -0.076009  0.070402  3.254148  0.089  -0.053343  0.053921  3.593551  0.072  -0.071502  0.044568  3.614326  0.062  -0.132195  -0.043706  0.057657  3.58182  0.074
N  N24  1  0.80545209  0.85831177  0.39627054  1  -0.245702  -0.006414  3.128816  -0.007  -0.222276  -0.001093  3.459641  -0.001  -0.240718  -0.000972  3.476462  -0.001  -0.248883  -0.210209  -0.001349  3.448913  -0.001
N  N25  1  0.69455426  0.64168398  0.89627102  1  -0.245727  0.006386  3.12873  0.007  -0.222297  0.001091  3.459596  0.001  -0.240718  0.000971  3.476387  0.001  -0.248926  -0.210228  0.001347  3.448869  0.001
N  N26  1  0.19454363  0.14168193  0.60373118  1  -0.245662  -0.006399  3.128749  -0.007  -0.222231  -0.001093  3.459601  -0.001  -0.240672  -0.000972  3.476421  -0.001  -0.248815  -0.210169  -0.00135  3.448875  -0.001
N  N27  1  0.30545752  0.35832260  0.10372656  1  -0.245761  0.006387  3.128847  0.007  -0.222357  0.001093  3.459677  0.001  -0.240799  0.000973  3.476489  0.001  -0.248864  -0.210291  0.001349  3.44896  0.001
N  N28  1  0.99342889  0.89382009  0.34798844  1  -0.231057  0.078982  3.248677  0.101  -0.204117  0.056781  3.575021  0.077  -0.231017  0.047077  3.59521  0.067  -0.258891  -0.18798  0.060945  3.562852  0.08
N  N29  1  0.50657661  0.60617673  0.84798983  1  -0.230893  -0.078935  3.248494  -0.101  -0.204001  -0.056788  3.574862  -0.077  -0.230913  -0.047081  3.595066  -0.067  -0.258864  -0.187867  -0.060953  3.562696  -0.08
N  N30  1  0.00656782  0.10617824  0.65201328  1  -0.231044  0.078958  3.248771  0.101  -0.204125  0.056783  3.575126  0.077  -0.23103  0.04708  3.595324  0.067  -0.258873  -0.187984  0.060949  3.562941  0.08
N  N31  1  0.49343144  0.39382518  0.15201292  1  -0.230959  -0.078947  3.248775  -0.101  -0.204014  -0.056789  3.575109  -0.077  -0.230903  -0.047081  3.595289  -0.067  -0.258864  -0.187875  -0.06095  3.562937  -0.08
N  N32  1  0.06222968  0.65003778  0.07872885  1  -0.263252  -0.06594  3.198758  -0.083  -0.239608  -0.049464  3.515178  -0.066  -0.262125  -0.040112  3.534689  -0.056  -0.243803  -0.226164  -0.054449  3.503969  -0.07
N  N33  1  0.43777318  0.84996265  0.57873268  1  -0.26329  0.065951  3.198602  0.083  -0.239626  0.049463  3.515012  0.066  -0.262159  0.040116  3.534541  0.056  -0.24388  -0.226187  0.05445  3.503801  0.07
N  N34  1  0.93776958  0.34996288  0.92126873  1  -0.263254  -0.065956  3.198692  -0.083  -0.239603  -0.049463  3.515036  -0.066  -0.262136  -0.040113  3.534566  -0.056  -0.243796  -0.22616  -0.05445  3.503834  -0.07
N  N35  1  0.56222686  0.15003687  0.42126800  1  -0.26321  0.065953  3.19857  0.083  -0.239555  0.049462  3.514974  0.066  -0.262087  0.040115  3.534502  0.056  -0.243819  -0.226116  0.05445  3.503763  0.07
N  N36  1  0.78579741  0.69618251  0.22381688  1  -0.390939  -0.078328  3.231197  -0.1  -0.3591  -0.055168  3.543201  -0.074  -0.393968  -0.044637  3.559961  -0.063  -0.357011  -0.337131  -0.059643  3.532078  -0.077
N  N37  1  0.71420441  0.80381527  0.72381851  1  -0.390886  0.078333  3.231148  0.1  -0.359025  0.055168  3.543113  0.074  -0.393906  0.044639  3.559891  0.063  -0.356961  -0.337056  0.059644  3.531981  0.077
N  N38  1  0.21419716  0.30381695  0.77618277  1  -0.390939  -0.078341  3.231124  -0.1  -0.359106  -0.055165  3.543146  -0.074  -0.393987  -0.044637  3.55992  -0.063  -0.356991  -0.33714  -0.059644  3.532025  -0.077
N  N39  1  0.28579876  0.19618775  0.27618218  1  -0.390958  0.078329  3.231159  0.1  -0.359112  0.055168  3.543146  0.074  -0.393993  0.044639  3.55992  0.063  -0.357002  -0.337143  0.059645  3.532018  0.077
N  N40  1  0.38702595  0.76336471  0.07476259  1  -0.038995  -0.005105  2.874132  -0.007  -0.039256  -0.004737  3.179339  -0.006  -0.034233  -0.001248  3.190251  -0.002  -0.085104  -0.041727  -0.007981  3.171866  -0.01
N  N41  1  0.11297672  0.73663803  0.57477138  1  -0.039025  0.005088  2.874167  0.007  -0.039289  0.004736  3.179399  0.006  -0.034268  0.001249  3.190312  0.002  -0.085104  -0.041765  0.00798  3.171925  0.01
N  N42  1  0.61297195  0.23663595  0.92523291  1  -0.039004  -0.005107  2.874029  -0.007  -0.039269  -0.004738  3.179272  -0.006  -0.034248  -0.00125  3.190182  -0.002  -0.08513  -0.041742  -0.007982  3.171799  -0.01
N  N43  1  0.88702409  0.26336034  0.42523138  1  -0.038956  0.005122  2.874037  0.007  -0.039209  0.004736  3.179244  0.006  -0.034188  0.001249  3.190158  0.002  -0.085103  -0.041686  0.007981  3.17177  0.01
N  N44  1  0.32757140  0.84443045  0.16460099  1  -0.263748  -0.015117  2.884924  -0.017  -0.262184  -0.007046  3.182566  -0.008  -0.2711  -0.004591  3.190008  -0.005  -0.211358  -0.255965  -0.009687  3.177577  -0.011
N  N45  1  0.17243002  0.65557240  0.66460975  1  -0.263629  0.015124  2.884846  0.017  -0.262047  0.007045  3.182488  0.008  -0.270963  0.004592  3.189933  0.005  -0.211269  -0.25583  0.009687  3.1775  0.011
N  N46  1  0.67242298  0.15557132  0.83539348  1  -0.263706  -0.015117  2.884889  -0.017  -0.262165  -0.007046  3.182517  -0.008  -0.271084  -0.004591  3.189964  -0.005  -0.21133  -0.255944  -0.009688  3.177528  -0.011
N  N47  1  0.82757216  0.34442599  0.33539404  1  -0.263732  0.015117  2.884924  0.017  -0.262172  0.007046  3.182573  0.008  -0.271086  0.004591  3.190014  0.005  -0.211317  -0.255954  0.009686  3.177587  0.011
