# generated using pymatgen
data_DyPH15C21NO11
_symmetry_space_group_name_H-M   'P 1'
_cell_length_a   11.57272357
_cell_length_b   14.97089559
_cell_length_c   17.45143169
_cell_angle_alpha   89.99994605
_cell_angle_beta   90.00004956
_cell_angle_gamma   91.32367759
_symmetry_Int_Tables_number   1
_chemical_formula_structural   DyPH15C21NO11
_chemical_formula_sum   'Dy4 P4 H60 C84 N4 O44'
_cell_volume   3022.72414331
_cell_formula_units_Z   4
loop_
 _symmetry_equiv_pos_site_id
 _symmetry_equiv_pos_as_xyz
  1  'x, y, z'
loop_
 _atom_site_type_symbol
 _atom_site_label
 _atom_site_symmetry_multiplicity
 _atom_site_fract_x
 _atom_site_fract_y
 _atom_site_fract_z
 _atom_site_occupancy
 _atom_site_pbe_bader_charge
 _atom_site_pbe_bader_spin_density
 _atom_site_pbe_cm5_charge
 _atom_site_pbe_ddec_charge
 _atom_site_pbe_ddec_spin_density
 _atom_site_pbe_ddec_sum_bond_order
 _atom_site_pbe_magmom
Dy  Dy0  1  0.92253274  0.90566759  0.92540707  1  2.192094  0  1.549484  2.102671  0  2.177651  0
Dy  Dy1  1  0.57746760  0.59433325  0.42540686  1  2.192085  0  1.549477  2.102665  0  2.177659  0
Dy  Dy2  1  0.07746699  0.09433336  0.07459272  1  2.192079  0  1.549481  2.102672  0  2.177661  0
Dy  Dy3  1  0.42253211  0.40566703  0.57459293  1  2.192071  0  1.549491  2.102682  0  2.177675  0
P  P4  1  0.66556736  0.74961822  0.92269553  1  2.763544  0  0.28028  0.882318  0  4.790789  0
P  P5  1  0.83443209  0.75038195  0.42269591  1  2.763592  0  0.280288  0.882336  0  4.790831  0
P  P6  1  0.33443235  0.25038206  0.07730425  1  2.763654  0  0.280315  0.882372  0  4.790674  0
P  P7  1  0.16556846  0.24961767  0.57730502  1  2.763594  0  0.280334  0.882368  0  4.790835  0
H  H8  1  0.89237346  0.36306390  0.17164219  1  0.65496  0  0.307487  0.355767  0  0.973665  0
H  H9  1  0.60762492  0.13693598  0.67164186  1  0.655004  0  0.307526  0.355822  0  0.973578  0
H  H10  1  0.10762624  0.63693638  0.82835703  1  0.654954  0  0.307505  0.3558  0  0.973603  0
H  H11  1  0.39237390  0.86306363  0.32835735  1  0.654953  0  0.307494  0.355775  0  0.973637  0
H  H12  1  0.81448917  0.00573848  0.77785274  1  0.652748  0  0.304947  0.413536  0  0.907666  0
H  H13  1  0.68551022  0.49426128  0.27785227  1  0.652739  0  0.304959  0.413568  0  0.907636  0
H  H14  1  0.18551050  0.99426046  0.22214761  1  0.652739  0  0.304951  0.41353  0  0.907663  0
H  H15  1  0.31449035  0.50573900  0.72214751  1  0.652742  0  0.304912  0.413476  0  0.907738  0
H  H16  1  0.74337175  0.99516382  0.85388104  1  0.624306  0  0.322963  0.408253  0  0.890198  0
H  H17  1  0.75662760  0.50483576  0.35388043  1  0.624311  0  0.322968  0.408269  0  0.890185  0
H  H18  1  0.25662794  0.00483579  0.14611932  1  0.624305  0  0.322968  0.408263  0  0.890204  0
H  H19  1  0.24337211  0.49516452  0.64611935  1  0.624302  0  0.323  0.408336  0  0.890189  0
H  H20  1  0.59928846  0.88915470  0.02297844  1  0.133605  0  0.115118  0.119697  0  0.989546  0
H  H21  1  0.90071139  0.61084723  0.52297945  1  0.133648  0  0.115127  0.119714  0  0.989505  0
H  H22  1  0.40071307  0.11084892  0.97701962  1  0.133662  0  0.115123  0.119717  0  0.989509  0
H  H23  1  0.09928826  0.38915104  0.47702033  1  0.133654  0  0.115117  0.119716  0  0.989498  0
H  H24  1  0.41017456  0.95960354  0.04993718  1  0.083573  0  0.105869  0.104328  0  1.016427  0
H  H25  1  0.08982438  0.54039744  0.54993807  1  0.083568  0  0.105856  0.104331  0  1.016412  0
H  H26  1  0.58982603  0.04039741  0.95006146  1  0.08362  0  0.105866  0.104349  0  1.016387  0
H  H27  1  0.91017529  0.45960150  0.45006114  1  0.083532  0  0.105849  0.104326  0  1.016448  0
H  H28  1  0.23878580  0.77213375  0.89940447  1  0.117626  0  0.108032  0.113581  0  1.01138  0
H  H29  1  0.26121440  0.72786485  0.39940369  1  0.117662  0  0.108053  0.11357  0  1.011388  0
H  H30  1  0.76121471  0.22786453  0.10059588  1  0.117606  0  0.10806  0.113614  0  1.011472  0
H  H31  1  0.73878531  0.27213543  0.60059610  1  0.117653  0  0.108045  0.113577  0  1.01139  0
H  H32  1  0.42594117  0.70172999  0.87030895  1  0.085061  0  0.101695  0.105145  0  1.031187  0
H  H33  1  0.07405989  0.79826998  0.37030857  1  0.085062  0  0.101699  0.105174  0  1.031183  0
H  H34  1  0.57406019  0.29826762  0.12969485  1  0.08507  0  0.101694  0.105209  0  1.031116  0
H  H35  1  0.92593987  0.20173230  0.62969408  1  0.085069  0  0.101707  0.105206  0  1.031153  0
H  H36  1  0.53322000  0.66533577  0.04924914  1  0.089424  0  0.107272  0.108522  0  1.005918  0
H  H37  1  0.96678078  0.83466748  0.54924886  1  0.089799  0  0.107269  0.108531  0  1.005911  0
H  H38  1  0.46677973  0.33466518  0.95075007  1  0.089788  0  0.107279  0.108535  0  1.005893  0
H  H39  1  0.03321981  0.16533347  0.45075150  1  0.089803  0  0.107261  0.108534  0  1.005935  0
H  H40  1  0.58252566  0.54409304  0.14065202  1  0.108211  0  0.110729  0.11426  0  1.002691  0
H  H41  1  0.91747608  0.95590944  0.64065161  1  0.108242  0  0.110752  0.114246  0  1.002733  0
H  H42  1  0.41747493  0.45590791  0.85934720  1  0.108193  0  0.110727  0.11425  0  1.002695  0
H  H43  1  0.08252451  0.04409151  0.35934875  1  0.108266  0  0.110729  0.114206  0  1.002744  0
H  H44  1  0.91675850  0.52269868  0.03514330  1  0.094856  0  0.111547  0.114966  0  1.003482  0
H  H45  1  0.58324042  0.97730056  0.53514440  1  0.094873  0  0.111567  0.114989  0  1.003411  0
H  H46  1  0.08324207  0.47730160  0.96485649  1  0.094878  0  0.111557  0.114952  0  1.003485  0
H  H47  1  0.41675838  0.02269838  0.46485653  1  0.094854  0  0.111552  0.114971  0  1.003484  0
H  H48  1  0.87010343  0.64439706  0.94417467  1  0.118315  0  0.115227  0.125873  0  1.009381  0
H  H49  1  0.62989602  0.85560175  0.44417600  1  0.118329  0  0.115236  0.125888  0  1.009375  0
H  H50  1  0.12989626  0.35560256  0.05582454  1  0.118325  0  0.11523  0.125893  0  1.009363  0
H  H51  1  0.37010452  0.14439719  0.55582436  1  0.118319  0  0.115223  0.125886  0  1.009369  0
H  H52  1  0.71181258  0.82426539  0.77559526  1  0.123025  0  0.108052  0.113593  0  1.026184  0
H  H53  1  0.78818669  0.67573494  0.27559568  1  0.123012  0  0.108051  0.113591  0  1.026213  0
H  H54  1  0.28818711  0.17573422  0.22440395  1  0.122999  0  0.108048  0.113573  0  1.026214  0
H  H55  1  0.21181306  0.32426668  0.72440468  1  0.123015  0  0.108038  0.113579  0  1.026203  0
H  H56  1  0.66813887  0.76804148  0.64259129  1  0.12045  0  0.1054  0.110083  0  1.018886  0
H  H57  1  0.83186023  0.73195899  0.14259168  1  0.120433  0  0.105423  0.110102  0  1.01887  0
H  H58  1  0.33186084  0.23195880  0.35740793  1  0.120452  0  0.105413  0.110096  0  1.01889  0
H  H59  1  0.16813948  0.26804129  0.85740925  1  0.120428  0  0.105412  0.110101  0  1.018868  0
H  H60  1  0.55230188  0.51551763  0.73508405  1  0.125193  0  0.112811  0.118185  0  1.021623  0
H  H61  1  0.94769991  0.98448207  0.23508431  1  0.12521  0  0.112838  0.118222  0  1.021606  0
H  H62  1  0.44770038  0.48448132  0.26491516  1  0.125202  0  0.112828  0.118226  0  1.021597  0
H  H63  1  0.05230066  0.01551821  0.76491547  1  0.12521  0  0.112843  0.11822  0  1.02163  0
H  H64  1  0.59573259  0.56950239  0.86758435  1  0.040547  0  0.102648  0.096467  0  1.012234  0
H  H65  1  0.90426766  0.93049784  0.36758462  1  0.040532  0  0.102652  0.096496  0  1.012173  0
H  H66  1  0.40426883  0.43049723  0.13241487  1  0.040527  0  0.102627  0.096461  0  1.012203  0
H  H67  1  0.09573205  0.06950244  0.63241573  1  0.040556  0  0.102641  0.096443  0  1.012221  0
C  C68  1  0.52449089  0.79055742  0.94574344  1  -0.591299  0  -0.022649  -0.150198  0  4.003399  0
C  C69  1  0.97551034  0.70944339  0.44574336  1  -0.591325  0  -0.022655  -0.150251  0  4.003458  0
C  C70  1  0.47551143  0.20944353  0.05425806  1  -0.591286  0  -0.022625  -0.150122  0  4.003187  0
C  C71  1  0.02449108  0.29055622  0.55425814  1  -0.591296  0  -0.022642  -0.150194  0  4.003252  0
C  C72  1  0.51979317  0.86263295  0.99710768  1  -0.034939  0  -0.074535  -0.072388  0  3.965891  0
C  C73  1  0.98020730  0.63736914  0.49710766  1  -0.034929  0  -0.074526  -0.072323  0  3.965799  0
C  C74  1  0.48020829  0.13736800  0.00289154  1  -0.034941  0  -0.074553  -0.072369  0  3.965626  0
C  C75  1  0.01979156  0.36263180  0.50289098  1  -0.034949  0  -0.074522  -0.072319  0  3.965642  0
C  C76  1  0.41437423  0.90202756  0.01196038  1  -0.072876  0  -0.078944  -0.087413  0  3.96006  0
C  C77  1  0.08562463  0.59797212  0.51196064  1  -0.072922  0  -0.07893  -0.08743  0  3.960004  0
C  C78  1  0.58562722  0.09797339  0.98803941  1  -0.072949  0  -0.078913  -0.087458  0  3.959969  0
C  C79  1  0.91437416  0.40202615  0.48803914  1  -0.072863  0  -0.078917  -0.087497  0  3.960082  0
C  C80  1  0.31323270  0.87006195  0.97614773  1  0.004412  0  -0.007491  -0.024272  0  3.923644  0
C  C81  1  0.18676591  0.62993790  0.47614755  1  0.004374  0  -0.007535  -0.024409  0  3.923746  0
C  C82  1  0.68676960  0.12993833  0.02385148  1  0.004493  0  -0.007514  -0.024307  0  3.923714  0
C  C83  1  0.81323119  0.37006171  0.52385223  1  0.004441  0  -0.007514  -0.024237  0  3.923659  0
C  C84  1  0.31799765  0.79655406  0.92665325  1  0.023963  0  -0.074593  -0.070638  0  3.924353  0
C  C85  1  0.18200172  0.70344451  0.42665588  1  0.023955  0  -0.074568  -0.070501  0  3.924309  0
C  C86  1  0.68200465  0.20344622  0.07334710  1  0.023861  0  -0.074601  -0.070632  0  3.924507  0
C  C87  1  0.81799793  0.29655376  0.57334677  1  0.02392  0  -0.074604  -0.070615  0  3.92445  0
C  C88  1  0.42314590  0.75698862  0.91095774  1  -0.122936  0  -0.081091  -0.082639  0  3.983336  0
C  C89  1  0.07685435  0.74301130  0.41095684  1  -0.122921  0  -0.081115  -0.082722  0  3.983359  0
C  C90  1  0.57685548  0.24300966  0.08904319  1  -0.122947  0  -0.081141  -0.082824  0  3.983394  0
C  C91  1  0.92314451  0.25698964  0.58904352  1  -0.122944  0  -0.081118  -0.082752  0  3.983444  0
C  C92  1  0.20082856  0.91654101  0.98772610  1  1.600693  0  0.238292  0.661371  0  4.135524  0
C  C93  1  0.29916918  0.58345816  0.48772602  1  1.600772  0  0.238397  0.661545  0  4.135327  0
C  C94  1  0.79917025  0.08345793  0.01227311  1  1.600789  0  0.238332  0.661409  0  4.135382  0
C  C95  1  0.70083052  0.41654212  0.51227319  1  1.600756  0  0.238317  0.661295  0  4.135536  0
C  C96  1  0.69775813  0.66181621  0.99019434  1  -0.560986  0  -0.013327  -0.136877  0  3.972396  0
C  C97  1  0.80224140  0.83818388  0.49019520  1  -0.560954  0  -0.013378  -0.136938  0  3.972343  0
C  C98  1  0.30224071  0.33818407  0.00980488  1  -0.560938  0  -0.013379  -0.136972  0  3.972478  0
C  C99  1  0.19775828  0.16181573  0.50980573  1  -0.560984  0  -0.013345  -0.136941  0  3.972427  0
C  C100  1  0.61712764  0.63395187  0.04582481  1  -0.045649  0  -0.076142  -0.078182  0  3.98651  0
C  C101  1  0.88287310  0.86605004  0.54582561  1  -0.04604  0  -0.076151  -0.078179  0  3.986506  0
C  C102  1  0.38287207  0.36604840  0.95417440  1  -0.046002  0  -0.076096  -0.078094  0  3.986412  0
C  C103  1  0.11712749  0.13395091  0.45417532  1  -0.04602  0  -0.076134  -0.078173  0  3.986474  0
C  C104  1  0.64427505  0.56607174  0.09699601  1  -0.050222  0  -0.074405  -0.082931  0  3.947622  0
C  C105  1  0.85572575  0.93393011  0.59699501  1  -0.050284  0  -0.074405  -0.082901  0  3.947791  0
C  C106  1  0.35572466  0.43392854  0.90300378  1  -0.050232  0  -0.074403  -0.082935  0  3.947651  0
C  C107  1  0.14427482  0.06607017  0.40300535  1  -0.050284  0  -0.074409  -0.082886  0  3.947706  0
C  C108  1  0.75186576  0.52534605  0.09271675  1  -0.011221  0  -0.01144  -0.042322  0  3.980575  0
C  C109  1  0.74813498  0.97465381  0.59271738  1  -0.010863  0  -0.011451  -0.042378  0  3.980623  0
C  C110  1  0.24813481  0.47465423  0.90728361  1  -0.011214  0  -0.011468  -0.042422  0  3.980649  0
C  C111  1  0.25186470  0.02534580  0.40728298  1  -0.011246  0  -0.011441  -0.042329  0  3.980644  0
C  C112  1  0.83292373  0.55406195  0.03752358  1  -0.038597  0  -0.070196  -0.07798  0  3.928768  0
C  C113  1  0.66707694  0.94593796  0.53752534  1  -0.038986  0  -0.070236  -0.078011  0  3.928713  0
C  C114  1  0.16707599  0.44593899  0.96247563  1  -0.038653  0  -0.070216  -0.077942  0  3.928768  0
C  C115  1  0.33292362  0.05406165  0.46247560  1  -0.038594  0  -0.070215  -0.078001  0  3.92881  0
C  C116  1  0.80641716  0.62196904  0.98646518  1  0.001988  0  -0.064656  -0.057019  0  3.92778  0
C  C117  1  0.69358238  0.87803105  0.48646652  1  0.002004  0  -0.064617  -0.056985  0  3.927754  0
C  C118  1  0.19358255  0.37803123  0.01353404  1  0.001998  0  -0.064639  -0.057034  0  3.927836  0
C  C119  1  0.30641731  0.12196856  0.51353441  1  0.001997  0  -0.064655  -0.057025  0  3.927863  0
C  C120  1  0.77720818  0.45139255  0.14706935  1  1.535127  0  0.237839  0.583798  0  4.117093  0
C  C121  1  0.72279105  0.04860802  0.64706973  1  1.53515  0  0.237884  0.583885  0  4.11696  0
C  C122  1  0.22279325  0.54860773  0.85293101  1  1.535115  0  0.237867  0.583871  0  4.117015  0
C  C123  1  0.27720691  0.95139159  0.35293005  1  1.535138  0  0.237848  0.583799  0  4.117039  0
C  C124  1  0.65361241  0.70068628  0.82915308  1  -0.641673  0  -0.021197  -0.153233  0  4.016014  0
C  C125  1  0.84638779  0.79931399  0.32915400  1  -0.641745  0  -0.021205  -0.153243  0  4.016016  0
C  C126  1  0.34638813  0.29931266  0.17084671  1  -0.641718  0  -0.021246  -0.153365  0  4.01617  0
C  C127  1  0.15361278  0.20068629  0.67084636  1  -0.641748  0  -0.021196  -0.153233  0  4.016029  0
C  C128  1  0.67646312  0.75688854  0.76617084  1  -0.083949  0  -0.074801  -0.068669  0  3.952519  0
C  C129  1  0.82353611  0.74311113  0.26617179  1  -0.08395  0  -0.074799  -0.068672  0  3.952552  0
C  C130  1  0.32353657  0.24311108  0.23382723  1  -0.083811  0  -0.074771  -0.068597  0  3.952632  0
C  C131  1  0.17646185  0.25688848  0.73382914  1  -0.083948  0  -0.074771  -0.068659  0  3.952659  0
C  C132  1  0.65230835  0.72595634  0.69263017  1  0.023235  0  -0.073587  -0.07619  0  3.932972  0
C  C133  1  0.84769167  0.77404408  0.19263112  1  0.023269  0  -0.07362  -0.076237  0  3.933058  0
C  C134  1  0.34769136  0.27404394  0.30736961  1  0.023096  0  -0.073596  -0.07621  0  3.933  0
C  C135  1  0.15230890  0.22595620  0.80736810  1  0.02325  0  -0.073602  -0.076221  0  3.933135  0
C  C136  1  0.60458186  0.63995682  0.68194167  1  -0.014092  0  -0.003868  -0.017126  0  3.922537  0
C  C137  1  0.89541723  0.86004161  0.18194200  1  -0.014087  0  -0.003844  -0.017021  0  3.922485  0
C  C138  1  0.39541781  0.36004213  0.31805754  1  -0.013939  0  -0.003871  -0.017109  0  3.922467  0
C  C139  1  0.10458332  0.13995801  0.81805893  1  -0.013941  0  -0.003916  -0.017114  0  3.922511  0
C  C140  1  0.58615617  0.58303967  0.74468611  1  0.022124  0  -0.072555  -0.075137  0  3.923493  0
C  C141  1  0.91384479  0.91696069  0.24468641  1  0.022113  0  -0.072559  -0.075185  0  3.923301  0
C  C142  1  0.41384525  0.41695995  0.25531310  1  0.022128  0  -0.072577  -0.075266  0  3.923467  0
C  C143  1  0.08615576  0.08303892  0.75531395  1  0.022099  0  -0.072575  -0.075217  0  3.923435  0
C  C144  1  0.61085588  0.61324761  0.81839697  1  -0.052901  0  -0.079792  -0.080039  0  4.007024  0
C  C145  1  0.88914517  0.88675267  0.31839727  1  -0.052894  0  -0.079842  -0.08011  0  4.006855  0
C  C146  1  0.38914554  0.38675200  0.18160225  1  -0.052912  0  -0.07976  -0.079927  0  4.006886  0
C  C147  1  0.11085452  0.11324694  0.68160366  1  -0.052888  0  -0.079812  -0.080007  0  4.0069  0
C  C148  1  0.57213396  0.60935336  0.60323295  1  1.580031  0  0.233131  0.650851  0  4.161727  0
C  C149  1  0.92786595  0.89064715  0.10323327  1  1.58004  0  0.233085  0.650657  0  4.161873  0
C  C150  1  0.42786746  0.39064625  0.39676684  1  1.579851  0  0.233151  0.650901  0  4.161615  0
C  C151  1  0.07213464  0.10935380  0.89676652  1  1.579735  0  0.233128  0.650815  0  4.161704  0
N  N152  1  0.02016136  0.77890418  0.81796123  1  0.829496  0  0.0876  0.726291  0  4.425991  0
N  N153  1  0.47983791  0.72109585  0.31796115  1  0.829552  0  0.087496  0.726045  0  4.426255  0
N  N154  1  0.97983660  0.22109543  0.18203912  1  0.829514  0  0.087564  0.726135  0  4.42611  0
N  N155  1  0.52016266  0.27890443  0.68203863  1  0.829303  0  0.087516  0.726114  0  4.426247  0
O  O156  1  0.75248301  0.82605145  0.92326625  1  -1.425196  0  -0.446392  -0.746978  0  2.382736  0
O  O157  1  0.74751644  0.67394872  0.42326722  1  -1.425205  0  -0.446398  -0.746968  0  2.382756  0
O  O158  1  0.24751668  0.17394817  0.07673296  1  -1.425276  0  -0.446408  -0.746965  0  2.382655  0
O  O159  1  0.25248327  0.32605156  0.57673314  1  -1.4252  0  -0.446424  -0.746978  0  2.382724  0
O  O160  1  0.20471994  0.99031244  0.02440511  1  -1.205554  0  -0.393787  -0.680545  0  2.311929  0
O  O161  1  0.29527897  0.50968857  0.52440442  1  -1.205637  0  -0.393859  -0.680636  0  2.312029  0
O  O162  1  0.79527892  0.00968851  0.97559525  1  -1.205674  0  -0.393788  -0.68051  0  2.311909  0
O  O163  1  0.70472160  0.49031171  0.47559594  1  -1.205652  0  -0.393776  -0.680473  0  2.311929  0
O  O164  1  0.11107132  0.87972176  0.95924476  1  -1.189356  0  -0.398203  -0.67397  0  2.347927  0
O  O165  1  0.38892897  0.62027745  0.45924470  1  -1.189319  0  -0.398241  -0.674046  0  2.347745  0
O  O166  1  0.88893009  0.12027786  0.04075446  1  -1.189335  0  -0.39825  -0.674017  0  2.347731  0
O  O167  1  0.61107156  0.37972150  0.54075566  1  -1.189317  0  -0.39824  -0.673956  0  2.347801  0
O  O168  1  0.70926273  0.42685483  0.19824451  1  -1.167192  0  -0.294895  -0.52002  0  2.157845  0
O  O169  1  0.79073484  0.07314568  0.69824549  1  -1.167181  0  -0.294912  -0.520044  0  2.157796  0
O  O170  1  0.29073696  0.57314478  0.80175585  1  -1.167201  0  -0.294946  -0.520049  0  2.15782  0
O  O171  1  0.20926139  0.92685392  0.30175602  1  -1.167231  0  -0.294913  -0.520009  0  2.157832  0
O  O172  1  0.87859095  0.41413159  0.13462113  1  -1.166366  0  -0.324759  -0.470601  0  2.311288  0
O  O173  1  0.62140829  0.08586967  0.63462086  1  -1.166444  0  -0.324813  -0.470682  0  2.311211  0
O  O174  1  0.12141047  0.58586803  0.86537808  1  -1.166328  0  -0.324753  -0.470623  0  2.311221  0
O  O175  1  0.37859057  0.91413128  0.36537836  1  -1.166348  0  -0.324754  -0.470606  0  2.311231  0
O  O176  1  0.60004416  0.65830595  0.54655965  1  -1.178826  0  -0.386576  -0.632087  0  2.248833  0
O  O177  1  0.89995304  0.84169328  0.04655942  1  -1.178841  0  -0.386559  -0.631985  0  2.248783  0
O  O178  1  0.39995466  0.34169366  0.45344014  1  -1.178832  0  -0.386597  -0.632107  0  2.248761  0
O  O179  1  0.10004493  0.15830699  0.95344151  1  -1.178721  0  -0.386538  -0.632036  0  2.248719  0
O  O180  1  0.51799800  0.53474954  0.59648223  1  -1.217926  0  -0.426107  -0.738009  0  2.448256  0
O  O181  1  0.98200098  0.96524897  0.09648137  1  -1.217914  0  -0.426081  -0.737945  0  2.44838  0
O  O182  1  0.48200080  0.46524940  0.40351756  1  -1.217864  0  -0.426085  -0.738002  0  2.448255  0
O  O183  1  0.01800044  0.03475064  0.90351784  1  -1.217884  0  -0.426104  -0.737991  0  2.448271  0
O  O184  1  0.97177270  0.75180667  0.87961950  1  -0.554901  0  -0.214927  -0.501005  0  2.033131  0
O  O185  1  0.52822756  0.74819354  0.37961971  1  -0.554903  0  -0.214868  -0.500863  0  2.033043  0
O  O186  1  0.02822699  0.24819294  0.12038029  1  -0.554897  0  -0.214893  -0.500922  0  2.033087  0
O  O187  1  0.47177301  0.25180674  0.62038008  1  -0.554708  0  -0.214906  -0.500945  0  2.033111  0
O  O188  1  0.00900475  0.86085141  0.80002055  1  -0.554663  0  -0.224103  -0.504912  0  1.985436  0
O  O189  1  0.49099364  0.63914863  0.30002111  1  -0.554695  0  -0.224085  -0.504866  0  1.985535  0
O  O190  1  0.99099321  0.13914820  0.19997924  1  -0.554668  0  -0.224093  -0.504868  0  1.985462  0
O  O191  1  0.50900607  0.36085165  0.69997925  1  -0.554664  0  -0.2241  -0.504882  0  1.985477  0
O  O192  1  0.07787965  0.72726748  0.77707351  1  -0.514986  0  -0.164667  -0.397412  0  1.929468  0
O  O193  1  0.42211959  0.77273326  0.27707392  1  -0.515001  0  -0.164636  -0.397325  0  1.929636  0
O  O194  1  0.92211920  0.27273280  0.22292570  1  -0.514998  0  -0.164681  -0.397378  0  1.929561  0
O  O195  1  0.57787925  0.22726702  0.72292586  1  -0.514978  0  -0.164609  -0.39732  0  1.929646  0
O  O196  1  0.80003674  0.96532720  0.82201549  1  -1.252292  0  -0.616712  -0.830768  0  2.052658  0
O  O197  1  0.69996343  0.53467241  0.32201483  1  -1.252286  0  -0.616732  -0.830826  0  2.052633  0
O  O198  1  0.19996382  0.03467242  0.17798487  1  -1.252277  0  -0.616717  -0.830773  0  2.052637  0
O  O199  1  0.30003627  0.46532787  0.67798439  1  -1.252281  0  -0.616718  -0.830794  0  2.052744  0
