# generated using pymatgen
data_NaTbH16(C3O2)6
_symmetry_space_group_name_H-M   'P 1'
_cell_length_a   6.80625943
_cell_length_b   7.48809815
_cell_length_c   19.87634211
_cell_angle_alpha   90.00087551
_cell_angle_beta   99.89794564
_cell_angle_gamma   89.99976097
_symmetry_Int_Tables_number   1
_chemical_formula_structural   NaTbH16(C3O2)6
_chemical_formula_sum   'Na2 Tb2 H32 C36 O24'
_cell_volume   997.93817898
_cell_formula_units_Z   2
loop_
 _symmetry_equiv_pos_site_id
 _symmetry_equiv_pos_as_xyz
  1  'x, y, z'
loop_
 _atom_site_type_symbol
 _atom_site_label
 _atom_site_symmetry_multiplicity
 _atom_site_fract_x
 _atom_site_fract_y
 _atom_site_fract_z
 _atom_site_occupancy
 _atom_site_hle17_bader_spin_density
 _atom_site_hle17_ddec_charge
 _atom_site_hle17_ddec_spin_density
 _atom_site_hle17_ddec_sum_bond_order
 _atom_site_hle17_magmom
 _atom_site_hse06_10hf_bader_spin_density
 _atom_site_hse06_10hf_ddec_charge
 _atom_site_hse06_10hf_ddec_spin_density
 _atom_site_hse06_10hf_ddec_sum_bond_order
 _atom_site_hse06_10hf_magmom
 _atom_site_hse06_bader_spin_density
 _atom_site_hse06_ddec_charge
 _atom_site_hse06_ddec_spin_density
 _atom_site_hse06_ddec_sum_bond_order
 _atom_site_hse06_magmom
 _atom_site_pbe_bader_spin_density
 _atom_site_pbe_cm5_charge
 _atom_site_pbe_ddec_charge
 _atom_site_pbe_ddec_spin_density
 _atom_site_pbe_ddec_sum_bond_order
 _atom_site_pbe_magmom
Na  Na0  1  0.83781225  0.25015578  0.67350608  1  0  0.927368  0  0.352571  0  0  0.898  0  0.485302  0  0  0.906705  0  0.46447  0  0  0.694105  0.891136  0  0.500715  0
Na  Na1  1  0.16217851  0.75015277  0.32649265  1  0  0.927365  0  0.352577  0  0  0.898  0  0.485331  0  0  0.906696  0  0.464488  0  0  0.69411  0.891143  0  0.500725  0
Tb  Tb2  1  0.70669527  0.75006539  0.41414749  1  0  2.204875  0  1.746933  0  0  2.055101  0  2.234337  0  0  2.102295  0  2.191432  0  0  1.534091  2.018134  0  2.269655  0
Tb  Tb3  1  0.29329399  0.25006288  0.58585115  1  0  2.204863  0  1.746827  0  0  2.054979  0  2.23444  0  0  2.102213  0  2.191468  0  0  1.534118  2.01812  0  2.269562  0
H  H4  1  0.76802699  0.14974063  0.93846573  1  0  0.084685  0  0.950218  0  0  0.096486  0  1.00928  0  0  0.099498  0  1.008242  0  0  0.097419  0.094352  0  1.010091  0
H  H5  1  0.23197140  0.64974657  0.06153338  1  0  0.084695  0  0.950193  0  0  0.096516  0  1.009232  0  0  0.099528  0  1.008194  0  0  0.097445  0.094381  0  1.010046  0
H  H6  1  0.82591353  0.84985768  0.06170809  1  0  0.08422  0  0.951726  0  0  0.096038  0  1.010821  0  0  0.098979  0  1.009874  0  0  0.096882  0.093949  0  1.011579  0
H  H7  1  0.17408451  0.34986600  0.93829114  1  0  0.084206  0  0.951774  0  0  0.096013  0  1.010876  0  0  0.098954  0  1.009928  0  0  0.096867  0.093924  0  1.011635  0
H  H8  1  0.70585321  0.15259870  0.81162517  1  0  0.10801  0  0.962413  0  0  0.117725  0  1.023985  0  0  0.121234  0  1.021228  0  0  0.109166  0.115171  0  1.026015  0
H  H9  1  0.29414219  0.65260691  0.18837328  1  0  0.108036  0  0.962448  0  0  0.117771  0  1.023986  0  0  0.121281  0  1.02123  0  0  0.109198  0.115216  0  1.026022  0
H  H10  1  0.89057302  0.84694619  0.18849612  1  0  0.108891  0  0.962039  0  0  0.118498  0  1.023799  0  0  0.122019  0  1.021023  0  0  0.109593  0.115928  0  1.025855  0
H  H11  1  0.10943397  0.34695759  0.81150313  1  0  0.108939  0  0.962019  0  0  0.118497  0  1.023823  0  0  0.122018  0  1.021049  0  0  0.109604  0.115929  0  1.025874  0
H  H12  1  0.28362778  0.14777719  0.15782449  1  0  0.09387  0  0.961042  0  0  0.103764  0  1.023175  0  0  0.107104  0  1.020658  0  0  0.104603  0.101354  0  1.024971  0
H  H13  1  0.71638552  0.64777577  0.84217650  1  0  0.094008  0  0.961142  0  0  0.103917  0  1.023219  0  0  0.107258  0  1.020706  0  0  0.104663  0.101505  0  1.025028  0
H  H14  1  0.12451838  0.85245903  0.84166791  1  0  0.094307  0  0.961442  0  0  0.104071  0  1.023523  0  0  0.107372  0  1.021072  0  0  0.105354  0.101663  0  1.025339  0
H  H15  1  0.87549457  0.35246357  0.15833121  1  0  0.094272  0  0.961536  0  0  0.104016  0  1.023618  0  0  0.10732  0  1.021161  0  0  0.10534  0.101606  0  1.025438  0
H  H16  1  0.22049817  0.14960296  0.03149716  1  0  0.083773  0  0.956611  0  0  0.095341  0  1.017243  0  0  0.098355  0  1.015832  0  0  0.097775  0.093215  0  1.018295  0
H  H17  1  0.77950468  0.64959578  0.96850473  1  0  0.083813  0  0.956546  0  0  0.095397  0  1.017155  0  0  0.098411  0  1.015741  0  0  0.097808  0.093271  0  1.018209  0
H  H18  1  0.18612186  0.85004432  0.96798456  1  0  0.084617  0  0.954948  0  0  0.096227  0  1.015373  0  0  0.099308  0  1.0139  0  0  0.098072  0.094045  0  1.016489  0
H  H19  1  0.81388363  0.35004928  0.03201512  1  0  0.084603  0  0.954894  0  0  0.096164  0  1.015381  0  0  0.099244  0  1.013909  0  0  0.098053  0.093981  0  1.016498  0
H  H20  1  0.49499681  0.26904157  0.43646989  1  0  0.102403  0  0.925711  0  0  0.109614  0  0.98414  0  0  0.113014  0  0.981195  0  0  0.131085  0.107165  0  0.986355  0
H  H21  1  0.50500287  0.76903225  0.56352747  1  0  0.102395  0  0.925685  0  0  0.109476  0  0.984251  0  0  0.112899  0  0.98128  0  0  0.131066  0.10703  0  0.986451  0
H  H22  1  0.05820928  0.73131190  0.56343353  1  0  0.10169  0  0.925442  0  0  0.108647  0  0.983889  0  0  0.112029  0  0.980923  0  0  0.131012  0.10621  0  0.98612  0
H  H23  1  0.94178448  0.23131686  0.43656829  1  0  0.101646  0  0.925634  0  0  0.108671  0  0.983967  0  0  0.112053  0  0.981001  0  0  0.131025  0.106234  0  0.986205  0
H  H24  1  0.56334234  0.11843925  0.34475539  1  0  0.400661  0  0.895711  0  0  0.370287  0  0.97194  0  0  0.382433  0  0.958042  0  0  0.306065  0.361768  0  0.981166  0
H  H25  1  0.43666058  0.61843660  0.65524180  1  0  0.400764  0  0.895547  0  0  0.370417  0  0.971738  0  0  0.382562  0  0.957851  0  0  0.306136  0.361897  0  0.980962  0
H  H26  1  0.21858217  0.88187773  0.65517156  1  0  0.40078  0  0.895336  0  0  0.370183  0  0.971957  0  0  0.382342  0  0.958135  0  0  0.306069  0.361657  0  0.981193  0
H  H27  1  0.78142775  0.38188624  0.34482604  1  0  0.400692  0  0.895446  0  0  0.370077  0  0.97211  0  0  0.382231  0  0.958298  0  0  0.306086  0.361551  0  0.981346  0
H  H28  1  0.98154028  0.90849350  0.73579900  1  0  0.415232  0  0.89135  0  0  0.384893  0  0.955106  0  0  0.395015  0  0.939981  0  0  0.288708  0.377702  0  0.965853  0
H  H29  1  0.01845914  0.40848692  0.26420165  1  0  0.415236  0  0.891338  0  0  0.384905  0  0.955081  0  0  0.395024  0  0.93996  0  0  0.288724  0.377715  0  0.965824  0
H  H30  1  0.24464128  0.09136457  0.26400062  1  0  0.414971  0  0.891537  0  0  0.384754  0  0.954999  0  0  0.394851  0  0.939913  0  0  0.288253  0.37758  0  0.965714  0
H  H31  1  0.75535421  0.59137069  0.73600201  1  0  0.414904  0  0.891702  0  0  0.384707  0  0.955114  0  0  0.394803  0  0.940032  0  0  0.288275  0.377536  0  0.965823  0
H  H32  1  0.74727899  0.89698218  0.72741389  1  0  0.415981  0  0.874361  0  0  0.38896  0  0.933244  0  0  0.397835  0  0.920052  0  0  0.296481  0.382657  0  0.942627  0
H  H33  1  0.25272194  0.39698439  0.27258679  1  0  0.415989  0  0.874316  0  0  0.388966  0  0.93323  0  0  0.39784  0  0.920039  0  0  0.296478  0.382663  0  0.942613  0
H  H34  1  0.01893485  0.10351245  0.27246951  1  0  0.417838  0  0.873501  0  0  0.390179  0  0.932009  0  0  0.399076  0  0.918799  0  0  0.296976  0.38388  0  0.941366  0
H  H35  1  0.98105614  0.60350802  0.72753192  1  0  0.417838  0  0.873519  0  0  0.390166  0  0.932051  0  0  0.399067  0  0.918834  0  0  0.296992  0.383868  0  0.941407  0
C  C36  1  0.47551857  0.24976810  0.94733186  1  0  0.058655  0  3.784498  0  0  0.070396  0  4.020058  0  0  0.072134  0  4.04415  0  0  -0.002072  0.069398  0  4.003568  0
C  C37  1  0.52448262  0.74976589  0.05266850  1  0  0.058756  0  3.784592  0  0  0.070442  0  4.020203  0  0  0.072179  0  4.044297  0  0  -0.002044  0.069445  0  4.003709  0
C  C38  1  0.36562920  0.24986533  0.72806990  1  0  0.673103  0  3.891509  0  0  0.630724  0  4.176274  0  0  0.664641  0  4.168448  0  0  0.203088  0.607833  0  4.180615  0
C  C39  1  0.63437050  0.74986364  0.27192885  1  0  0.673086  0  3.891335  0  0  0.630696  0  4.176132  0  0  0.664612  0  4.168304  0  0  0.203109  0.60781  0  4.180466  0
C  C40  1  0.40374639  0.24974394  0.80378011  1  0  -0.06866  0  3.744959  0  0  -0.048375  0  3.981398  0  0  -0.058198  0  4.005596  0  0  -0.016135  -0.042151  0  3.965274  0
C  C41  1  0.59625181  0.74974599  0.19622006  1  0  -0.068652  0  3.744918  0  0  -0.048367  0  3.981367  0  0  -0.058193  0  4.005567  0  0  -0.016045  -0.042152  0  3.965254  0
C  C42  1  0.51275605  0.24975049  0.02257546  1  0  0.066909  0  3.770597  0  0  0.079663  0  4.004117  0  0  0.081617  0  4.027224  0  0  0.000801  0.078499  0  3.988299  0
C  C43  1  0.48724365  0.74973409  0.97742480  1  0  0.066948  0  3.770617  0  0  0.079772  0  4.004073  0  0  0.081731  0  4.027168  0  0  0.000834  0.078605  0  3.98826  0
C  C44  1  0.62493527  0.19649720  0.91070948  1  0  -0.114163  0  3.741573  0  0  -0.131237  0  3.990741  0  0  -0.136712  0  4.013201  0  0  -0.087313  -0.127618  0  3.975419  0
C  C45  1  0.37506005  0.69649706  0.08929073  1  0  -0.114303  0  3.741526  0  0  -0.13139  0  3.990723  0  0  -0.136867  0  4.013184  0  0  -0.087417  -0.127771  0  3.975398  0
C  C46  1  0.71052425  0.80311896  0.08939390  1  0  -0.11646  0  3.744865  0  0  -0.133647  0  3.994527  0  0  -0.139063  0  4.016992  0  0  -0.088776  -0.130064  0  3.979187  0
C  C47  1  0.28947238  0.30312170  0.91060448  1  0  -0.11642  0  3.744846  0  0  -0.1336  0  3.994451  0  0  -0.139014  0  4.016917  0  0  -0.088725  -0.130017  0  3.979119  0
C  C48  1  0.59047075  0.19700596  0.83972772  1  0  -0.052389  0  3.712935  0  0  -0.076106  0  3.958815  0  0  -0.074664  0  3.979254  0  0  -0.075958  -0.076755  0  3.944881  0
C  C49  1  0.40952755  0.69700858  0.16027166  1  0  -0.052337  0  3.712956  0  0  -0.076058  0  3.958798  0  0  -0.074614  0  3.979233  0  0  -0.075964  -0.076706  0  3.944865  0
C  C50  1  0.74704313  0.80256612  0.16036541  1  0  -0.052141  0  3.714612  0  0  -0.076044  0  3.960816  0  0  -0.074598  0  3.98122  0  0  -0.075877  -0.076692  0  3.94691  0
C  C51  1  0.25295349  0.30256477  0.83963497  1  0  -0.052159  0  3.714661  0  0  -0.076013  0  3.960843  0  0  -0.074569  0  3.981245  0  0  -0.075874  -0.076665  0  3.946947  0
C  C52  1  0.58382285  0.24999501  0.16667595  1  0  -0.087082  0  3.776496  0  0  -0.066764  0  4.019157  0  0  -0.076636  0  4.044622  0  0  -0.021842  -0.06043  0  4.002017  0
C  C53  1  0.41619026  0.74999303  0.83332512  1  0  -0.087102  0  3.776243  0  0  -0.066836  0  4.019012  0  0  -0.076724  0  4.044497  0  0  -0.021852  -0.060443  0  4.001799  0
C  C54  1  0.39891825  0.19436233  0.13020879  1  0  -0.04892  0  3.740314  0  0  -0.073738  0  3.988125  0  0  -0.072593  0  4.009196  0  0  -0.077679  -0.0742  0  3.973736  0
C  C55  1  0.60109049  0.69435580  0.86979220  1  0  -0.049194  0  3.740405  0  0  -0.074025  0  3.988293  0  0  -0.072878  0  4.009367  0  0  -0.07777  -0.074502  0  3.973891  0
C  C56  1  0.26710257  0.80554087  0.86948306  1  0  -0.049004  0  3.738448  0  0  -0.073644  0  3.986244  0  0  -0.07247  0  4.0073  0  0  -0.078286  -0.074135  0  3.971829  0
C  C57  1  0.73290747  0.30554214  0.13051764  1  0  -0.049105  0  3.738606  0  0  -0.073725  0  3.986343  0  0  -0.072555  0  4.007397  0  0  -0.078288  -0.074201  0  3.971941  0
C  C58  1  0.62135219  0.25010333  0.24270039  1  0  0.671857  0  3.833102  0  0  0.613659  0  4.132818  0  0  0.647565  0  4.125752  0  0  0.230398  0.590769  0  4.136825  0
C  C59  1  0.37865795  0.75010507  0.75729899  1  0  0.671837  0  3.833235  0  0  0.613643  0  4.132968  0  0  0.647562  0  4.125898  0  0  0.230367  0.590735  0  4.136969  0
C  C60  1  0.63124290  0.18727169  0.44352827  1  0  0.056263  0  3.602797  0  0  0.030052  0  3.852098  0  0  0.031066  0  3.857605  0  0  0.004056  0.029179  0  3.848469  0
C  C61  1  0.36875243  0.68726260  0.55647188  1  0  0.056028  0  3.602961  0  0  0.030005  0  3.852258  0  0  0.030993  0  3.85779  0  0  0.004014  0.02913  0  3.848633  0
C  C62  1  0.18745022  0.81304789  0.55640105  1  0  0.059938  0  3.598546  0  0  0.035352  0  3.84681  0  0  0.036546  0  3.85216  0  0  0.004574  0.034393  0  3.843204  0
C  C63  1  0.81254787  0.31305897  0.44359998  1  0  0.059883  0  3.598886  0  0  0.035307  0  3.846983  0  0  0.0365  0  3.85233  0  0  0.004664  0.034345  0  3.843368  0
C  C64  1  0.64748762  0.08660395  0.51081443  1  0  0.707876  0  3.832225  0  0  0.657486  0  4.134817  0  0  0.692025  0  4.123507  0  0  0.236686  0.634052  0  4.141516  0
C  C65  1  0.35250342  0.58658282  0.48918489  1  0  0.708048  0  3.832109  0  0  0.657454  0  4.135024  0  0  0.691996  0  4.123717  0  0  0.23672  0.634022  0  4.141725  0
C  C66  1  0.13633023  0.91370101  0.48908215  1  0  0.706852  0  3.82966  0  0  0.654776  0  4.134296  0  0  0.689316  0  4.122929  0  0  0.235884  0.63134  0  4.141039  0
C  C67  1  0.86366171  0.41371998  0.51091960  1  0  0.706696  0  3.829857  0  0  0.654714  0  4.134299  0  0  0.689255  0  4.12293  0  0  0.235746  0.631277  0  4.141042  0
C  C68  1  0.36379409  0.19568439  0.05927386  1  0  -0.117709  0  3.745241  0  0  -0.134952  0  3.993974  0  0  -0.139936  0  4.015856  0  0  -0.088946  -0.131646  0  3.979022  0
C  C69  1  0.63621017  0.69567394  0.94072787  1  0  -0.117752  0  3.745124  0  0  -0.135019  0  3.993867  0  0  -0.140007  0  4.015755  0  0  -0.089029  -0.131711  0  3.978917  0
C  C70  1  0.30194476  0.80387961  0.94042034  1  0  -0.118615  0  3.743119  0  0  -0.135727  0  3.991549  0  0  -0.140788  0  4.013404  0  0  -0.088855  -0.132369  0  3.976621  0
C  C71  1  0.69805932  0.30388213  0.05957948  1  0  -0.118515  0  3.743033  0  0  -0.135575  0  3.991453  0  0  -0.140635  0  4.01331  0  0  -0.088837  -0.132219  0  3.976521  0
O  O72  1  0.51065501  0.23721497  0.69483579  1  0  -0.745673  0  1.994281  0  0  -0.698627  0  2.243532  0  0  -0.722354  0  2.232615  0  0  -0.445467  -0.681735  0  2.250416  0
O  O73  1  0.48934324  0.73721519  0.30516029  1  0  -0.745652  0  1.994241  0  0  -0.69861  0  2.243468  0  0  -0.722328  0  2.232551  0  0  -0.445491  -0.681703  0  2.250352  0
O  O74  1  0.81303811  0.76270302  0.30496837  1  0  -0.745252  0  1.992991  0  0  -0.698009  0  2.241811  0  0  -0.721811  0  2.231071  0  0  -0.444225  -0.681045  0  2.248569  0
O  O75  1  0.18696006  0.26269468  0.69503288  1  0  -0.745229  0  1.993018  0  0  -0.698006  0  2.241888  0  0  -0.721815  0  2.23115  0  0  -0.444208  -0.681058  0  2.248647  0
O  O76  1  0.85972551  0.98026628  0.73470219  1  0  -0.867081  0  1.764494  0  0  -0.829039  0  1.922024  0  0  -0.843525  0  1.89085  0  0  -0.652439  -0.818692  0  1.944004  0
O  O77  1  0.14027081  0.48026194  0.26529617  1  0  -0.867109  0  1.764469  0  0  -0.829078  0  1.922016  0  0  -0.84356  0  1.890848  0  0  -0.652465  -0.818729  0  1.94399  0
O  O78  1  0.12378507  0.01991143  0.26519317  1  0  -0.868642  0  1.763208  0  0  -0.830067  0  1.920932  0  0  -0.844566  0  1.889669  0  0  -0.652652  -0.819691  0  1.9429  0
O  O79  1  0.87621201  0.51991304  0.73481317  1  0  -0.868599  0  1.76336  0  0  -0.830028  0  1.92109  0  0  -0.84453  0  1.889832  0  0  -0.652691  -0.819648  0  1.943047  0
O  O80  1  0.47867530  0.21009276  0.27458824  1  0  -0.645019  0  2.016732  0  0  -0.573007  0  2.229179  0  0  -0.599057  0  2.21861  0  0  -0.301232  -0.554868  0  2.235891  0
O  O81  1  0.52133939  0.71009799  0.72541168  1  0  -0.645049  0  2.016774  0  0  -0.573066  0  2.229212  0  0  -0.599099  0  2.218614  0  0  -0.301266  -0.554933  0  2.235939  0
O  O82  1  0.20420027  0.79008953  0.72518446  1  0  -0.643136  0  2.018809  0  0  -0.570868  0  2.231173  0  0  -0.597002  0  2.220677  0  0  -0.300126  -0.552798  0  2.237992  0
O  O83  1  0.79581278  0.29008443  0.27481733  1  0  -0.643156  0  2.018661  0  0  -0.57092  0  2.231063  0  0  -0.597025  0  2.220547  0  0  -0.300198  -0.552851  0  2.23788  0
O  O84  1  0.70963613  0.92766255  0.51243953  1  0  -0.663538  0  2.034867  0  0  -0.612174  0  2.28341  0  0  -0.636574  0  2.272777  0  0  -0.365166  -0.595042  0  2.29014  0
O  O85  1  0.29036475  0.42766005  0.48755981  1  0  -0.663484  0  2.035195  0  0  -0.612053  0  2.283878  0  0  -0.636453  0  2.273239  0  0  -0.365125  -0.594939  0  2.290609  0
O  O86  1  0.19708933  0.07256204  0.48747040  1  0  -0.663898  0  2.03569  0  0  -0.611515  0  2.284407  0  0  -0.635952  0  2.273795  0  0  -0.364564  -0.59439  0  2.29114  0
O  O87  1  0.80290320  0.57258690  0.51253396  1  0  -0.663975  0  2.035796  0  0  -0.611582  0  2.284379  0  0  -0.636015  0  2.273769  0  0  -0.364513  -0.594443  0  2.291118  0
O  O88  1  0.61908501  0.05787328  0.39009196  1  0  -0.665566  0  2.182357  0  0  -0.614016  0  2.434149  0  0  -0.630644  0  2.419988  0  0  -0.451765  -0.601742  0  2.443233  0
O  O89  1  0.38091056  0.55787167  0.60990545  1  0  -0.665548  0  2.182531  0  0  -0.614007  0  2.434273  0  0  -0.630635  0  2.420125  0  0  -0.451795  -0.601751  0  2.443351  0
O  O90  1  0.22884728  0.94247829  0.60983506  1  0  -0.667147  0  2.182352  0  0  -0.616023  0  2.434535  0  0  -0.632698  0  2.420347  0  0  -0.452001  -0.603731  0  2.443627  0
O  O91  1  0.77115209  0.44248601  0.39016377  1  0  -0.667086  0  2.182375  0  0  -0.616025  0  2.434611  0  0  -0.632697  0  2.420437  0  0  -0.452111  -0.603713  0  2.443705  0
O  O92  1  0.59891693  0.16753885  0.56194504  1  0  -0.772555  0  2.077259  0  0  -0.728539  0  2.351782  0  0  -0.752181  0  2.336827  0  0  -0.437712  -0.711555  0  2.361273  0
O  O93  1  0.40108143  0.66753015  0.43805216  1  0  -0.772679  0  2.076939  0  0  -0.728615  0  2.351563  0  0  -0.752251  0  2.336611  0  0  -0.437775  -0.711609  0  2.36106  0
O  O94  1  0.03642416  0.83282381  0.43793318  1  0  -0.772739  0  2.075917  0  0  -0.728464  0  2.351251  0  0  -0.752094  0  2.336299  0  0  -0.438051  -0.71146  0  2.360743  0
O  O95  1  0.96356643  0.33284449  0.56206802  1  0  -0.772682  0  2.076115  0  0  -0.728381  0  2.35129  0  0  -0.752024  0  2.336351  0  0  -0.438019  -0.711394  0  2.360772  0
