# generated using pymatgen
data_CdH24C32N4(ClO2)2
_symmetry_space_group_name_H-M   'P 1'
_cell_length_a   9.98826235
_cell_length_b   11.25901060
_cell_length_c   13.16040000
_cell_angle_alpha   90.12983276
_cell_angle_beta   105.22057825
_cell_angle_gamma   90.12459032
_symmetry_Int_Tables_number   1
_chemical_formula_structural   CdH24C32N4(ClO2)2
_chemical_formula_sum   'Cd2 H48 C64 N8 Cl4 O8'
_cell_volume   1428.06732442
_cell_formula_units_Z   2
loop_
 _symmetry_equiv_pos_site_id
 _symmetry_equiv_pos_as_xyz
  1  'x, y, z'
loop_
 _atom_site_type_symbol
 _atom_site_label
 _atom_site_symmetry_multiplicity
 _atom_site_fract_x
 _atom_site_fract_y
 _atom_site_fract_z
 _atom_site_occupancy
 _atom_site_hle17_bader_spin_density
 _atom_site_hle17_ddec_charge
 _atom_site_hle17_ddec_spin_density
 _atom_site_hle17_ddec_sum_bond_order
 _atom_site_hle17_magmom
 _atom_site_hse06_10hf_bader_spin_density
 _atom_site_hse06_10hf_ddec_charge
 _atom_site_hse06_10hf_ddec_spin_density
 _atom_site_hse06_10hf_ddec_sum_bond_order
 _atom_site_hse06_10hf_magmom
 _atom_site_hse06_bader_spin_density
 _atom_site_hse06_ddec_charge
 _atom_site_hse06_ddec_spin_density
 _atom_site_hse06_ddec_sum_bond_order
 _atom_site_hse06_magmom
 _atom_site_pbe_bader_charge
 _atom_site_pbe_bader_spin_density
 _atom_site_pbe_cm5_charge
 _atom_site_pbe_ddec_charge
 _atom_site_pbe_ddec_spin_density
 _atom_site_pbe_ddec_sum_bond_order
 _atom_site_pbe_magmom
Cd  Cd0  1  0.64164851  0.32902045  0.73482066  1  0  1.108476  0  1.664356  0  0  0.917205  0  2.111088  0  0  0.974046  0  2.061517  0  1.222783  0  0.772854  0.877116  0  2.144913  0
Cd  Cd1  1  0.35835332  0.67097996  0.26518115  1  0  1.108468  0  1.664355  0  0  0.917199  0  2.111076  0  0  0.974045  0  2.061503  0  1.222852  0  0.77284  0.877109  0  2.144905  0
H  H2  1  0.90046513  0.64336456  0.06903911  1  0  0.100377  0  0.943369  0  0  0.1136  0  0.99796  0  0  0.116447  0  0.996952  0  0.067199  0  0.10094  0.111564  0  0.998676  0
H  H3  1  0.09953151  0.35663319  0.93095862  1  0  0.100325  0  0.943443  0  0  0.113568  0  0.998006  0  0  0.116415  0  0.996999  0  0.067142  0  0.100937  0.111531  0  0.998723  0
H  H4  1  0.82947919  0.50425638  0.91453744  1  0  0.121193  0  0.944851  0  0  0.133358  0  1.000236  0  0  0.136717  0  0.998068  0  0.114769  0  0.107946  0.130929  0  1.001881  0
H  H5  1  0.17051745  0.49574137  0.08546182  1  0  0.121218  0  0.944889  0  0  0.133376  0  1.000277  0  0  0.13674  0  0.998103  0  0.11488  0  0.107965  0.130946  0  1.001921  0
H  H6  1  0.25406155  0.17450229  0.22799851  1  0  0.091934  0  0.939746  0  0  0.107409  0  0.990899  0  0  0.1097  0  0.99083  0  0.067151  0  0.101983  0.105628  0  0.991201  0
H  H7  1  0.74593823  0.82550257  0.77200214  1  0  0.091993  0  0.939759  0  0  0.107462  0  0.990908  0  0  0.109751  0  0.990841  0  0.067118  0  0.102011  0.105681  0  0.99121  0
H  H8  1  0.07188459  0.11747736  0.86442649  1  0  0.119055  0  0.93932  0  0  0.128133  0  1.001086  0  0  0.131617  0  0.999043  0  0.093151  0  0.11063  0.125336  0  1.002861  0
H  H9  1  0.92811725  0.88252128  0.13557075  1  0  0.119073  0  0.939331  0  0  0.128157  0  1.001066  0  0  0.131641  0  0.999022  0  0.093  0  0.110626  0.12536  0  1.002841  0
H  H10  1  0.35119161  0.36944790  0.29672632  1  0  0.091779  0  0.983009  0  0  0.099459  0  1.049767  0  0  0.101555  0  1.050382  0  0.103711  0  0.095786  0.097913  0  1.049589  0
H  H11  1  0.64880713  0.63055696  0.70327640  1  0  0.091773  0  0.983039  0  0  0.099471  0  1.049759  0  0  0.101561  0  1.05039  0  0.103739  0  0.095801  0.097924  0  1.049582  0
H  H12  1  0.25617368  0.00326319  0.34766431  1  0  0.121681  0  0.977727  0  0  0.129124  0  1.043181  0  0  0.133158  0  1.040025  0  0.101654  0  0.103965  0.126265  0  1.045308  0
H  H13  1  0.74383335  0.99673901  0.65233626  1  0  0.121687  0  0.977691  0  0  0.129211  0  1.043012  0  0  0.133249  0  1.039844  0  0.101615  0  0.103945  0.126318  0  1.045181  0
H  H14  1  0.53633143  0.11718870  0.82382746  1  0  0.125596  0  0.983541  0  0  0.143143  0  1.048982  0  0  0.145013  0  1.04833  0  0.082747  0  0.094783  0.141859  0  1.049298  0
H  H15  1  0.46367041  0.88280994  0.17617283  1  0  0.125603  0  0.983499  0  0  0.143146  0  1.048955  0  0  0.145018  0  1.0483  0  0.082746  0  0.09479  0.141864  0  1.049269  0
H  H16  1  0.54117924  0.97076319  0.77381451  1  0  0.134859  0  0.942442  0  0  0.154048  0  1.004461  0  0  0.156176  0  1.004171  0  0.057462  0  0.10022  0.152661  0  1.004488  0
H  H17  1  0.45882363  0.02923633  0.22618599  1  0  0.134828  0  0.942436  0  0  0.154015  0  1.004475  0  0  0.156142  0  1.004185  0  0.057467  0  0.100197  0.152626  0  1.004501  0
H  H18  1  0.38451130  0.02599979  0.79375688  1  0  0.128388  0  0.973099  0  0  0.144041  0  1.04027  0  0  0.146187  0  1.040159  0  0.103217  0  0.091927  0.142271  0  1.040802  0
H  H19  1  0.61549054  0.97400062  0.20624189  1  0  0.128336  0  0.973103  0  0  0.144012  0  1.040256  0  0  0.146158  0  1.040148  0  0.103211  0  0.091933  0.142242  0  1.040789  0
H  H20  1  0.47311830  0.74905662  0.03197680  1  0  0.110343  0  0.970982  0  0  0.11734  0  1.040427  0  0  0.120782  0  1.038121  0  0.10219  0  0.099288  0.114526  0  1.042798  0
H  H21  1  0.52687937  0.25094025  0.96802418  1  0  0.110335  0  0.97101  0  0  0.117297  0  1.040489  0  0  0.120757  0  1.038166  0  0.101707  0  0.099296  0.114483  0  1.04286  0
H  H22  1  0.72537454  0.76389639  0.12497808  1  0  0.079709  0  0.960566  0  0  0.092522  0  1.019572  0  0  0.094956  0  1.018662  0  0.042968  0  0.09312  0.090671  0  1.020443  0
H  H23  1  0.27462314  0.23610137  0.87502062  1  0  0.079684  0  0.960588  0  0  0.092502  0  1.019604  0  0  0.094926  0  1.018691  0  0.042931  0  0.093112  0.090651  0  1.020475  0
H  H24  1  0.25584235  0.66726025  0.93552575  1  0  0.10776  0  0.928047  0  0  0.121004  0  0.993725  0  0  0.122935  0  0.991881  0  0.135642  0  0.117902  0.119561  0  0.994952  0
H  H25  1  0.74415430  0.33273839  0.06447426  1  0  0.10771  0  0.928019  0  0  0.120976  0  0.993686  0  0  0.122907  0  0.99184  0  0.135617  0  0.117867  0.119535  0  0.994916  0
H  H26  1  0.17233835  0.56814342  0.83466413  1  0  0.096572  0  0.915428  0  0  0.114144  0  0.974876  0  0  0.114879  0  0.974684  0  0.102108  0  0.119119  0.113488  0  0.975189  0
H  H27  1  0.82765830  0.43185611  0.16533513  1  0  0.096591  0  0.915447  0  0  0.114186  0  0.974865  0  0  0.11492  0  0.974671  0  0.102144  0  0.119129  0.11353  0  0.975179  0
H  H28  1  0.12815244  0.34380960  0.43006084  1  0  0.116879  0  0.958211  0  0  0.124613  0  1.022458  0  0  0.127046  0  1.023095  0  0.118491  0  0.104509  0.122826  0  1.022207  0
H  H29  1  0.87184420  0.65618993  0.56994221  1  0  0.116844  0  0.958219  0  0  0.12457  0  1.022481  0  0  0.127004  0  1.023119  0  0.118436  0  0.104472  0.122787  0  1.022229  0
H  H30  1  0.33568361  0.40272813  0.64556851  1  0  0.134754  0  0.964049  0  0  0.153583  0  1.02618  0  0  0.155129  0  1.026314  0  0.090167  0  0.100065  0.152492  0  1.026062  0
H  H31  1  0.66431304  0.59727139  0.35443074  1  0  0.13472  0  0.964037  0  0  0.153546  0  1.026178  0  0  0.155091  0  1.026311  0  0.090163  0  0.100031  0.152455  0  1.026062  0
H  H32  1  0.23110633  0.52790516  0.65486710  1  0  0.139346  0  0.946838  0  0  0.157616  0  1.008369  0  0  0.158916  0  1.009911  0  0.096477  0  0.102731  0.156684  0  1.007345  0
H  H33  1  0.76889032  0.47209437  0.34513215  1  0  0.139341  0  0.946923  0  0  0.157598  0  1.008459  0  0  0.158897  0  1.009996  0  0.096526  0  0.102716  0.156666  0  1.007435  0
H  H34  1  0.22448429  0.39940189  0.73107198  1  0  0.134214  0  0.943532  0  0  0.150737  0  1.010449  0  0  0.153172  0  1.009354  0  0.081099  0  0.10005  0.149066  0  1.011167  0
H  H35  1  0.77551235  0.60059675  0.26892651  1  0  0.13419  0  0.943483  0  0  0.150715  0  1.010388  0  0  0.153149  0  1.009295  0  0.081153  0  0.100054  0.149046  0  1.011104  0
H  H36  1  0.95993937  0.95426607  0.71927466  1  0  0.087861  0  0.979378  0  0  0.098249  0  1.041605  0  0  0.100558  0  1.04078  0  0.085266  0  0.096541  0.096792  0  1.041655  0
H  H37  1  0.04005934  0.04573168  0.28072197  1  0  0.087828  0  0.979378  0  0  0.098271  0  1.041554  0  0  0.100556  0  1.040757  0  0.085251  0  0.096502  0.096812  0  1.041608  0
H  H38  1  0.09842072  0.01512488  0.59647064  1  0  0.086319  0  0.978154  0  0  0.095496  0  1.047199  0  0  0.098348  0  1.04578  0  0.066067  0  0.088054  0.093407  0  1.048372  0
H  H39  1  0.90157904  0.98487465  0.40352772  1  0  0.086327  0  0.978159  0  0  0.095499  0  1.047205  0  0  0.098351  0  1.045785  0  0.066092  0  0.088065  0.09341  0  1.048378  0
H  H40  1  0.46030624  0.40025632  0.48824593  1  0  0.116592  0  0.947669  0  0  0.128538  0  1.005592  0  0  0.131934  0  1.003171  0  0.070591  0  0.107072  0.126104  0  1.007343  0
H  H41  1  0.53969664  0.59974676  0.51175609  1  0  0.116584  0  0.947663  0  0  0.128533  0  1.005588  0  0  0.131927  0  1.003167  0  0.070698  0  0.107072  0.126099  0  1.007338  0
H  H42  1  0.38436832  0.73131870  0.71064998  1  0  0.093973  0  0.975604  0  0  0.102365  0  1.042173  0  0  0.104868  0  1.042135  0  0.071073  0  0.097754  0.100779  0  1.041713  0
H  H43  1  0.61563352  0.26868260  0.28935184  1  0  0.093954  0  0.975664  0  0  0.102369  0  1.042199  0  0  0.104874  0  1.042158  0  0.071128  0  0.097763  0.100782  0  1.041739  0
H  H44  1  0.02862165  0.77805936  0.83416496  1  0  0.096155  0  0.933977  0  0  0.111576  0  0.986955  0  0  0.113996  0  0.986811  0  0.05559  0  0.103416  0.109899  0  0.987155  0
H  H45  1  0.97137603  0.22193839  0.16583222  1  0  0.096215  0  0.933917  0  0  0.111619  0  0.986908  0  0  0.114061  0  0.986735  0  0.055599  0  0.103418  0.109932  0  0.987118  0
H  H46  1  0.43008610  0.85737148  0.58845085  1  0  0.072812  0  0.988665  0  0  0.085783  0  1.05706  0  0  0.08483  0  1.060328  0  0.092999  0  0.106511  0.08652  0  1.054464  0
H  H47  1  0.56991573  0.14262805  0.41154868  1  0  0.072722  0  0.988786  0  0  0.085696  0  1.057169  0  0  0.084742  0  1.06044  0  0.093015  0  0.106472  0.086433  0  1.054572  0
H  H48  1  0.27740569  0.88868616  0.48922961  1  0  0.099995  0  0.908507  0  0  0.116762  0  0.966802  0  0  0.117855  0  0.965614  0  0.102436  0  0.119313  0.115967  0  0.967768  0
H  H49  1  0.72259408  0.11131603  0.51077179  1  0  0.100006  0  0.908442  0  0  0.116762  0  0.966747  0  0  0.117853  0  0.965562  0  0.10244  0  0.119304  0.115966  0  0.967714  0
C  C50  1  0.92493871  0.47018655  0.57341422  1  0  -0.075997  0  3.732481  0  0  -0.060583  0  3.970126  0  0  -0.063775  0  3.986609  0  -0.04231  0  -0.01498  -0.05879  0  3.959336  0
C  C51  1  0.07506001  0.52981475  0.42658926  1  0  -0.076042  0  3.732433  0  0  -0.06081  0  3.970259  0  0  -0.064002  0  3.98674  0  -0.042658  0  -0.015073  -0.059016  0  3.959468  0
C  C52  1  0.79140905  0.63527854  0.02599851  1  0  -0.088297  0  3.786969  0  0  -0.105942  0  4.045809  0  0  -0.108736  0  4.068641  0  -0.080437  0  -0.102481  -0.103963  0  4.02983  0
C  C53  1  0.20858863  0.36472010  0.97399943  1  0  -0.088208  0  3.786976  0  0  -0.105855  0  4.045793  0  0  -0.108652  0  4.068627  0  -0.080444  0  -0.10248  -0.103877  0  4.029811  0
C  C54  1  0.99805118  0.38385956  0.53308023  1  0  0.110739  0  3.7807  0  0  0.111742  0  4.050872  0  0  0.115387  0  4.070165  0  0.090153  0  0.012758  0.109009  0  4.038124  0
C  C55  1  0.00194962  0.61613996  0.46692365  1  0  0.110772  0  3.780789  0  0  0.111829  0  4.050961  0  0  0.115477  0  4.070252  0  0.089983  0  0.012826  0.109095  0  4.038215  0
C  C56  1  0.75335198  0.55667253  0.94107468  1  0  -0.137251  0  3.725772  0  0  -0.15454  0  3.973607  0  0  -0.15656  0  3.992602  0  -0.020865  0  -0.091448  -0.152943  0  3.96034  0
C  C57  1  0.24664467  0.44332611  0.05892457  1  0  -0.137251  0  3.725781  0  0  -0.154516  0  3.973636  0  0  -0.156544  0  3.992636  0  -0.020997  0  -0.091438  -0.152917  0  3.960366  0
C  C58  1  0.29792578  0.18560991  0.31262417  1  0  -0.07526  0  3.781583  0  0  -0.090311  0  4.037808  0  0  -0.091881  0  4.058959  0  -0.090112  0  -0.097288  -0.089068  0  4.022953  0
C  C59  1  0.70207504  0.81439494  0.68737745  1  0  -0.075361  0  3.781874  0  0  -0.090414  0  4.038127  0  0  -0.091987  0  4.059286  0  -0.090079  0  -0.097296  -0.08917  0  4.023264  0
C  C60  1  0.35290662  0.10978125  0.48679063  1  0  0.101518  0  3.791365  0  0  0.087452  0  4.045986  0  0  0.091943  0  4.067441  0  0.267066  0  0.088621  0.08442  0  4.031557  0
C  C61  1  0.64709834  0.89022005  0.51321028  1  0  0.101447  0  3.791415  0  0  0.087355  0  4.046045  0  0  0.091852  0  4.067505  0  0.267394  0  0.088603  0.084324  0  4.031609  0
C  C62  1  0.04085155  0.06631888  0.92452783  1  0  -0.127249  0  3.74003  0  0  -0.160806  0  3.999213  0  0  -0.162304  0  4.018183  0  0.043945  0  -0.085683  -0.159896  0  3.987027  0
C  C63  1  0.95914820  0.93367976  0.07547052  1  0  -0.12717  0  3.740105  0  0  -0.160734  0  3.999254  0  0  -0.16223  0  4.018224  0  0.044094  0  -0.085615  -0.159822  0  3.987066  0
C  C64  1  0.35402622  0.29671367  0.35156640  1  0  -0.085869  0  3.781183  0  0  -0.101934  0  4.037936  0  0  -0.104053  0  4.059525  0  -0.056408  0  -0.102449  -0.100497  0  4.023304  0
C  C65  1  0.64597356  0.70329030  0.64843576  1  0  -0.085823  0  3.781333  0  0  -0.101902  0  4.038104  0  0  -0.104019  0  4.059682  0  -0.056469  0  -0.1025  -0.100465  0  4.023473  0
C  C66  1  0.43946490  0.09956448  0.66093724  1  0  0.427303  0  3.672976  0  0  0.402227  0  3.942026  0  0  0.422491  0  3.953335  0  1.014611  0  0.235961  0.388814  0  3.933969  0
C  C67  1  0.56054004  0.90043594  0.33906291  1  0  0.427227  0  3.672944  0  0  0.40218  0  3.941966  0  0  0.422444  0  3.953273  0  1.014632  0  0.235927  0.388776  0  3.933893  0
C  C68  1  0.29683908  0.08957064  0.37938355  1  0  -0.160661  0  3.763182  0  0  -0.181874  0  4.024848  0  0  -0.184818  0  4.043643  0  0.028184  0  -0.100254  -0.179847  0  4.011374  0
C  C69  1  0.70316588  0.91043244  0.62061737  1  0  -0.16067  0  3.763167  0  0  -0.181901  0  4.024714  0  0  -0.184848  0  4.043513  0  0.028083  0  -0.100236  -0.179849  0  4.011265  0
C  C70  1  0.41308510  0.22007409  0.52672167  1  0  0.144847  0  3.853836  0  0  0.140619  0  4.104255  0  0  0.144932  0  4.126764  0  0.346744  0  0.080542  0.137488  0  4.089325  0
C  C71  1  0.58691881  0.77992721  0.47327903  1  0  0.144909  0  3.853853  0  0  0.140726  0  4.104226  0  0  0.145024  0  4.126755  0  0.346773  0  0.080497  0.137594  0  4.089299  0
C  C72  1  0.47741714  0.05097196  0.76896295  1  0  -0.409197  0  3.720482  0  0  -0.488297  0  3.954781  0  0  -0.493167  0  3.959929  0  -0.079031  0  -0.241669  -0.4847  0  3.95119  0
C  C73  1  0.52258573  0.94902846  0.23103755  1  0  -0.409101  0  3.72043  0  0  -0.48823  0  3.954711  0  0  -0.493098  0  3.959858  0  -0.079014  0  -0.241659  -0.484632  0  3.951111  0
C  C74  1  0.55049295  0.69641310  0.00724158  1  0  -0.147819  0  3.752256  0  0  -0.170722  0  4.014144  0  0  -0.173462  0  4.034051  0  -0.023444  0  -0.102217  -0.169256  0  4.001603  0
C  C75  1  0.44950473  0.30358466  0.99275864  1  0  -0.147827  0  3.752361  0  0  -0.170725  0  4.014245  0  0  -0.173482  0  4.034134  0  -0.022953  0  -0.102254  -0.169258  0  4.001703  0
C  C76  1  0.69163225  0.70340665  0.05833308  1  0  -0.079087  0  3.813911  0  0  -0.097753  0  4.077615  0  0  -0.100098  0  4.101312  0  -0.023471  0  -0.103932  -0.096066  0  4.061621  0
C  C77  1  0.30836647  0.29659199  0.94166659  1  0  -0.079118  0  3.814003  0  0  -0.097798  0  4.077737  0  0  -0.100126  0  4.101422  0  -0.023476  0  -0.10394  -0.096109  0  4.061739  0
C  C78  1  0.40769040  0.50466495  0.78526050  1  0  0.416955  0  3.698703  0  0  0.388589  0  3.972984  0  0  0.408909  0  3.984206  0  1.022042  0  0.235371  0.37519  0  3.964904  0
C  C79  1  0.59230521  0.49533369  0.21474007  1  0  0.417078  0  3.698466  0  0  0.388795  0  3.97272  0  0  0.409121  0  3.983929  0  1.022046  0  0.235446  0.375389  0  3.964647  0
C  C80  1  0.13475211  0.98986624  0.98966306  1  0  0.116267  0  3.779055  0  0  0.116912  0  4.051961  0  0  0.120968  0  4.072105  0  0.03157  0  0.016675  0.114157  0  4.038285  0
C  C81  1  0.86525179  0.01013240  0.01033612  1  0  0.116162  0  3.779282  0  0  0.116879  0  4.052091  0  0  0.120935  0  4.072236  0  0.031531  0  0.01663  0.114123  0  4.038415  0
C  C82  1  0.61197895  0.54774007  0.88986142  1  0  0.150726  0  3.843078  0  0  0.145294  0  4.095252  0  0  0.149423  0  4.11834  0  0.389398  0  0.081337  0.142581  0  4.079511  0
C  C83  1  0.38801770  0.45225857  0.11013783  1  0  0.15072  0  3.843096  0  0  0.145212  0  4.095311  0  0  0.149338  0  4.118405  0  0.389441  0  0.081318  0.142501  0  4.079569  0
C  C84  1  0.51305058  0.61732480  0.92276147  1  0  0.108641  0  3.777431  0  0  0.095865  0  4.02669  0  0  0.10001  0  4.048741  0  0.330892  0  0.092098  0.093239  0  4.011752  0
C  C85  1  0.48694606  0.38267295  0.07723854  1  0  0.108594  0  3.777448  0  0  0.09596  0  4.026632  0  0  0.100109  0  4.048684  0  0.330903  0  0.092127  0.093326  0  4.0117  0
C  C86  1  0.83779108  0.43553052  0.64631707  1  0  0.648977  0  3.963773  0  0  0.597537  0  4.264944  0  0  0.631706  0  4.257729  0  1.57948  0  0.188609  0.574419  0  4.268902  0
C  C87  1  0.16220453  0.56446989  0.35368426  1  0  0.648829  0  3.964171  0  0  0.597517  0  4.265203  0  0  0.631688  0  4.25799  0  1.579407  0  0.188573  0.574399  0  4.269163  0
C  C88  1  0.25157928  0.63857192  0.85476674  1  0  -0.037153  0  3.642632  0  0  -0.103389  0  3.887395  0  0  -0.099379  0  3.898027  0  0.282658  0  -0.042821  -0.105765  0  3.88001  0
C  C89  1  0.74841841  0.36142760  0.14523272  1  0  -0.037198  0  3.642643  0  0  -0.103411  0  3.887404  0  0  -0.099414  0  3.898071  0  0.282491  0  -0.042842  -0.105797  0  3.880031  0
C  C90  1  0.07148795  0.41230808  0.45985155  1  0  -0.134269  0  3.728825  0  0  -0.163661  0  3.980067  0  0  -0.164825  0  3.998442  0  0.014903  0  -0.090367  -0.162797  0  3.967878  0
C  C91  1  0.92851181  0.58769145  0.54015212  1  0  -0.134285  0  3.729063  0  0  -0.163719  0  3.980244  0  0  -0.164885  0  3.998623  0  0.01498  0  -0.090381  -0.162856  0  3.968054  0
C  C92  1  0.29391935  0.45596940  0.69955099  1  0  -0.40449  0  3.701785  0  0  -0.484769  0  3.939101  0  0  -0.489619  0  3.944852  0  -0.084363  0  -0.23471  -0.481241  0  3.934928  0
C  C93  1  0.70607729  0.54402835  0.30044826  1  0  -0.404447  0  3.701724  0  0  -0.48471  0  3.939017  0  0  -0.489566  0  3.944782  0  -0.084459  0  -0.234664  -0.481176  0  3.934836  0
C  C94  1  0.81035650  0.16191673  0.85980209  1  0  0.640992  0  3.944424  0  0  0.594692  0  4.232118  0  0  0.628725  0  4.2256  0  1.57663  0  0.192428  0.571546  0  4.235896  0
C  C95  1  0.18964534  0.83808280  0.14019592  1  0  0.640986  0  3.944441  0  0  0.594687  0  4.232139  0  0  0.628721  0  4.225617  0  1.57657  0  0.192454  0.57154  0  4.235917  0
C  C96  1  0.05114874  0.90350728  0.71590357  1  0  -0.063066  0  3.807834  0  0  -0.075095  0  4.062994  0  0  -0.076671  0  4.08624  0  -0.044663  0  -0.095779  -0.074179  0  4.047203  0
C  C97  1  0.94884997  0.09649136  0.28409382  1  0  -0.062971  0  3.807821  0  0  -0.075042  0  4.062956  0  0  -0.076598  0  4.086215  0  -0.044679  0  -0.095714  -0.074127  0  4.047165  0
C  C98  1  0.90506734  0.07815659  0.93380751  1  0  -0.079771  0  3.721257  0  0  -0.06708  0  3.961816  0  0  -0.071467  0  3.979901  0  0.019886  0  -0.015111  -0.064757  0  3.950277  0
C  C99  1  0.09493138  0.92184294  0.06618988  1  0  -0.079853  0  3.721257  0  0  -0.067169  0  3.961893  0  0  -0.071554  0  3.979976  0  0.019965  0  -0.015157  -0.064846  0  3.950353  0
C  C100  1  0.12947809  0.93847950  0.64768781  1  0  -0.133197  0  3.770671  0  0  -0.161828  0  4.026062  0  0  -0.165218  0  4.047635  0  -0.061703  0  -0.105179  -0.159839  0  4.011947  0
C  C101  1  0.87052271  0.06152091  0.35231151  1  0  -0.133194  0  3.770629  0  0  -0.161782  0  4.026062  0  0  -0.165171  0  4.047626  0  -0.061698  0  -0.105156  -0.159794  0  4.011947  0
C  C102  1  0.41354041  0.31533177  0.45875294  1  0  -0.136261  0  3.727217  0  0  -0.154537  0  3.977307  0  0  -0.156329  0  3.994788  0  0.034943  0  -0.091454  -0.153009  0  3.965428  0
C  C103  1  0.58646144  0.68467131  0.54124888  1  0  -0.136297  0  3.727197  0  0  -0.154593  0  3.977294  0  0  -0.156377  0  3.994776  0  0.034832  0  -0.09142  -0.153064  0  3.965417  0
C  C104  1  0.28903603  0.77796255  0.71176411  1  0  -0.170031  0  3.720214  0  0  -0.197506  0  3.962006  0  0  -0.201341  0  3.983314  0  -0.061248  0  -0.097765  -0.194553  0  3.946946  0
C  C105  1  0.71096581  0.22203964  0.28823618  1  0  -0.170014  0  3.72016  0  0  -0.197461  0  3.961946  0  0  -0.201294  0  3.98325  0  -0.061271  0  -0.097748  -0.194509  0  3.946888  0
C  C106  1  0.09017236  0.80496332  0.78071668  1  0  -0.116575  0  3.744172  0  0  -0.140506  0  3.993908  0  0  -0.144201  0  4.016288  0  0.005677  0  -0.093482  -0.138004  0  3.979174  0
C  C107  1  0.90982636  0.19503620  0.21928070  1  0  -0.116746  0  3.744233  0  0  -0.140673  0  3.993978  0  0  -0.144381  0  4.016345  0  0.005665  0  -0.093543  -0.138162  0  3.979242  0
C  C108  1  0.33418914  0.90951495  0.57082388  1  0  -0.027363  0  3.63466  0  0  -0.091424  0  3.876246  0  0  -0.086049  0  3.886266  0  0.27885  0  -0.046921  -0.09496  0  3.869075  0
C  C109  1  0.66581270  0.09048635  0.42917641  1  0  -0.027247  0  3.634591  0  0  -0.091273  0  3.876193  0  0  -0.085899  0  3.886217  0  0.278745  0  -0.046855  -0.094809  0  3.869022  0
C  C110  1  0.21049384  0.74201865  0.77988010  1  0  0.07407  0  3.760401  0  0  0.094788  0  4.003612  0  0  0.095097  0  4.027385  0  -0.042785  0  -0.013183  0.094405  0  3.987747  0
C  C111  1  0.78950592  0.25798176  0.22011902  1  0  0.0741  0  3.760488  0  0  0.094833  0  4.003666  0  0  0.095141  0  4.027438  0  -0.042812  0  -0.013176  0.094453  0  3.987798  0
C  C112  1  0.24866588  0.87533943  0.64503838  1  0  0.070793  0  3.786762  0  0  0.096326  0  4.021847  0  0  0.096164  0  4.045769  0  -0.057978  0  -0.016452  0.096361  0  4.005466  0
C  C113  1  0.75133700  0.12466188  0.35496288  1  0  0.070812  0  3.78658  0  0  0.096223  0  4.02181  0  0  0.096062  0  4.045734  0  -0.057925  0  -0.016482  0.096259  0  4.00543  0
N  N114  1  0.37031550  0.03597676  0.57386989  1  0  -0.167903  0  3.445742  0  0  -0.086579  0  3.670708  0  0  -0.104477  0  3.693088  0  -1.211658  0  -0.237148  -0.074708  0  3.655454  0
N  N115  1  0.62968945  0.96402454  0.42613026  1  0  -0.167861  0  3.445764  0  0  -0.086539  0  3.670686  0  0  -0.104437  0  3.693065  0  -1.211862  0  -0.237116  -0.07467  0  3.655428  0
N  N116  1  0.54243280  0.47846442  0.80418495  1  0  -0.512766  0  3.171142  0  0  -0.442292  0  3.452876  0  0  -0.46706  0  3.46573  0  -1.221817  0  -0.361624  -0.425659  0  3.443855  0
N  N117  1  0.45756384  0.52153333  0.19581582  1  0  -0.512785  0  3.171118  0  0  -0.442307  0  3.452862  0  0  -0.467077  0  3.465716  0  -1.221846  0  -0.361632  -0.425672  0  3.443843  0
N  N118  1  0.38521983  0.58701021  0.85551496  1  0  -0.166111  0  3.48653  0  0  -0.079458  0  3.703088  0  0  -0.097281  0  3.72689  0  -1.242133  0  -0.238475  -0.067835  0  3.686935  0
N  N119  1  0.61477578  0.41298754  0.14448484  1  0  -0.166074  0  3.486406  0  0  -0.079623  0  3.703141  0  0  -0.097453  0  3.726937  0  -1.241908  0  -0.238475  -0.06799  0  3.686989  0
N  N120  1  0.46675242  0.21017351  0.63526837  1  0  -0.508369  0  3.136435  0  0  -0.438978  0  3.408367  0  0  -0.463258  0  3.42147  0  -1.204523  0  -0.358926  -0.422458  0  3.399163  0
N  N121  1  0.53325253  0.78982690  0.36473330  1  0  -0.508359  0  3.136456  0  0  -0.439001  0  3.408385  0  0  -0.463275  0  3.42149  0  -1.204511  0  -0.358885  -0.422484  0  3.399179  0
Cl  Cl122  1  0.30157816  0.98281584  0.97457872  1  0  -0.068708  0  1.408766  0  0  -0.046066  0  1.647888  0  0  -0.049661  0  1.64453  0  -0.219386  0  0.030941  -0.041946  0  1.649213  0
Cl  Cl123  1  0.69842264  0.01718369  0.02541985  1  0  -0.068708  0  1.408791  0  0  -0.046126  0  1.647923  0  0  -0.049719  0  1.644568  0  -0.219336  0  0.03091  -0.042006  0  1.649246  0
Cl  Cl124  1  0.00450525  0.23955551  0.58039769  1  0  -0.078399  0  1.35307  0  0  -0.057315  0  1.580542  0  0  -0.059824  0  1.575456  0  -0.227655  0  0.016046  -0.055411  0  1.584099  0
Cl  Cl125  1  0.99549451  0.76044402  0.41960598  1  0  -0.078377  0  1.353074  0  0  -0.057296  0  1.580524  0  0  -0.059803  0  1.575438  0  -0.227611  0  0.016044  -0.055393  0  1.584082  0
O  O126  1  0.71679271  0.39530647  0.59850337  1  0  -0.646183  0  1.955267  0  0  -0.580981  0  2.202981  0  0  -0.612189  0  2.193833  0  -1.147196  0  -0.340654  -0.559104  0  2.208126  0
O  O127  1  0.28320187  0.60469483  0.40149471  1  0  -0.646143  0  1.955479  0  0  -0.580953  0  2.203105  0  0  -0.612172  0  2.193982  0  -1.147111  0  -0.340665  -0.559075  0  2.208249  0
O  O128  1  0.80197471  0.15192822  0.76252509  1  0  -0.619159  0  1.926496  0  0  -0.564676  0  2.156348  0  0  -0.591778  0  2.148196  0  -1.139381  0  -0.322264  -0.545583  0  2.161064  0
O  O129  1  0.19802816  0.84807308  0.23747389  1  0  -0.619105  0  1.926547  0  0  -0.564603  0  2.156361  0  0  -0.591723  0  2.148253  0  -1.139311  0  -0.322235  -0.545513  0  2.161089  0
O  O130  1  0.74434203  0.24018967  0.89818837  1  0  -0.647676  0  1.967979  0  0  -0.58679  0  2.21237  0  0  -0.615683  0  2.202288  0  -1.159605  0  -0.332073  -0.566669  0  2.218622  0
O  O131  1  0.25566188  0.75980897  0.10181157  1  0  -0.647731  0  1.967917  0  0  -0.586843  0  2.212311  0  0  -0.615731  0  2.202219  0  -1.159684  0  -0.332117  -0.566735  0  2.218592  0
O  O132  1  0.88419730  0.44538314  0.74426784  1  0  -0.624206  0  1.871975  0  0  -0.576093  0  2.088811  0  0  -0.601297  0  2.079815  0  -1.142292  0  -0.331027  -0.558334  0  2.094425  0
O  O133  1  0.11579726  0.55461461  0.25573404  1  0  -0.624133  0  1.872173  0  0  -0.576048  0  2.088937  0  0  -0.601246  0  2.079936  0  -1.142272  0  -0.330969  -0.558287  0  2.09455  0
