# generated using pymatgen
data_ZnH28C28(N5O3)2
_symmetry_space_group_name_H-M   'P 1'
_cell_length_a   8.67393678
_cell_length_b   9.41032015
_cell_length_c   9.84376608
_cell_angle_alpha   83.05681952
_cell_angle_beta   64.74463139
_cell_angle_gamma   81.76943673
_symmetry_Int_Tables_number   1
_chemical_formula_structural   ZnH28C28(N5O3)2
_chemical_formula_sum   'Zn1 H28 C28 N10 O6'
_cell_volume   717.59889905
_cell_formula_units_Z   1
loop_
 _symmetry_equiv_pos_site_id
 _symmetry_equiv_pos_as_xyz
  1  'x, y, z'
loop_
 _atom_site_type_symbol
 _atom_site_label
 _atom_site_symmetry_multiplicity
 _atom_site_fract_x
 _atom_site_fract_y
 _atom_site_fract_z
 _atom_site_occupancy
 _atom_site_hle17_bader_spin_density
 _atom_site_hle17_ddec_charge
 _atom_site_hle17_ddec_spin_density
 _atom_site_hle17_ddec_sum_bond_order
 _atom_site_hle17_magmom
 _atom_site_hse06_10hf_bader_spin_density
 _atom_site_hse06_10hf_ddec_charge
 _atom_site_hse06_10hf_ddec_spin_density
 _atom_site_hse06_10hf_ddec_sum_bond_order
 _atom_site_hse06_10hf_magmom
 _atom_site_hse06_bader_spin_density
 _atom_site_hse06_ddec_charge
 _atom_site_hse06_ddec_spin_density
 _atom_site_hse06_ddec_sum_bond_order
 _atom_site_hse06_magmom
 _atom_site_pbe_bader_spin_density
 _atom_site_pbe_cm5_charge
 _atom_site_pbe_ddec_charge
 _atom_site_pbe_ddec_spin_density
 _atom_site_pbe_ddec_sum_bond_order
 _atom_site_pbe_magmom
Zn  Zn0  1  0.99999846  0.49999954  0.00000092  1  0  0.942177  0  1.913048  0  0  0.752883  0  2.354359  0  0  0.794517  0  2.312879  0  0  0.702053  0.724925  0  2.381711  0
H  H1  1  0.57575684  0.56043202  0.17626063  1  0  0.09461  0  0.963317  0  0  0.104401  0  1.025386  0  0  0.106558  0  1.024371  0  0  0.114332  0.102453  0  1.026933  0
H  H2  1  0.42424250  0.43956303  0.82373920  1  0  0.094593  0  0.963394  0  0  0.104394  0  1.02545  0  0  0.10655  0  1.024436  0  0  0.114333  0.102444  0  1.026994  0
H  H3  1  0.36370279  0.36839671  0.16281725  1  0  0.127751  0  0.973685  0  0  0.131691  0  1.043126  0  0  0.135642  0  1.039973  0  0  0.120408  0.128531  0  1.046044  0
H  H4  1  0.63629412  0.63159726  0.83718462  1  0  0.127727  0  0.973704  0  0  0.131687  0  1.043129  0  0  0.135629  0  1.039974  0  0  0.12041  0.128539  0  1.046025  0
H  H5  1  0.88035492  0.18653297  0.97938952  1  0  0.107017  0  0.941976  0  0  0.116343  0  1.004259  0  0  0.118901  0  1.00086  0  0  0.139883  0.114207  0  1.007033  0
H  H6  1  0.11964416  0.81346422  0.02061120  1  0  0.107058  0  0.941971  0  0  0.116374  0  1.004266  0  0  0.118937  0  1.000856  0  0  0.139896  0.114243  0  1.007037  0
H  H7  1  0.38748876  0.07390265  0.26070708  1  0  0.110541  0  0.956736  0  0  0.117945  0  1.026118  0  0  0.120293  0  1.026444  0  0  0.105658  0.116463  0  1.025504  0
H  H8  1  0.61250904  0.92609454  0.73929412  1  0  0.110537  0  0.956713  0  0  0.117938  0  1.026101  0  0  0.120286  0  1.026428  0  0  0.105663  0.116458  0  1.02549  0
H  H9  1  0.88434537  0.12625823  0.74692574  1  0  0.119581  0  0.952162  0  0  0.137069  0  1.020669  0  0  0.138373  0  1.020115  0  0  0.094229  0.13602  0  1.02103  0
H  H10  1  0.11564950  0.87374220  0.25307521  1  0  0.11961  0  0.952192  0  0  0.137115  0  1.020662  0  0  0.138419  0  1.020109  0  0  0.094267  0.136067  0  1.021027  0
H  H11  1  0.73114048  0.27644241  0.75961622  1  0  0.105517  0  0.948741  0  0  0.12672  0  1.009351  0  0  0.127814  0  1.009765  0  0  0.090056  0.12576  0  1.009435  0
H  H12  1  0.26885451  0.72355693  0.24038581  1  0  0.105525  0  0.948744  0  0  0.126717  0  1.009362  0  0  0.127812  0  1.009775  0  0  0.090051  0.125758  0  1.00945  0
H  H13  1  0.76136415  0.13448545  0.64271180  1  0  0.119999  0  0.956574  0  0  0.145622  0  1.010389  0  0  0.14665  0  1.010918  0  0  0.095512  0.144654  0  1.010131  0
H  H14  1  0.23863225  0.86551282  0.35728982  1  0  0.120038  0  0.956573  0  0  0.14566  0  1.010382  0  0  0.146691  0  1.010911  0  0  0.095523  0.1447  0  1.010124  0
H  H15  1  0.74227820  0.79003786  0.14369523  1  0  0.105582  0  0.948483  0  0  0.106929  0  1.024444  0  0  0.110447  0  1.020433  0  0  0.133969  0.103972  0  1.028279  0
H  H16  1  0.25772278  0.20996470  0.85630523  1  0  0.105617  0  0.948482  0  0  0.10697  0  1.024423  0  0  0.110489  0  1.020412  0  0  0.133989  0.104011  0  1.028255  0
H  H17  1  0.00057392  0.47561987  0.33675410  1  0  0.107053  0  0.975032  0  0  0.112271  0  1.041693  0  0  0.115652  0  1.039131  0  0  0.115013  0.109643  0  1.043845  0
H  H18  1  0.99942120  0.52437840  0.66324800  1  0  0.107062  0  0.975009  0  0  0.112265  0  1.041685  0  0  0.115646  0  1.039124  0  0  0.115012  0.109636  0  1.043837  0
H  H19  1  0.81668219  0.68578333  0.54440518  1  0  0.12307  0  0.969341  0  0  0.128836  0  1.036813  0  0  0.132482  0  1.033949  0  0  0.121123  0.126026  0  1.039465  0
H  H20  1  0.18332006  0.31421923  0.45559480  1  0  0.12313  0  0.969381  0  0  0.128893  0  1.036842  0  0  0.132537  0  1.033979  0  0  0.121153  0.126085  0  1.039494  0
H  H21  1  0.44520254  0.63654628  0.59781078  1  0  0.106226  0  0.976865  0  0  0.123599  0  1.04676  0  0  0.124266  0  1.048302  0  0  0.0871  0.122818  0  1.046209  0
H  H22  1  0.55479997  0.36345412  0.40219034  1  0  0.1062  0  0.976853  0  0  0.123578  0  1.046741  0  0  0.124243  0  1.048284  0  0  0.087084  0.122796  0  1.046191  0
H  H23  1  0.43909090  0.66749933  0.41973752  1  0  0.100217  0  0.95841  0  0  0.121786  0  1.022296  0  0  0.122677  0  1.022505  0  0  0.088919  0.120744  0  1.023297  0
H  H24  1  0.56091225  0.33250645  0.58026179  1  0  0.100333  0  0.95826  0  0  0.121853  0  1.022198  0  0  0.12275  0  1.022397  0  0  0.088957  0.120811  0  1.023202  0
H  H25  1  0.25282936  0.71449508  0.58393548  1  0  0.121108  0  0.960516  0  0  0.140713  0  1.022501  0  0  0.141791  0  1.023051  0  0  0.093682  0.140201  0  1.021401  0
H  H26  1  0.74717492  0.28551178  0.41606328  1  0  0.121173  0  0.960387  0  0  0.140747  0  1.022399  0  0  0.141822  0  1.022949  0  0  0.093688  0.14024  0  1.021293  0
H  H27  1  0.80679572  0.04034989  0.35228388  1  0  0.127107  0  0.961145  0  0  0.130874  0  1.031928  0  0  0.13522  0  1.028269  0  0  0.108658  0.12763  0  1.03468  0
H  H28  1  0.19320755  0.95965479  0.64771752  1  0  0.127044  0  0.961034  0  0  0.130822  0  1.031815  0  0  0.135173  0  1.028144  0  0  0.108647  0.127577  0  1.034565  0
C  C29  1  0.60697432  0.45317961  0.13632979  1  0  0.005811  0  3.762537  0  0  -0.025436  0  4.027256  0  0  -0.023139  0  4.046588  0  0  -0.004164  -0.027285  0  4.01498  0
C  C30  1  0.39302246  0.54681545  0.86366999  1  0  0.005829  0  3.762391  0  0  -0.025407  0  4.027078  0  0  -0.023111  0  4.046408  0  0  -0.004201  -0.027245  0  4.014788  0
C  C31  1  0.50036190  0.36038209  0.13289356  1  0  -0.069205  0  3.652595  0  0  -0.108308  0  3.911111  0  0  -0.107432  0  3.929203  0  0  -0.000621  -0.109078  0  3.899533  0
C  C32  1  0.49963348  0.63961406  0.86710561  1  0  -0.069276  0  3.652628  0  0  -0.108386  0  3.91117  0  0  -0.107497  0  3.929253  0  0  -0.000627  -0.109158  0  3.899588  0
C  C33  1  0.77125349  0.26478348  0.02951052  1  0  0.184843  0  3.627136  0  0  0.122639  0  3.891762  0  0  0.13688  0  3.903761  0  0  0.147994  0.113248  0  3.883593  0
C  C34  1  0.22874585  0.73521156  0.97049033  1  0  0.184704  0  3.627251  0  0  0.122528  0  3.891868  0  0  0.136768  0  3.903871  0  0  0.147912  0.113134  0  3.883706  0
C  C35  1  0.55554976  0.11809482  0.02880428  1  0  0.118168  0  3.751798  0  0  0.105416  0  4.000813  0  0  0.109089  0  4.023829  0  0  0.089867  0.102936  0  3.985334  0
C  C36  1  0.44444971  0.88189912  0.97119866  1  0  0.118202  0  3.751688  0  0  0.105442  0  4.00073  0  0  0.109113  0  4.023749  0  0  0.08988  0.102966  0  3.985251  0
C  C37  1  0.43565105  0.04033845  0.14634738  1  0  -0.179647  0  3.725903  0  0  -0.21096  0  3.985439  0  0  -0.214955  0  4.00743  0  0  -0.091459  -0.208554  0  3.970781  0
C  C38  1  0.56434688  0.95965765  0.85365490  1  0  -0.17957  0  3.725702  0  0  -0.210888  0  3.98526  0  0  -0.214881  0  4.007249  0  0  -0.091412  -0.208486  0  3.970607  0
C  C39  1  0.62424638  0.07968257  0.87890833  1  0  0.092025  0  3.744284  0  0  0.10987  0  3.991977  0  0  0.109337  0  4.016121  0  0  -0.005891  0.110235  0  3.975844  0
C  C40  1  0.37575168  0.92031247  0.12109300  1  0  0.092055  0  3.744286  0  0  0.109894  0  3.991992  0  0  0.109362  0  4.016136  0  0  -0.005861  0.110258  0  3.975863  0
C  C41  1  0.75608537  0.15942555  0.75044804  1  0  -0.337054  0  3.728674  0  0  -0.421554  0  3.967982  0  0  -0.423218  0  3.977615  0  0  -0.243368  -0.420064  0  3.961557  0
C  C42  1  0.24390989  0.84057165  0.24955411  1  0  -0.337157  0  3.728721  0  0  -0.421659  0  3.968033  0  0  -0.423327  0  3.977667  0  0  -0.243429  -0.420175  0  3.961615  0
C  C43  1  0.78607005  0.73003227  0.22415755  1  0  0.160631  0  3.63778  0  0  0.099601  0  3.907075  0  0  0.113489  0  3.9167  0  0  0.141854  0.090134  0  3.901716  0
C  C44  1  0.21393348  0.26997029  0.77584093  1  0  0.160571  0  3.637761  0  0  0.099549  0  3.907041  0  0  0.113436  0  3.916665  0  0  0.14184  0.090084  0  3.901678  0
C  C45  1  0.91849914  0.57179867  0.32920849  1  0  0.003174  0  3.729306  0  0  -0.026751  0  3.989081  0  0  -0.025651  0  4.008954  0  0  -0.001842  -0.027133  0  3.974979  0
C  C46  1  0.08150096  0.42820067  0.67079163  1  0  0.003217  0  3.729232  0  0  -0.026693  0  3.989002  0  0  -0.02559  0  4.008872  0  0  -0.001829  -0.02707  0  3.974898  0
C  C47  1  0.82639912  0.67180070  0.43311574  1  0  -0.054501  0  3.642656  0  0  -0.089871  0  3.890303  0  0  -0.08865  0  3.908933  0  0  0.005018  -0.090392  0  3.877868  0
C  C48  1  0.17360339  0.32819973  0.56688233  1  0  -0.054625  0  3.642744  0  0  -0.089989  0  3.890377  0  0  -0.088769  0  3.909008  0  0  0.004964  -0.090519  0  3.877948  0
C  C49  1  0.61855208  0.88797723  0.43442502  1  0  0.10982  0  3.757828  0  0  0.096687  0  4.009049  0  0  0.099924  0  4.032423  0  0  0.088695  0.095315  0  3.992007  0
C  C50  1  0.38145272  0.11202534  0.56557197  1  0  0.109807  0  3.75772  0  0  0.096668  0  4.008999  0  0  0.099905  0  4.032376  0  0  0.088707  0.095305  0  3.991948  0
C  C51  1  0.44688674  0.85936695  0.51578182  1  0  0.091764  0  3.745403  0  0  0.109178  0  3.993123  0  0  0.109263  0  4.016584  0  0  -0.003868  0.109462  0  3.97578  0
C  C52  1  0.55311666  0.14063667  0.48421863  1  0  0.091865  0  3.745259  0  0  0.109223  0  3.993068  0  0  0.109306  0  4.016528  0  0  -0.003808  0.109504  0  3.975724  0
C  C53  1  0.39265091  0.71186430  0.53020986  1  0  -0.331688  0  3.726455  0  0  -0.415147  0  3.966058  0  0  -0.41728  0  3.976609  0  0  -0.245588  -0.412836  0  3.95821  0
C  C54  1  0.60735249  0.28813932  0.46979060  1  0  -0.331856  0  3.726285  0  0  -0.415232  0  3.965921  0  0  -0.417362  0  3.976467  0  0  -0.245638  -0.412924  0  3.958075  0
C  C55  1  0.67181534  0.02438265  0.41788629  1  0  -0.177122  0  3.697144  0  0  -0.20508  0  3.952042  0  0  -0.20824  0  3.97036  0  0  -0.08461  -0.202344  0  3.93841  0
C  C56  1  0.32819214  0.97561884  0.58211083  1  0  -0.177022  0  3.697098  0  0  -0.205002  0  3.951975  0  0  -0.208162  0  3.970292  0  0  -0.084583  -0.202269  0  3.938339  0
N  N57  1  0.89195866  0.60949488  0.20013575  1  0  -0.366314  0  3.300453  0  0  -0.292592  0  3.586097  0  0  -0.311094  0  3.602165  0  0  -0.348921  -0.279975  0  3.574559  0
N  N58  1  0.10804245  0.39050661  0.79986376  1  0  -0.366316  0  3.300397  0  0  -0.292604  0  3.586056  0  0  -0.311103  0  3.60212  0  0  -0.348913  -0.279989  0  3.574516  0
N  N59  1  0.74348131  0.77148826  0.36457477  1  0  -0.088504  0  3.612476  0  0  0.004593  0  3.819688  0  0  -0.010018  0  3.846049  0  0  -0.228499  0.013968  0  3.80196  0
N  N60  1  0.25652209  0.22851537  0.63542467  1  0  -0.088481  0  3.612398  0  0  0.004612  0  3.819624  0  0  -0.009998  0  3.845988  0  0  -0.228532  0.013987  0  3.801895  0
N  N61  1  0.77497461  0.39246123  0.07207826  1  0  -0.367606  0  3.260718  0  0  -0.294254  0  3.543909  0  0  -0.313574  0  3.560223  0  0  -0.349045  -0.281186  0  3.532554  0
N  N62  1  0.22502204  0.60753489  0.92792348  1  0  -0.367478  0  3.260637  0  0  -0.294153  0  3.54384  0  0  -0.313472  0  3.560157  0  0  -0.348962  -0.281085  0  3.532491  0
N  N63  1  0.60728979  0.24124117  0.06363776  1  0  -0.084841  0  3.604398  0  0  0.007464  0  3.813078  0  0  -0.007308  0  3.839274  0  0  -0.227812  0.017388  0  3.795263  0
N  N64  1  0.39270840  0.75875282  0.93636159  1  0  -0.084801  0  3.604527  0  0  0.007474  0  3.813233  0  0  -0.007299  0  3.839429  0  0  -0.227797  0.017399  0  3.795423  0
N  N65  1  0.08057273  0.21754544  0.18625120  1  0  0.721859  0  4.104004  0  0  0.736376  0  4.423769  0  0  0.764714  0  4.428319  0  0  0.097087  0.717461  0  4.419992  0
N  N66  1  0.91942723  0.78245499  0.81374784  1  0  0.721825  0  4.10416  0  0  0.736326  0  4.423945  0  0  0.764658  0  4.428498  0  0  0.097042  0.717401  0  4.420181  0
O  O67  1  0.04424365  0.12149898  0.12960413  1  0  -0.466722  0  1.728671  0  0  -0.455532  0  1.944988  0  0  -0.469073  0  1.939652  0  0  -0.18551  -0.445863  0  1.948996  0
O  O68  1  0.95575746  0.87850252  0.87039436  1  0  -0.466751  0  1.728725  0  0  -0.455537  0  1.945037  0  0  -0.46908  0  1.939703  0  0  -0.185498  -0.445862  0  1.949049  0
O  O69  1  0.05838947  0.20622016  0.32217271  1  0  -0.473118  0  1.704451  0  0  -0.460369  0  1.916254  0  0  -0.473177  0  1.909906  0  0  -0.193368  -0.451839  0  1.921016  0
O  O70  1  0.94161036  0.79378134  0.67782728  1  0  -0.473072  0  1.704472  0  0  -0.460311  0  1.916269  0  0  -0.473134  0  1.909942  0  0  -0.193345  -0.451777  0  1.921034  0
O  O71  1  0.14439862  0.33063678  0.10349875  1  0  -0.538337  0  1.814378  0  0  -0.507268  0  2.068415  0  0  -0.523978  0  2.058394  0  0  -0.215569  -0.495256  0  2.074785  0
O  O72  1  0.85560236  0.66936579  0.89650070  1  0  -0.538307  0  1.814412  0  0  -0.507253  0  2.068476  0  0  -0.52394  0  2.058434  0  0  -0.215563  -0.495235  0  2.074845  0
