# generated using pymatgen
data_H32RhC34N5
_symmetry_space_group_name_H-M   'P 1'
_cell_length_a   10.93059214
_cell_length_b   13.65050877
_cell_length_c   13.65038692
_cell_angle_alpha   64.33414293
_cell_angle_beta   66.34898830
_cell_angle_gamma   66.34814092
_symmetry_Int_Tables_number   1
_chemical_formula_structural   H32RhC34N5
_chemical_formula_sum   'H64 Rh2 C68 N10'
_cell_volume   1616.54262805
_cell_formula_units_Z   2
loop_
 _symmetry_equiv_pos_site_id
 _symmetry_equiv_pos_as_xyz
  1  'x, y, z'
loop_
 _atom_site_type_symbol
 _atom_site_label
 _atom_site_symmetry_multiplicity
 _atom_site_fract_x
 _atom_site_fract_y
 _atom_site_fract_z
 _atom_site_occupancy
 _atom_site_hle17_bader_spin_density
 _atom_site_hle17_ddec_charge
 _atom_site_hle17_ddec_spin_density
 _atom_site_hle17_ddec_sum_bond_order
 _atom_site_hle17_magmom
 _atom_site_hse06_10hf_bader_spin_density
 _atom_site_hse06_10hf_ddec_charge
 _atom_site_hse06_10hf_ddec_spin_density
 _atom_site_hse06_10hf_ddec_sum_bond_order
 _atom_site_hse06_10hf_magmom
 _atom_site_hse06_bader_spin_density
 _atom_site_hse06_ddec_charge
 _atom_site_hse06_ddec_spin_density
 _atom_site_hse06_ddec_sum_bond_order
 _atom_site_hse06_magmom
 _atom_site_pbe_bader_spin_density
 _atom_site_pbe_cm5_charge
 _atom_site_pbe_ddec_charge
 _atom_site_pbe_ddec_spin_density
 _atom_site_pbe_ddec_sum_bond_order
 _atom_site_pbe_magmom
H  H0  1  0.88511568  0.86764421  0.87058489  1  0  0.039608  0  0.936712  0  0  0.054776  0  1.001757  0  0  0.054805  0  0.998815  0  0  0.116644  0.054723  0  1.003592  0
H  H1  1  0.37692973  0.87029448  0.86764766  1  0  0.040736  0  0.936756  0  0  0.05552  0  1.002209  0  0  0.055532  0  0.999291  0  0  0.11723  0.055779  0  1.003649  0
H  H2  1  0.11487718  0.12942698  0.13235746  1  0  0.039666  0  0.93677  0  0  0.054819  0  1.001828  0  0  0.054843  0  0.998879  0  0  0.116729  0.054766  0  1.003665  0
H  H3  1  0.62307240  0.13234883  0.12972101  1  0  0.040673  0  0.936863  0  0  0.055459  0  1.002318  0  0  0.055472  0  0.9994  0  0  0.117174  0.055721  0  1.003753  0
H  H4  1  0.11790447  0.69698416  0.89864168  1  0  0.095134  0  0.945463  0  0  0.108188  0  1.002524  0  0  0.111236  0  1.001069  0  0  0.098966  0.105896  0  1.003802  0
H  H5  1  0.28774426  0.89819404  0.69688946  1  0  0.09586  0  0.945226  0  0  0.109104  0  1.002024  0  0  0.112196  0  1.000501  0  0  0.09961  0.10682  0  1.00329  0
H  H6  1  0.88210771  0.10135772  0.30302650  1  0  0.095081  0  0.94558  0  0  0.108169  0  1.00259  0  0  0.111215  0  1.001138  0  0  0.098993  0.105902  0  1.003844  0
H  H7  1  0.71225840  0.30310705  0.10181672  1  0  0.095788  0  0.945301  0  0  0.10905  0  1.002104  0  0  0.112142  0  1.000582  0  0  0.099608  0.106766  0  1.003373  0
H  H8  1  0.13310221  0.49310780  0.96226373  1  0  0.087934  0  0.986489  0  0  0.100969  0  1.04396  0  0  0.102709  0  1.044926  0  0  0.0944  0.099724  0  1.043317  0
H  H9  1  0.41251108  0.96211346  0.49296006  1  0  0.087267  0  0.987051  0  0  0.100404  0  1.044499  0  0  0.102074  0  1.045549  0  0  0.093857  0.099128  0  1.043986  0
H  H10  1  0.86689997  0.03772736  0.50690450  1  0  0.088089  0  0.986433  0  0  0.101149  0  1.043859  0  0  0.102887  0  1.044828  0  0  0.094452  0.099904  0  1.043215  0
H  H11  1  0.58750935  0.50703958  0.03788320  1  0  0.087377  0  0.987188  0  0  0.100529  0  1.044572  0  0  0.102197  0  1.045621  0  0  0.093916  0.099251  0  1.044059  0
H  H12  1  0.80792875  0.52620584  0.26494948  1  0  0.072683  0  0.977787  0  0  0.084769  0  1.042029  0  0  0.08683  0  1.04153  0  0  0.090324  0.083204  0  1.042588  0
H  H13  1  0.40092580  0.26485461  0.52609987  1  0  0.072955  0  0.977798  0  0  0.085363  0  1.041647  0  0  0.08743  0  1.041147  0  0  0.090487  0.083773  0  1.042199  0
H  H14  1  0.19206986  0.73504188  0.47381158  1  0  0.072738  0  0.977562  0  0  0.084792  0  1.041858  0  0  0.086857  0  1.041364  0  0  0.09028  0.083224  0  1.04242  0
H  H15  1  0.59906012  0.47389292  0.73515325  1  0  0.072973  0  0.977761  0  0  0.085369  0  1.041618  0  0  0.087435  0  1.04112  0  0  0.09049  0.08378  0  1.042169  0
H  H16  1  0.79110111  0.73005010  0.20036965  1  0  0.096765  0  0.981899  0  0  0.105206  0  1.048626  0  0  0.107029  0  1.049479  0  0  0.097258  0.103854  0  1.048166  0
H  H17  1  0.27877953  0.20002813  0.73002491  1  0  0.096768  0  0.981503  0  0  0.105247  0  1.048172  0  0  0.107133  0  1.048961  0  0  0.096985  0.103859  0  1.047765  0
H  H18  1  0.20891268  0.79962610  0.26996228  1  0  0.096724  0  0.981887  0  0  0.105194  0  1.048599  0  0  0.107018  0  1.049449  0  0  0.097234  0.103841  0  1.048139  0
H  H19  1  0.72120251  0.26996485  0.79998993  1  0  0.096738  0  0.981246  0  0  0.105142  0  1.048014  0  0  0.107036  0  1.048793  0  0  0.096921  0.103749  0  1.04762  0
H  H20  1  0.92019313  0.34098018  0.24396925  1  0  0.09276  0  0.967689  0  0  0.111903  0  1.034596  0  0  0.113195  0  1.034001  0  0  0.083503  0.110931  0  1.03505  0
H  H21  1  0.49419572  0.24446025  0.34057689  1  0  0.093382  0  0.96607  0  0  0.112335  0  1.033314  0  0  0.113682  0  1.032665  0  0  0.082909  0.111338  0  1.033758  0
H  H22  1  0.07980374  0.75601783  0.65904669  1  0  0.092783  0  0.96779  0  0  0.111971  0  1.034637  0  0  0.113264  0  1.034041  0  0  0.083509  0.110999  0  1.035089  0
H  H23  1  0.50581149  0.65941763  0.75554765  1  0  0.093408  0  0.966179  0  0  0.112391  0  1.033376  0  0  0.113736  0  1.032729  0  0  0.082959  0.111393  0  1.033819  0
H  H24  1  0.08541842  0.31796845  0.14362742  1  0  0.105974  0  0.943075  0  0  0.12781  0  1.002022  0  0  0.129063  0  1.001988  0  0  0.090217  0.126833  0  1.00212  0
H  H25  1  0.45127777  0.14467572  0.31791114  1  0  0.106301  0  0.943214  0  0  0.128378  0  1.00169  0  0  0.129641  0  1.001645  0  0  0.090168  0.127608  0  1.001296  0
H  H26  1  0.91457681  0.85636501  0.68203968  1  0  0.105991  0  0.94309  0  0  0.12786  0  1.002003  0  0  0.129112  0  1.00197  0  0  0.090208  0.126882  0  1.002101  0
H  H27  1  0.54872925  0.68209130  0.85532818  1  0  0.106293  0  0.943418  0  0  0.128376  0  1.001879  0  0  0.129648  0  1.001826  0  0  0.090151  0.127605  0  1.001483  0
H  H28  1  0.93315542  0.35862320  0.10348879  1  0  0.107609  0  0.951423  0  0  0.127942  0  1.015156  0  0  0.128729  0  1.016045  0  0  0.088584  0.127361  0  1.014507  0
H  H29  1  0.60414571  0.10394623  0.35726427  1  0  0.108279  0  0.951303  0  0  0.128749  0  1.0149  0  0  0.129561  0  1.015779  0  0  0.089141  0.127872  0  1.01485  0
H  H30  1  0.06683919  0.89649754  0.64140233  1  0  0.107672  0  0.951365  0  0  0.12803  0  1.015079  0  0  0.128824  0  1.015959  0  0  0.08859  0.127448  0  1.014429  0
H  H31  1  0.39586897  0.64273411  0.89605523  1  0  0.108241  0  0.951312  0  0  0.128743  0  1.01489  0  0  0.129555  0  1.015769  0  0  0.089139  0.127864  0  1.014842  0
H  H32  1  0.42740165  0.85934953  0.04334756  1  0  0.096127  0  0.942106  0  0  0.109063  0  0.997468  0  0  0.11228  0  0.995713  0  0  0.100162  0.106735  0  0.998804  0
H  H33  1  0.66978941  0.04360716  0.85935354  1  0  0.096249  0  0.940999  0  0  0.109126  0  0.996405  0  0  0.112415  0  0.994554  0  0  0.099806  0.106715  0  0.997877  0
H  H34  1  0.57261262  0.95664973  0.14065378  1  0  0.096218  0  0.942007  0  0  0.109145  0  0.997384  0  0  0.112363  0  0.995626  0  0  0.10016  0.106818  0  0.998718  0
H  H35  1  0.33020851  0.14064461  0.95638666  1  0  0.096303  0  0.940957  0  0  0.109159  0  0.996381  0  0  0.112447  0  0.994531  0  0  0.099801  0.106748  0  0.997852  0
H  H36  1  0.57773097  0.70229748  0.16082968  1  0  0.090521  0  0.963986  0  0  0.102229  0  1.0248  0  0  0.104323  0  1.025021  0  0  0.095086  0.100902  0  1.024411  0
H  H37  1  0.55939613  0.16086316  0.70208038  1  0  0.091164  0  0.963753  0  0  0.10305  0  1.024334  0  0  0.105226  0  1.024477  0  0  0.0958  0.101693  0  1.02394  0
H  H38  1  0.42227768  0.83917474  0.29769479  1  0  0.090528  0  0.963945  0  0  0.102257  0  1.02472  0  0  0.104341  0  1.024972  0  0  0.095117  0.10093  0  1.024331  0
H  H39  1  0.44060628  0.29790674  0.83911611  1  0  0.091213  0  0.963694  0  0  0.103115  0  1.024276  0  0  0.105297  0  1.024406  0  0  0.095799  0.101752  0  1.023897  0
H  H40  1  0.33741413  0.48243630  0.23375962  1  0  0.087602  0  0.943026  0  0  0.102833  0  0.995656  0  0  0.105518  0  0.99487  0  0  0.09826  0.100891  0  0.996271  0
H  H41  1  0.94746788  0.23283005  0.48223811  1  0  0.087729  0  0.942825  0  0  0.10294  0  0.995372  0  0  0.105663  0  0.99457  0  0  0.098308  0.100923  0  0.996067  0
H  H42  1  0.66260245  0.76622208  0.51756423  1  0  0.087608  0  0.94292  0  0  0.102817  0  0.995584  0  0  0.105504  0  0.994795  0  0  0.09825  0.100876  0  0.996199  0
H  H43  1  0.05252097  0.51775035  0.76715805  1  0  0.087727  0  0.942865  0  0  0.102947  0  0.995408  0  0  0.105656  0  0.994622  0  0  0.098328  0.100959  0  0.99607  0
H  H44  1  0.19258766  0.63772773  0.11171196  1  0  0.101332  0  0.970122  0  0  0.111857  0  1.030608  0  0  0.114045  0  1.03094  0  0  0.101244  0.110448  0  1.030204  0
H  H45  1  0.05858724  0.11112805  0.63778402  1  0  0.102491  0  0.96842  0  0  0.112406  0  1.029573  0  0  0.114586  0  1.029925  0  0  0.101334  0.110994  0  1.029166  0
H  H46  1  0.80743055  0.88826950  0.36228708  1  0  0.101368  0  0.969975  0  0  0.111883  0  1.030484  0  0  0.114066  0  1.030825  0  0  0.101279  0.110473  0  1.030081  0
H  H47  1  0.94140086  0.36221448  0.88886989  1  0  0.102376  0  0.96851  0  0  0.11231  0  1.029666  0  0  0.114485  0  1.030027  0  0  0.101328  0.1109  0  1.029256  0
H  H48  1  0.50532769  0.41668105  0.33281228  1  0  0.095453  0  0.969025  0  0  0.116484  0  1.033497  0  0  0.117691  0  1.033299  0  0  0.086778  0.115621  0  1.033602  0
H  H49  1  0.74608919  0.33236144  0.41634443  1  0  0.095472  0  0.96967  0  0  0.116866  0  1.033624  0  0  0.118121  0  1.033362  0  0  0.087468  0.115982  0  1.033765  0
H  H50  1  0.49468839  0.66717447  0.58331437  1  0  0.09549  0  0.968951  0  0  0.116514  0  1.033447  0  0  0.117715  0  1.033254  0  0  0.086788  0.115651  0  1.033552  0
H  H51  1  0.25389855  0.58364614  0.66761979  1  0  0.095462  0  0.969611  0  0  0.1168  0  1.033628  0  0  0.118049  0  1.033372  0  0  0.087422  0.115917  0  1.033768  0
H  H52  1  0.56141628  0.51609151  0.34384076  1  0  0.097318  0  0.951947  0  0  0.119616  0  1.012575  0  0  0.120597  0  1.012629  0  0  0.087837  0.118831  0  1.012724  0
H  H53  1  0.57935712  0.34379725  0.51576969  1  0  0.096446  0  0.952222  0  0  0.118704  0  1.013023  0  0  0.119684  0  1.01309  0  0  0.087344  0.117916  0  1.013148  0
H  H54  1  0.43859175  0.65616071  0.48389791  1  0  0.09722  0  0.95199  0  0  0.119548  0  1.012584  0  0  0.120526  0  1.012641  0  0  0.087824  0.118766  0  1.012729  0
H  H55  1  0.42061986  0.48421900  0.65618928  1  0  0.096374  0  0.952329  0  0  0.118653  0  1.013105  0  0  0.119635  0  1.013167  0  0  0.087347  0.117868  0  1.013226  0
H  H56  1  0.65773397  0.45534135  0.23487473  1  0  0.108308  0  0.948194  0  0  0.13305  0  1.005117  0  0  0.133753  0  1.006038  0  0  0.09293  0.132496  0  1.0045  0
H  H57  1  0.65264107  0.23465496  0.45526311  1  0  0.108338  0  0.948823  0  0  0.132838  0  1.006053  0  0  0.133511  0  1.007025  0  0  0.092951  0.132323  0  1.005398  0
H  H58  1  0.34228086  0.76511499  0.54465664  1  0  0.108303  0  0.948104  0  0  0.133045  0  1.005026  0  0  0.13376  0  1.00593  0  0  0.092912  0.132486  0  1.004417  0
H  H59  1  0.34734920  0.54473823  0.76532082  1  0  0.108371  0  0.948859  0  0  0.132859  0  1.006093  0  0  0.133531  0  1.007063  0  0  0.092998  0.13234  0  1.005444  0
H  H60  1  0.19623317  0.41420627  0.58692383  1  0  0.113895  0  0.946829  0  0  0.124983  0  1.004274  0  0  0.128026  0  1.003277  0  0  0.111085  0.122841  0  1.005013  0
H  H61  1  0.80220872  0.58726693  0.41469777  1  0  0.113867  0  0.947398  0  0  0.125306  0  1.004372  0  0  0.128302  0  1.003453  0  0  0.11113  0.123165  0  1.005123  0
H  H62  1  0.80374943  0.41309058  0.58577311  1  0  0.11382  0  0.946869  0  0  0.124894  0  1.00436  0  0  0.127947  0  1.003329  0  0  0.111042  0.122752  0  1.005101  0
H  H63  1  0.19779750  0.58526949  0.41274241  1  0  0.113943  0  0.947461  0  0  0.125442  0  1.004351  0  0  0.128453  0  1.003383  0  0  0.111171  0.1233  0  1.005102  0
Rh  Rh64  1  0.00000315  0.90934607  0.09065905  1  0  0.388412  0  3.601798  0  0  0.318611  0  4.173056  0  0  0.325161  0  4.165625  0  0  0.730686  0.317738  0  4.17572  0
Rh  Rh65  1  0.99999452  0.09058994  0.90941708  1  0  0.3889  0  3.600127  0  0  0.319093  0  4.171451  0  0  0.325769  0  4.164015  0  0  0.730068  0.318278  0  4.173937  0
C  C66  1  0.91912145  0.90566067  0.90830090  1  0  0.284127  0  3.815614  0  0  0.21915  0  4.101887  0  0  0.245763  0  4.106728  0  0  0.156317  0.201764  0  4.098024  0
C  C67  1  0.26705644  0.90807356  0.90563046  1  0  0.28269  0  3.815934  0  0  0.217649  0  4.101903  0  0  0.244077  0  4.106652  0  0  0.155599  0.199941  0  4.098651  0
C  C68  1  0.08087331  0.09170698  0.09434574  1  0  0.28386  0  3.815672  0  0  0.218943  0  4.101989  0  0  0.245572  0  4.106816  0  0  0.156226  0.201554  0  4.09813  0
C  C69  1  0.73293854  0.09436647  0.09194460  1  0  0.282726  0  3.816298  0  0  0.217615  0  4.102215  0  0  0.24404  0  4.106966  0  0  0.155668  0.199911  0  4.09896  0
C  C70  1  0.95248050  0.72766454  0.04461135  1  0  0.200856  0  3.839152  0  0  0.199861  0  4.089906  0  0  0.205852  0  4.113346  0  0  0.077804  0.195798  0  4.074024  0
C  C71  1  0.27575725  0.04427506  0.72762743  1  0  0.202133  0  3.836733  0  0  0.200889  0  4.087355  0  0  0.206834  0  4.110762  0  0  0.079425  0.196834  0  4.071599  0
C  C72  1  0.04752166  0.95539837  0.27234428  1  0  0.200694  0  3.839066  0  0  0.199713  0  4.089825  0  0  0.205709  0  4.11326  0  0  0.077838  0.195645  0  4.073953  0
C  C73  1  0.72424061  0.27236828  0.95573291  1  0  0.202057  0  3.836924  0  0  0.200727  0  4.08757  0  0  0.206672  0  4.110979  0  0  0.079407  0.196673  0  4.071813  0
C  C74  1  0.04849588  0.65924749  0.97841360  1  0  -0.158436  0  3.768834  0  0  -0.178101  0  4.021756  0  0  -0.18209  0  4.042599  0  0  -0.099968  -0.175343  0  4.007731  0
C  C75  1  0.31483539  0.97803032  0.65918423  1  0  -0.161665  0  3.769156  0  0  -0.181652  0  4.022621  0  0  -0.185683  0  4.043373  0  0  -0.102768  -0.178851  0  4.008563  0
C  C76  1  0.95150344  0.02159004  0.34076670  1  0  -0.158178  0  3.768481  0  0  -0.177864  0  4.021418  0  0  -0.181851  0  4.042255  0  0  -0.099983  -0.175131  0  4.007401  0
C  C77  1  0.68516586  0.34081763  0.02197743  1  0  -0.161507  0  3.769263  0  0  -0.18152  0  4.022759  0  0  -0.185548  0  4.043507  0  0  -0.102831  -0.178722  0  4.008703  0
C  C78  1  0.05760956  0.54463277  0.01489565  1  0  -0.121755  0  3.759323  0  0  -0.138219  0  3.996202  0  0  -0.14049  0  4.018863  0  0  -0.100477  -0.136602  0  3.980808  0
C  C79  1  0.38370031  0.01471906  0.54449391  1  0  -0.120544  0  3.758253  0  0  -0.137275  0  3.995081  0  0  -0.139481  0  4.017768  0  0  -0.099618  -0.135762  0  3.979956  0
C  C80  1  0.94239241  0.98510197  0.45538206  1  0  -0.122219  0  3.759478  0  0  -0.138705  0  3.996425  0  0  -0.140976  0  4.019081  0  0  -0.100676  -0.137088  0  3.981038  0
C  C81  1  0.61631156  0.45550356  0.98528439  1  0  -0.120864  0  3.758707  0  0  -0.137589  0  3.995512  0  0  -0.139797  0  4.018199  0  0  -0.099691  -0.136073  0  3.980387  0
C  C82  1  0.97116346  0.49437052  0.11824413  1  0  0.126686  0  3.777377  0  0  0.155759  0  4.006078  0  0  0.154922  0  4.032884  0  0  -0.019872  0.156247  0  3.98788  0
C  C83  1  0.41646364  0.11826739  0.49411917  1  0  0.127168  0  3.775934  0  0  0.156885  0  4.004232  0  0  0.156051  0  4.031028  0  0  -0.019604  0.157223  0  3.986199  0
C  C84  1  0.02883963  0.88175917  0.50564237  1  0  0.126921  0  3.777467  0  0  0.15592  0  4.006271  0  0  0.155082  0  4.033083  0  0  -0.019839  0.156408  0  3.988068  0
C  C85  1  0.58354238  0.50588173  0.88173722  1  0  0.127466  0  3.775912  0  0  0.157153  0  4.004218  0  0  0.156322  0  4.031015  0  0  -0.019583  0.157488  0  3.986186  0
C  C86  1  0.87653257  0.56315327  0.18413529  1  0  -0.133714  0  3.785457  0  0  -0.152113  0  4.030462  0  0  -0.155315  0  4.054456  0  0  -0.104457  -0.149788  0  4.014086  0
C  C87  1  0.37642450  0.18398492  0.56304494  1  0  -0.134106  0  3.785565  0  0  -0.153027  0  4.030437  0  0  -0.156241  0  4.05448  0  0  -0.104455  -0.150612  0  4.014065  0
C  C88  1  0.12347816  0.81586894  0.43685403  1  0  -0.13388  0  3.785215  0  0  -0.152237  0  4.030254  0  0  -0.155447  0  4.05426  0  0  -0.104399  -0.149913  0  4.013879  0
C  C89  1  0.62355833  0.43695682  0.81602698  1  0  -0.134166  0  3.785484  0  0  -0.153055  0  4.03032  0  0  -0.156272  0  4.05437  0  0  -0.104395  -0.150637  0  4.013944  0
C  C90  1  0.86645103  0.67776873  0.14850877  1  0  -0.150331  0  3.76514  0  0  -0.169956  0  4.01739  0  0  -0.174246  0  4.039584  0  0  -0.101711  -0.167096  0  4.002141  0
C  C91  1  0.30765896  0.14820519  0.67772845  1  0  -0.150034  0  3.763535  0  0  -0.169529  0  4.015765  0  0  -0.17388  0  4.037969  0  0  -0.10165  -0.166752  0  4.00066  0
C  C92  1  0.13356372  0.85149626  0.32223671  1  0  -0.150067  0  3.765014  0  0  -0.169714  0  4.017209  0  0  -0.174003  0  4.039403  0  0  -0.101609  -0.166855  0  4.001958  0
C  C93  1  0.69232036  0.32226852  0.85181542  1  0  -0.149999  0  3.76353  0  0  -0.169421  0  4.015781  0  0  -0.173782  0  4.037985  0  0  -0.101601  -0.166641  0  4.000665  0
C  C94  1  0.97763077  0.37177506  0.15486195  1  0  -0.33062  0  3.752181  0  0  -0.410156  0  3.988357  0  0  -0.412029  0  3.998678  0  0  -0.239635  -0.408598  0  3.981262  0
C  C95  1  0.49499094  0.15542299  0.37123541  1  0  -0.33251  0  3.751017  0  0  -0.412472  0  3.986976  0  0  -0.414427  0  3.997243  0  0  -0.239742  -0.410861  0  3.980028  0
C  C96  1  0.02236655  0.84512356  0.62824006  1  0  -0.330857  0  3.752397  0  0  -0.410449  0  3.9886  0  0  -0.412326  0  3.998918  0  0  -0.239665  -0.40889  0  3.981504  0
C  C97  1  0.50502269  0.62876358  0.84458062  1  0  -0.332594  0  3.751318  0  0  -0.412613  0  3.987284  0  0  -0.414573  0  3.997542  0  0  -0.239793  -0.410998  0  3.980337  0
C  C98  1  0.29832303  0.75964050  0.07124661  1  0  0.203532  0  3.843809  0  0  0.199759  0  4.098621  0  0  0.206389  0  4.121629  0  0  0.080918  0.195222  0  4.083353  0
C  C99  1  0.87095229  0.07118399  0.75970196  1  0  0.203426  0  3.840833  0  0  0.199166  0  4.096698  0  0  0.205857  0  4.119772  0  0  0.081115  0.194649  0  4.081214  0
C  C100  1  0.70168753  0.92876254  0.24036672  1  0  0.203587  0  3.844101  0  0  0.1997  0  4.099041  0  0  0.206326  0  4.122053  0  0  0.080994  0.195169  0  4.083765  0
C  C101  1  0.12903240  0.24029502  0.92882356  1  0  0.203413  0  3.840664  0  0  0.19918  0  4.096601  0  0  0.205878  0  4.119667  0  0  0.081133  0.194665  0  4.081116  0
C  C102  1  0.40978191  0.77569237  0.08378089  1  0  -0.160473  0  3.772071  0  0  -0.179532  0  4.025323  0  0  -0.183601  0  4.045846  0  0  -0.10106  -0.176869  0  4.011487  0
C  C103  1  0.73082126  0.08384985  0.77565410  1  0  -0.160508  0  3.769443  0  0  -0.179218  0  4.02278  0  0  -0.183337  0  4.043316  0  0  -0.100261  -0.176615  0  4.009113  0
C  C104  1  0.59023043  0.91621628  0.22431444  1  0  -0.160737  0  3.772084  0  0  -0.179766  0  4.025375  0  0  -0.183833  0  4.045898  0  0  -0.101103  -0.177105  0  4.011539  0
C  C105  1  0.26916637  0.22434555  0.91615104  1  0  -0.160705  0  3.769327  0  0  -0.179372  0  4.022663  0  0  -0.18349  0  4.043196  0  0  -0.100301  -0.176769  0  4.008993  0
C  C106  1  0.49250572  0.68778504  0.15127735  1  0  -0.126797  0  3.769637  0  0  -0.144221  0  4.012725  0  0  -0.146094  0  4.034679  0  0  -0.099737  -0.142835  0  3.997719  0
C  C107  1  0.66873917  0.15120700  0.68765311  1  0  -0.12715  0  3.769672  0  0  -0.144951  0  4.012357  0  0  -0.146933  0  4.03434  0  0  -0.100769  -0.143496  0  3.997282  0
C  C108  1  0.50750040  0.84872384  0.31221606  1  0  -0.126713  0  3.769567  0  0  -0.14413  0  4.012658  0  0  -0.146005  0  4.034605  0  0  -0.099757  -0.142745  0  3.997654  0
C  C109  1  0.33125474  0.31234724  0.84878128  1  0  -0.12728  0  3.769416  0  0  -0.145055  0  4.012173  0  0  -0.147037  0  4.03416  0  0  -0.100803  -0.143602  0  3.997095  0
C  C110  1  0.46563873  0.58188220  0.20872215  1  0  0.109189  0  3.798288  0  0  0.134915  0  4.03739  0  0  0.133978  0  4.063338  0  0  -0.025176  0.135544  0  4.019641  0
C  C111  1  0.74435039  0.20841674  0.58172203  1  0  0.109883  0  3.798199  0  0  0.136402  0  4.036165  0  0  0.135474  0  4.062169  0  0  -0.025548  0.137029  0  4.018422  0
C  C112  1  0.53436581  0.79126788  0.41812118  1  0  0.109089  0  3.798396  0  0  0.134793  0  4.037532  0  0  0.133858  0  4.063475  0  0  -0.025249  0.135422  0  4.019782  0
C  C113  1  0.25563755  0.41827710  0.79157109  1  0  0.109993  0  3.798171  0  0  0.136328  0  4.036424  0  0  0.135401  0  4.06242  0  0  -0.025561  0.136963  0  4.01867  0
C  C114  1  0.35723897  0.56540400  0.19263709  1  0  -0.126965  0  3.779607  0  0  -0.146499  0  4.028397  0  0  -0.148869  0  4.050092  0  0  -0.098994  -0.144643  0  4.013509  0
C  C115  1  0.88545223  0.19208633  0.56528751  1  0  -0.127538  0  3.780922  0  0  -0.147268  0  4.029389  0  0  -0.149706  0  4.05117  0  0  -0.09891  -0.145457  0  4.01453  0
C  C116  1  0.64277275  0.80735257  0.43459291  1  0  -0.126927  0  3.779502  0  0  -0.146416  0  4.028246  0  0  -0.148785  0  4.04994  0  0  -0.098955  -0.14456  0  4.013357  0
C  C117  1  0.11453441  0.43470817  0.80790368  1  0  -0.12767  0  3.780872  0  0  -0.147368  0  4.02943  0  0  -0.149794  0  4.051206  0  0  -0.098955  -0.145584  0  4.014565  0
C  C118  1  0.27547708  0.65213238  0.12427878  1  0  -0.141262  0  3.75316  0  0  -0.16027  0  4.004743  0  0  -0.164251  0  4.025651  0  0  -0.094825  -0.157512  0  3.990461  0
C  C119  1  0.94860724  0.12387277  0.65213818  1  0  -0.142253  0  3.753715  0  0  -0.160508  0  4.005703  0  0  -0.164464  0  4.026623  0  0  -0.095203  -0.157727  0  3.991303  0
C  C120  1  0.72453982  0.87571310  0.34787070  1  0  -0.141354  0  3.753222  0  0  -0.160341  0  4.00487  0  0  -0.16432  0  4.025779  0  0  -0.094917  -0.157584  0  3.990585  0
C  C121  1  0.05137868  0.34785677  0.87612799  1  0  -0.141947  0  3.753342  0  0  -0.160197  0  4.005309  0  0  -0.164146  0  4.026214  0  0  -0.095127  -0.15742  0  3.990921  0
C  C122  1  0.55161129  0.48770595  0.28391690  1  0  -0.333088  0  3.762557  0  0  -0.415007  0  4.001071  0  0  -0.416935  0  4.012201  0  0  -0.241123  -0.413367  0  3.993341  0
C  C123  1  0.67750706  0.28365151  0.48748275  1  0  -0.332757  0  3.764934  0  0  -0.415085  0  4.003366  0  0  -0.416994  0  4.014455  0  0  -0.241199  -0.413485  0  3.995659  0
C  C124  1  0.44840154  0.71607760  0.51229122  1  0  -0.333018  0  3.762454  0  0  -0.414954  0  4.001006  0  0  -0.416879  0  4.012133  0  0  -0.241089  -0.413313  0  3.993277  0
C  C125  1  0.32247810  0.51251171  0.71633178  1  0  -0.332677  0  3.765119  0  0  -0.414898  0  4.003626  0  0  -0.416802  0  4.014713  0  0  -0.241184  -0.4133  0  3.995911  0
C  C126  1  0.99998215  0.22821913  0.77177729  1  0  0.055473  0  3.267385  0  0  0.011532  0  3.613437  0  0  0.041283  0  3.609807  0  0  0.068791  -0.008661  0  3.614961  0
C  C127  1  0.00001850  0.77170076  0.22829941  1  0  0.056121  0  3.26782  0  0  0.012146  0  3.613608  0  0  0.041925  0  3.610006  0  0  0.069102  -0.008072  0  3.615171  0
C  C128  1  0.99999077  0.40401276  0.59598424  1  0  0.23958  0  3.838353  0  0  0.233008  0  4.082737  0  0  0.240483  0  4.100917  0  0  0.120473  0.227748  0  4.070814  0
C  C129  1  0.00000083  0.59592237  0.40407403  1  0  0.240689  0  3.838011  0  0  0.233426  0  4.083375  0  0  0.241106  0  4.101287  0  0  0.120638  0.228044  0  4.071534  0
C  C130  1  0.88845772  0.45223402  0.54780211  1  0  -0.131807  0  3.730562  0  0  -0.153392  0  3.981747  0  0  -0.155454  0  3.99935  0  0  -0.080462  -0.151968  0  3.969972  0
C  C131  1  0.11175427  0.54747768  0.45203773  1  0  -0.132959  0  3.731123  0  0  -0.154678  0  3.982527  0  0  -0.156787  0  4.000037  0  0  -0.080904  -0.153237  0  3.970809  0
C  C132  1  0.11153409  0.45218959  0.54777098  1  0  -0.131952  0  3.730336  0  0  -0.153545  0  3.981551  0  0  -0.155616  0  3.999152  0  0  -0.080469  -0.152122  0  3.969774  0
C  C133  1  0.88824767  0.54796651  0.45250565  1  0  -0.132986  0  3.731162  0  0  -0.154653  0  3.982598  0  0  -0.15677  0  4.000106  0  0  -0.080845  -0.153213  0  3.970883  0
N  N134  1  0.94425663  0.84388727  0.00766196  1  0  -0.374108  0  3.373665  0  0  -0.314859  0  3.669283  0  0  -0.338325  0  3.687969  0  0  -0.389062  -0.299831  0  3.656478  0
N  N135  1  0.20436892  0.00740819  0.84383904  1  0  -0.372853  0  3.373328  0  0  -0.312908  0  3.668197  0  0  -0.33614  0  3.686686  0  0  -0.388117  -0.29804  0  3.655674  0
N  N136  1  0.05574993  0.99234271  0.15612006  1  0  -0.373925  0  3.373669  0  0  -0.314659  0  3.669238  0  0  -0.338127  0  3.687924  0  0  -0.389045  -0.299617  0  3.656403  0
N  N137  1  0.79562469  0.15615144  0.99260202  1  0  -0.372852  0  3.373335  0  0  -0.312727  0  3.668042  0  0  -0.335964  0  3.68655  0  0  -0.38809  -0.297859  0  3.655521  0
N  N138  1  0.20825992  0.85026098  0.00963720  1  0  -0.378946  0  3.376286  0  0  -0.318286  0  3.671086  0  0  -0.341898  0  3.689829  0  0  -0.389646  -0.303142  0  3.658671  0
N  N139  1  0.93173580  0.00959311  0.85045251  1  0  -0.379557  0  3.375649  0  0  -0.319424  0  3.671592  0  0  -0.343379  0  3.690669  0  0  -0.389438  -0.304097  0  3.658582  0
N  N140  1  0.79174256  0.99036770  0.14974826  1  0  -0.378786  0  3.376491  0  0  -0.318043  0  3.671267  0  0  -0.341647  0  3.690007  0  0  -0.389644  -0.30291  0  3.658862  0
N  N141  1  0.06825117  0.14954920  0.99041710  1  0  -0.379317  0  3.375703  0  0  -0.319348  0  3.671796  0  0  -0.343324  0  3.690917  0  0  -0.389435  -0.304023  0  3.65879  0
N  N142  1  0.99998883  0.30990670  0.69008801  1  0  -0.173542  0  3.623485  0  0  -0.103626  0  3.880909  0  0  -0.120445  0  3.896633  0  0  -0.244313  -0.092279  0  3.87025  0
N  N143  1  0.00001162  0.69001632  0.30998279  1  0  -0.174101  0  3.624284  0  0  -0.103894  0  3.881807  0  0  -0.120775  0  3.897387  0  0  -0.244631  -0.092496  0  3.871201  0
