# generated using pymatgen
data_ZnH98C86(N2O)6
_symmetry_space_group_name_H-M   'P 1'
_cell_length_a   9.13501713
_cell_length_b   13.28342493
_cell_length_c   19.03322457
_cell_angle_alpha   98.35936971
_cell_angle_beta   93.76314699
_cell_angle_gamma   99.48622403
_symmetry_Int_Tables_number   1
_chemical_formula_structural   ZnH98C86(N2O)6
_chemical_formula_sum   'Zn1 H98 C86 N12 O6'
_cell_volume   2244.26985914
_cell_formula_units_Z   1
loop_
 _symmetry_equiv_pos_site_id
 _symmetry_equiv_pos_as_xyz
  1  'x, y, z'
loop_
 _atom_site_type_symbol
 _atom_site_label
 _atom_site_symmetry_multiplicity
 _atom_site_fract_x
 _atom_site_fract_y
 _atom_site_fract_z
 _atom_site_occupancy
 _atom_site_pbe_bader_charge
 _atom_site_pbe_bader_spin_density
 _atom_site_pbe_cm5_charge
 _atom_site_pbe_ddec_charge
 _atom_site_pbe_ddec_spin_density
 _atom_site_pbe_ddec_sum_bond_order
 _atom_site_pbe_magmom
Zn  Zn0  1  0.50000427  0.00000161  0.49999765  1  1.285926  0  0.719108  0.729185  0  2.353125  0
H  H1  1  0.78007500  0.90140430  0.46371502  1  0.111705  0  0.112614  0.078684  0  1.055483  0
H  H2  1  0.21992473  0.09859523  0.53628728  1  0.111698  0  0.112628  0.078683  0  1.055469  0
H  H3  1  0.01773526  0.88225814  0.52917035  1  0.054304  0  0.104935  0.105175  0  1.013937  0
H  H4  1  0.98226061  0.11773905  0.47083263  1  0.054324  0  0.104949  0.105144  0  1.013962  0
H  H5  1  0.06693502  0.95293756  0.66041767  1  0.126074  0  0.107634  0.111885  0  1.041055  0
H  H6  1  0.93306252  0.04706197  0.33958509  1  0.126042  0  0.107587  0.111813  0  1.041023  0
H  H7  1  0.64565599  0.05761436  0.64602699  1  0.101614  0  0.116559  0.09696  0  1.029472  0
H  H8  1  0.35434580  0.94238906  0.35397474  1  0.101805  0  0.116579  0.096975  0  1.029469  0
H  H9  1  0.64997470  0.96008261  0.75111614  1  0.068722  0  0.102534  0.110626  0  1.028726  0
H  H10  1  0.35002373  0.03991618  0.24888394  1  0.068734  0  0.102548  0.11066  0  1.02873  0
H  H11  1  0.09282694  0.12922349  0.74952481  1  0.102331  0  0.100587  0.105196  0  1.057535  0
H  H12  1  0.90717492  0.87077143  0.25047600  1  0.102294  0  0.100652  0.105281  0  1.057484  0
H  H13  1  0.60907506  0.05015496  0.93585869  1  0.010845  0  0.09279  0.058979  0  0.969643  0
H  H14  1  0.39092212  0.94984771  0.06414019  1  0.010887  0  0.092796  0.059005  0  0.969668  0
H  H15  1  0.78503874  0.93639048  0.97259329  1  0.053025  0  0.084601  0.116007  0  1.046156  0
H  H16  1  0.21495705  0.06361523  0.02740904  1  0.052993  0  0.08459  0.116015  0  1.046208  0
H  H17  1  0.70444562  0.83938135  0.89949817  1  0.02122  0  0.08175  0.111946  0  1.022342  0
H  H18  1  0.29555251  0.16062046  0.10050643  1  0.021111  0  0.081736  0.111934  0  1.022324  0
H  H19  1  0.59526238  0.87593155  0.96980486  1  0.006001  0  0.082513  0.11146  0  1.018271  0
H  H20  1  0.40473158  0.12407573  0.03019601  1  0.005908  0  0.082562  0.111528  0  1.018234  0
H  H21  1  0.39882691  0.91792543  0.88421014  1  0.013342  0  0.081467  0.112174  0  1.035116  0
H  H22  1  0.60117449  0.08207646  0.11579036  1  0.013194  0  0.081455  0.112167  0  1.035121  0
H  H23  1  0.49797562  0.87068299  0.81357177  1  0.00451  0  0.082622  0.113684  0  1.016288  0
H  H24  1  0.50202410  0.12931657  0.18642895  1  0.004513  0  0.082634  0.11371  0  1.016256  0
H  H25  1  0.44798985  0.99464214  0.81756914  1  0.066901  0  0.085767  0.125602  0  1.035478  0
H  H26  1  0.55200966  0.00535669  0.18242886  1  0.066884  0  0.085801  0.125624  0  1.035494  0
H  H27  1  0.13590586  0.20780343  0.94957123  1  0.030596  0  0.093975  0.061703  0  0.979301  0
H  H28  1  0.86408961  0.79219225  0.05042947  1  0.030645  0  0.093979  0.061742  0  0.979297  0
H  H29  1  0.28216220  0.08224999  0.89195470  1  0.047087  0  0.085643  0.118152  0  1.028723  0
H  H30  1  0.71784490  0.91775263  0.10804919  1  0.047074  0  0.085653  0.118181  0  1.028659  0
H  H31  1  0.38710794  0.20993712  0.90649235  1  0.02177  0  0.08075  0.106013  0  1.018327  0
H  H32  1  0.61288896  0.79006855  0.09351315  1  0.021848  0  0.080744  0.105964  0  1.018347  0
H  H33  1  0.30616976  0.15161436  0.81947841  1  0.062921  0  0.084933  0.119394  0  1.027523  0
H  H34  1  0.69383863  0.84838903  0.18052613  1  0.062828  0  0.084908  0.119327  0  1.02768  0
H  H35  1  0.05787355  0.34518559  0.88537065  1  0.006779  0  0.082606  0.10975  0  1.01503  0
H  H36  1  0.94212233  0.65481157  0.11463443  1  0.006844  0  0.082555  0.109702  0  1.014992  0
H  H37  1  0.17141912  0.31190399  0.81628530  1  0.044853  0  0.086816  0.121261  0  1.007862  0
H  H38  1  0.82857959  0.68810014  0.18371957  1  0.044691  0  0.086837  0.121243  0  1.007847  0
H  H39  1  0.25529000  0.36453296  0.90373970  1  -0.001455  0  0.083411  0.111679  0  1.008423  0
H  H40  1  0.74470608  0.63546496  0.09626652  1  -0.001434  0  0.083365  0.11162  0  1.008406  0
H  H41  1  0.75590058  0.24904215  0.90983037  1  0.016823  0  0.097525  0.141431  0  1.00767  0
H  H42  1  0.24409967  0.75095507  0.09017169  1  0.017077  0  0.097534  0.14146  0  1.007633  0
H  H43  1  0.81432812  0.34405701  0.98839130  1  0.081223  0  0.101436  0.148861  0  0.985245  0
H  H44  1  0.18567175  0.65593864  0.01161163  1  0.081184  0  0.101452  0.148864  0  0.985247  0
H  H45  1  0.64714676  0.25658072  0.98502715  1  0.05399  0  0.098882  0.141449  0  1.00712  0
H  H46  1  0.35285459  0.74341649  0.01497599  1  0.054  0  0.098866  0.14143  0  1.007075  0
H  H47  1  0.97348828  0.07120407  0.08273740  1  0.152377  0  0.110785  0.114997  0  1.038634  0
H  H48  1  0.02651434  0.92879397  0.91726219  1  0.152396  0  0.110796  0.115016  0  1.038625  0
H  H49  1  0.98460802  0.08976046  0.21623241  1  0.107397  0  0.10405  0.099259  0  1.04051  0
H  H50  1  0.01538764  0.91023600  0.78376786  1  0.107354  0  0.104054  0.099271  0  1.040437  0
H  H51  1  0.86909597  0.23088583  0.28300783  1  0.067761  0  0.10837  0.111878  0  1.010634  0
H  H52  1  0.13090149  0.76910910  0.71699127  1  0.067747  0  0.108386  0.111899  0  1.010558  0
H  H53  1  0.62102346  0.49740199  0.20785831  1  0.056388  0  0.097707  0.14249  0  1.005891  0
H  H54  1  0.37896592  0.50259142  0.79213777  1  0.056367  0  0.097694  0.142453  0  1.005897  0
H  H55  1  0.59154252  0.39360475  0.13347593  1  0.086494  0  0.102232  0.148575  0  0.991291  0
H  H56  1  0.40845250  0.60638474  0.86652461  1  0.08646  0  0.102248  0.148538  0  0.991278  0
H  H57  1  0.76304572  0.47802429  0.14905942  1  0.074407  0  0.100672  0.146389  0  1.008914  0
H  H58  1  0.23694366  0.52196911  0.85093718  1  0.076249  0  0.100668  0.146349  0  1.009005  0
H  H59  1  0.72150315  0.69144705  0.42364369  1  0.051484  0  0.099301  0.102099  0  1.043947  0
H  H60  1  0.27849916  0.30855406  0.57635728  1  0.051476  0  0.099304  0.102078  0  1.044026  0
H  H61  1  0.31964337  0.46525483  0.39733567  1  0.048651  0  0.097031  0.095573  0  1.043938  0
H  H62  1  0.68035528  0.53474944  0.60266028  1  0.048704  0  0.097031  0.095527  0  1.043935  0
H  H63  1  0.90443789  0.55195552  0.28836971  1  0.001464  0  0.095036  0.06237  0  0.960794  0
H  H64  1  0.09556058  0.44804795  0.71162773  1  0.001532  0  0.095064  0.062365  0  0.960875  0
H  H65  1  0.95930151  0.43296341  0.37189174  1  0.035044  0  0.080559  0.107832  0  1.052543  0
H  H66  1  0.04070736  0.56703776  0.62810679  1  0.035147  0  0.080531  0.107774  0  1.052613  0
H  H67  1  0.98782640  0.53739894  0.44473542  1  0.03908  0  0.080676  0.111494  0  1.021581  0
H  H68  1  0.01217684  0.46260610  0.55526180  1  0.039074  0  0.080647  0.111427  0  1.021649  0
H  H69  1  0.11105496  0.53736885  0.37623593  1  0.019904  0  0.083621  0.115063  0  1.025753  0
H  H70  1  0.88894628  0.46263697  0.62376026  1  0.019698  0  0.083644  0.115111  0  1.02576  0
H  H71  1  0.07057627  0.70859833  0.34650748  1  0.01993  0  0.085947  0.12057  0  0.999702  0
H  H72  1  0.92942240  0.29140589  0.65349161  1  0.020132  0  0.085956  0.120613  0  0.999696  0
H  H73  1  0.96357422  0.72063110  0.42042338  1  0.024867  0  0.080256  0.107702  0  1.020324  0
H  H74  1  0.03642312  0.27936769  0.57957718  1  0.0248  0  0.080269  0.107716  0  1.020354  0
H  H75  1  0.88813930  0.73801018  0.33548424  1  0.066753  0  0.087887  0.131179  0  1.032519  0
H  H76  1  0.11185402  0.26199015  0.66451533  1  0.06684  0  0.087917  0.131214  0  1.032497  0
H  H77  1  0.49430194  0.26261778  0.29409189  1  0.027925  0  0.095314  0.063186  0  0.981947  0
H  H78  1  0.50569797  0.73738258  0.70590735  1  0.027934  0  0.095325  0.063213  0  0.981874  0
H  H79  1  0.26356317  0.18303044  0.33869953  1  0.015565  0  0.080411  0.110407  0  1.053365  0
H  H80  1  0.73643746  0.81696835  0.66130114  1  0.01566  0  0.080393  0.110336  0  1.053387  0
H  H81  1  0.23388122  0.30374102  0.38227119  1  0.007022  0  0.07919  0.106317  0  1.016796  0
H  H82  1  0.76611758  0.69625936  0.61772644  1  0.007177  0  0.079179  0.106305  0  1.016813  0
H  H83  1  0.38993355  0.25146057  0.41142725  1  0.035572  0  0.078945  0.112107  0  1.048216  0
H  H84  1  0.61006694  0.74854209  0.58857331  1  0.035561  0  0.078938  0.112078  0  1.048204  0
H  H85  1  0.37678858  0.35543323  0.20501639  1  0.025393  0  0.08311  0.114165  0  1.024289  0
H  H86  1  0.62321087  0.64456097  0.79498058  1  0.025805  0  0.08312  0.114187  0  1.024316  0
H  H87  1  0.22882291  0.36804911  0.25987538  1  0.044012  0  0.082208  0.114231  0  1.006296  0
H  H88  1  0.77117453  0.63194588  0.74012005  1  0.043939  0  0.082283  0.114345  0  1.006149  0
H  H89  1  0.25342398  0.24334559  0.21966612  1  0.025887  0  0.082093  0.112021  0  1.035916  0
H  H90  1  0.74657897  0.75664936  0.78033314  1  0.025933  0  0.082118  0.112045  0  1.035949  0
H  H91  1  0.30088446  0.54856238  0.51092266  1  0.084936  0  0.107047  0.105041  0  1.015379  0
H  H92  1  0.69911972  0.45144181  0.48907974  1  0.084866  0  0.10702  0.104982  0  1.015316  0
H  H93  1  0.19128557  0.68297205  0.58551664  1  0.097463  0  0.105453  0.105388  0  1.034153  0
H  H94  1  0.80872745  0.31703681  0.41448548  1  0.097316  0  0.105461  0.105413  0  1.034087  0
H  H95  1  0.27900806  0.86948822  0.57803755  1  0.140068  0  0.111961  0.08118  0  1.046608  0
H  H96  1  0.72100326  0.13051837  0.42196060  1  0.140237  0  0.111961  0.081171  0  1.046602  0
H  H97  1  0.54970673  0.79531193  0.41934134  1  0.148291  0  0.111029  0.080508  0  1.072799  0
H  H98  1  0.45029898  0.20468537  0.58065616  1  0.148169  0  0.111033  0.080509  0  1.072784  0
C  C99  1  0.80613563  0.93209598  0.52033243  1  0.443516  0  0.037285  0.073202  0  3.947359  0
C  C100  1  0.19386372  0.06790201  0.47966969  1  0.442996  0  0.037289  0.073248  0  3.947394  0
C  C101  1  0.93814302  0.92178463  0.55736520  1  -0.037551  0  -0.085009  -0.120718  0  3.999818  0
C  C102  1  0.06185505  0.07821257  0.44263784  1  -0.037139  0  -0.085078  -0.120698  0  3.999786  0
C  C103  1  0.96558654  0.96129459  0.62977429  1  -0.028744  0  -0.065709  -0.079125  0  3.906237  0
C  C104  1  0.03441261  0.03870263  0.37022774  1  -0.02869  0  -0.065618  -0.079027  0  3.906112  0
C  C105  1  0.85846691  0.00956286  0.66424703  1  -0.006356  0  0.002032  0.043487  0  3.994203  0
C  C106  1  0.14153281  0.99043671  0.33575317  1  -0.006363  0  0.001999  0.043456  0  3.994205  0
C  C107  1  0.73148033  0.01935652  0.62246948  1  0.49352  0  0.045218  0.039948  0  3.890704  0
C  C108  1  0.26852107  0.98064537  0.37753102  1  0.493379  0  0.045248  0.039955  0  3.890634  0
C  C109  1  0.86979019  0.04288769  0.74206719  1  0.040634  0  -0.026597  0.035274  0  4.09622  0
C  C110  1  0.13021121  0.95711420  0.25793330  1  0.040609  0  -0.026587  0.035338  0  4.096311  0
C  C111  1  0.74971488  0.00861260  0.78025276  1  -0.102997  0  -0.096788  -0.19359  0  3.990885  0
C  C112  1  0.25028432  0.99138929  0.21974768  1  -0.103038  0  -0.096758  -0.193593  0  3.99091  0
C  C113  1  0.75652337  0.03227583  0.85436319  1  0.007199  0  -0.012172  0.009317  0  3.898338  0
C  C114  1  0.24347345  0.96772527  0.14563709  1  0.007231  0  -0.012248  0.009249  0  3.898312  0
C  C115  1  0.88696246  0.09720569  0.89054593  1  0.314077  0  0.092148  0.108317  0  4.045506  0
C  C116  1  0.11303435  0.90279542  0.10945383  1  0.314137  0  0.092183  0.108369  0  4.045521  0
C  C117  1  0.00867680  0.13286830  0.85311802  1  -0.005464  0  -0.009814  0.013256  0  3.89498  0
C  C118  1  0.99132293  0.86713125  0.14688323  1  -0.00552  0  -0.009873  0.013234  0  3.89504  0
C  C119  1  0.99891849  0.10382330  0.77915472  1  -0.056251  0  -0.093914  -0.178044  0  3.972532  0
C  C120  1  0.00108272  0.89617780  0.22084674  1  -0.056221  0  -0.093933  -0.178138  0  3.97247  0
C  C121  1  0.63216378  0.98695340  0.89603934  1  0.062373  0  -0.086535  0.091313  0  3.882375  0
C  C122  1  0.36783543  0.01304848  0.10396110  1  0.062376  0  -0.086565  0.091264  0  3.882434  0
C  C123  1  0.68289858  0.90518922  0.93718910  1  -0.081697  0  -0.246  -0.391693  0  3.90489  0
C  C124  1  0.31709792  0.09481496  0.06281308  1  -0.081495  0  -0.246004  -0.391719  0  3.904882  0
C  C125  1  0.48666622  0.94071864  0.85000073  1  -0.064352  0  -0.250356  -0.399511  0  3.931378  0
C  C126  1  0.51333369  0.05928171  0.14999851  1  -0.064186  0  -0.250381  -0.399549  0  3.931378  0
C  C127  1  0.14710411  0.20307765  0.89202771  1  0.040127  0  -0.087494  0.084185  0  3.882162  0
C  C128  1  0.85289562  0.79692189  0.10797406  1  0.039894  0  -0.087441  0.084117  0  3.882304  0
C  C129  1  0.28869780  0.15914471  0.87645009  1  -0.118546  0  -0.246622  -0.388902  0  3.916538  0
C  C130  1  0.71130361  0.84085714  0.12355303  1  -0.118495  0  -0.246614  -0.388787  0  3.916585  0
C  C131  1  0.15827882  0.31264875  0.87339417  1  -0.056548  0  -0.242415  -0.386679  0  3.9366  0
C  C132  1  0.84171782  0.68735153  0.12660970  1  -0.056312  0  -0.242369  -0.386544  0  3.936491  0
C  C133  1  0.84362064  0.19045347  0.00039799  1  0.712518  0  0.165323  0.274425  0  3.937611  0
C  C134  1  0.15637960  0.80954378  0.99960249  1  0.712542  0  0.165338  0.274356  0  3.93757  0
C  C135  1  0.76067546  0.26386478  0.96812092  1  -0.055894  0  -0.237243  -0.461019  0  3.964854  0
C  C136  1  0.23932388  0.73613321  0.03188120  1  -0.056201  0  -0.237247  -0.460983  0  3.964854  0
C  C137  1  0.85971904  0.20085802  0.07962393  1  0.483758  0  0.116465  0.145191  0  4.013937  0
C  C138  1  0.14027990  0.79913847  0.92037539  1  0.483955  0  0.116365  0.14514  0  4.014037  0
C  C139  1  0.92819726  0.13205320  0.11418699  1  -0.044064  0  -0.071089  -0.137228  0  3.913197  0
C  C140  1  0.07180447  0.86794559  0.88581371  1  -0.044014  0  -0.071032  -0.13712  0  3.913006  0
C  C141  1  0.93390423  0.14306072  0.18822498  1  -0.027454  0  -0.065095  -0.021822  0  3.954657  0
C  C142  1  0.06609510  0.85693732  0.81177399  1  -0.027404  0  -0.065152  -0.021959  0  3.954559  0
C  C143  1  0.87100807  0.22101862  0.22531498  1  -0.008111  0  -0.067373  -0.122349  0  3.905396  0
C  C144  1  0.12898869  0.77897784  0.77468532  1  -0.008115  0  -0.067365  -0.122273  0  3.905387  0
C  C145  1  0.80542888  0.28679613  0.18658108  1  0.529717  0  0.115817  0.145445  0  4.007518  0
C  C146  1  0.19457117  0.71320036  0.81341827  1  0.529651  0  0.115775  0.145271  0  4.007606  0
C  C147  1  0.73169937  0.36984067  0.22224811  1  0.746021  0  0.165857  0.278431  0  3.937699  0
C  C148  1  0.26829847  0.63015582  0.77775012  1  0.745426  0  0.16591  0.278594  0  3.937649  0
C  C149  1  0.67252543  0.43944827  0.17616145  1  -0.131063  0  -0.237329  -0.467132  0  3.965341  0
C  C150  1  0.32746744  0.56054590  0.82383585  1  -0.132098  0  -0.237361  -0.467075  0  3.96538  0
C  C151  1  0.65111151  0.44797534  0.32908720  1  0.305183  0  0.09008  0.108485  0  4.039879  0
C  C152  1  0.34888860  0.55202577  0.67091318  1  0.305167  0  0.090066  0.108491  0  4.039847  0
C  C153  1  0.73295552  0.54708354  0.35893465  1  0.007479  0  -0.011029  0.00378  0  3.896427  0
C  C154  1  0.26704587  0.45291838  0.64106427  1  0.007409  0  -0.011039  0.003736  0  3.896467  0
C  C155  1  0.66068656  0.61469796  0.40125630  1  -0.010096  0  -0.096961  -0.180667  0  3.975159  0
C  C156  1  0.33931225  0.38530240  0.59874238  1  -0.010141  0  -0.09691  -0.180511  0  3.975076  0
C  C157  1  0.51178018  0.58689227  0.41566320  1  -0.012931  0  -0.024961  0.047862  0  4.075095  0
C  C158  1  0.48821862  0.41310811  0.58433496  1  -0.012971  0  -0.024953  0.047842  0  4.075225  0
C  C159  1  0.43558773  0.48767712  0.38703001  1  -0.051275  0  -0.095123  -0.181048  0  3.988024  0
C  C160  1  0.56440849  0.51232171  0.61296738  1  -0.051511  0  -0.095171  -0.181055  0  3.988181  0
C  C161  1  0.50189469  0.41748209  0.34374302  1  0.006968  0  -0.01055  0.012791  0  3.905689  0
C  C162  1  0.49810412  0.58251827  0.65625566  1  0.006863  0  -0.010501  0.012821  0  3.905697  0
C  C163  1  0.89591036  0.57646221  0.34568589  1  0.07766  0  -0.085315  0.093644  0  3.878726  0
C  C164  1  0.10408824  0.42353741  0.65431112  1  0.077787  0  -0.08541  0.093441  0  3.879018  0
C  C165  1  0.99401783  0.51693506  0.38701570  1  -0.097024  0  -0.246469  -0.394192  0  3.91583  0
C  C166  1  0.00598502  0.48306845  0.61298082  1  -0.097028  0  -0.246394  -0.394018  0  3.915903  0
C  C167  1  0.95695339  0.69256875  0.36276735  1  -0.104486  0  -0.248093  -0.397872  0  3.929141  0
C  C168  1  0.04304282  0.30743007  0.63723057  1  -0.104702  0  -0.248094  -0.397878  0  3.92917  0
C  C169  1  0.41349248  0.31219602  0.31112800  1  0.021953  0  -0.088633  0.08363  0  3.881895  0
C  C170  1  0.58651052  0.68780358  0.68887072  1  0.021973  0  -0.088679  0.083567  0  3.882001  0
C  C171  1  0.32053011  0.26010419  0.36419646  1  -0.065889  0  -0.250383  -0.386826  0  3.921064  0
C  C172  1  0.67947070  0.73989540  0.63580272  1  -0.06618  0  -0.250335  -0.386678  0  3.921064  0
C  C173  1  0.31288527  0.32022223  0.24485216  1  -0.086394  0  -0.245351  -0.388195  0  3.915059  0
C  C174  1  0.68711366  0.67977428  0.75514558  1  -0.086746  0  -0.245448  -0.388361  0  3.915079  0
C  C175  1  0.43731958  0.66059830  0.45930073  1  -0.022009  0  0.001412  0.036044  0  3.983296  0
C  C176  1  0.56268219  0.33940517  0.54069785  1  -0.02133  0  0.00137  0.036004  0  3.983302  0
C  C177  1  0.33106507  0.62985842  0.50561157  1  -0.004491  0  -0.064325  -0.077133  0  3.92979  0
C  C178  1  0.66894002  0.37014500  0.49439026  1  -0.00472  0  -0.064272  -0.076976  0  3.929713  0
C  C179  1  0.26960983  0.70439386  0.54726663  1  -0.008252  0  -0.082698  -0.11691  0  3.989417  0
C  C180  1  0.73039931  0.29561269  0.45273408  1  -0.007673  0  -0.08271  -0.116993  0  3.989233  0
C  C181  1  0.31646187  0.80822131  0.54314687  1  0.388549  0  0.036272  0.074692  0  3.944052  0
C  C182  1  0.68354959  0.19178140  0.45685244  1  0.388136  0  0.036191  0.074635  0  3.943799  0
C  C183  1  0.47286609  0.76677842  0.45645986  1  0.452293  0  0.044803  0.03647  0  3.896878  0
C  C184  1  0.52713910  0.23322120  0.54353788  1  0.452306  0  0.044827  0.036415  0  3.896666  0
N  N185  1  0.70529932  0.98158341  0.55257310  1  -1.252248  0  -0.326899  -0.226948  0  3.574862  0
N  N186  1  0.29470188  0.01841770  0.44742783  1  -1.252246  0  -0.326917  -0.227002  0  3.57487  0
N  N187  1  0.90070751  0.11877688  0.96521123  1  -1.239577  0  -0.298518  -0.317828  0  3.379516  0
N  N188  1  0.09929441  0.88122268  0.03479008  1  -1.239491  0  -0.298541  -0.317876  0  3.379491  0
N  N189  1  0.80080066  0.27720288  0.11519675  1  -1.217057  0  -0.308837  -0.314473  0  3.318617  0
N  N190  1  0.19919481  0.72279280  0.88480395  1  -1.217323  0  -0.308747  -0.314379  0  3.318692  0
N  N191  1  0.72152195  0.37531985  0.28968605  1  -1.24735  0  -0.297168  -0.325929  0  3.388342  0
N  N192  1  0.27847888  0.62467969  0.71031628  1  -1.247409  0  -0.297212  -0.325982  0  3.38837  0
N  N193  1  0.41593352  0.83872099  0.49787598  1  -1.261032  0  -0.328298  -0.230925  0  3.576968  0
N  N194  1  0.58407315  0.16128020  0.50212091  1  -1.261127  0  -0.328221  -0.23078  0  3.576833  0
N  N195  1  0.33133732  0.05605821  0.65777599  1  0.805514  0  0.098028  0.718686  0  4.424413  0
N  N196  1  0.66866463  0.94394606  0.34222058  1  0.805511  0  0.098113  0.718879  0  4.424288  0
O  O197  1  0.41599610  0.03389237  0.60818321  1  -0.640528  0  -0.220998  -0.509219  0  2.158437  0
O  O198  1  0.58400825  0.96611266  0.39181509  1  -0.640381  0  -0.221033  -0.509329  0  2.158489  0
O  O199  1  0.30160398  0.99357429  0.70059162  1  -0.512035  0  -0.183678  -0.436173  0  1.940702  0
O  O200  1  0.69840107  0.00642920  0.29940601  1  -0.512252  0  -0.183722  -0.436242  0  1.940676  0
O  O201  1  0.28039576  0.13912153  0.66141680  1  -0.533614  0  -0.191712  -0.45043  0  1.945683  0
O  O202  1  0.71959864  0.86087887  0.33857860  1  -0.533462  0  -0.19172  -0.450471  0  1.945675  0
