# generated using pymatgen
data_Ag4H18C28N4O9
_symmetry_space_group_name_H-M   'P 1'
_cell_length_a   5.98494018
_cell_length_b   14.43998540
_cell_length_c   17.18270000
_cell_angle_alpha   109.35098712
_cell_angle_beta   100.14838681
_cell_angle_gamma   89.96014615
_symmetry_Int_Tables_number   1
_chemical_formula_structural   Ag4H18C28N4O9
_chemical_formula_sum   'Ag8 H36 C56 N8 O18'
_cell_volume   1376.49636267
_cell_formula_units_Z   2
loop_
 _symmetry_equiv_pos_site_id
 _symmetry_equiv_pos_as_xyz
  1  'x, y, z'
loop_
 _atom_site_type_symbol
 _atom_site_label
 _atom_site_symmetry_multiplicity
 _atom_site_fract_x
 _atom_site_fract_y
 _atom_site_fract_z
 _atom_site_occupancy
 _atom_site_hle17_bader_spin_density
 _atom_site_hle17_ddec_charge
 _atom_site_hle17_ddec_spin_density
 _atom_site_hle17_ddec_sum_bond_order
 _atom_site_hle17_magmom
 _atom_site_hse06_10hf_bader_spin_density
 _atom_site_hse06_10hf_ddec_charge
 _atom_site_hse06_10hf_ddec_spin_density
 _atom_site_hse06_10hf_ddec_sum_bond_order
 _atom_site_hse06_10hf_magmom
 _atom_site_hse06_bader_spin_density
 _atom_site_hse06_ddec_charge
 _atom_site_hse06_ddec_spin_density
 _atom_site_hse06_ddec_sum_bond_order
 _atom_site_hse06_magmom
 _atom_site_pbe_bader_charge
 _atom_site_pbe_bader_spin_density
 _atom_site_pbe_cm5_charge
 _atom_site_pbe_ddec_charge
 _atom_site_pbe_ddec_spin_density
 _atom_site_pbe_ddec_sum_bond_order
 _atom_site_pbe_magmom
Ag  Ag0  1  0.67243011  0.61398472  0.82593329  1  0  0.584474  0  1.440273  0  0  0.456664  0  1.897421  0  0  0.4866  0  1.840969  0  0.604301  0  0.459038  0.436203  0  1.936636  0
Ag  Ag1  1  0.14652414  0.11215031  0.82518847  1  0  0.58253  0  1.450719  0  0  0.455928  0  1.910389  0  0  0.485644  0  1.853551  0  0.604793  0  0.458953  0.435639  0  1.949847  0
Ag  Ag2  1  0.24397185  0.32654573  0.89201617  1  0  0.577865  0  1.421143  0  0  0.462743  0  1.896067  0  0  0.504353  0  1.821107  0  0.622071  0  0.391131  0.433705  0  1.94807  0
Ag  Ag3  1  0.65536952  0.82980610  0.89394589  1  0  0.581346  0  1.421307  0  0  0.467563  0  1.894947  0  0  0.508875  0  1.820095  0  0.624703  0  0.392261  0.438705  0  1.946896  0
Ag  Ag4  1  0.70303899  0.42910780  0.95711340  1  0  0.557948  0  1.488469  0  0  0.4377  0  1.944424  0  0  0.466857  0  1.887087  0  0.604115  0  0.456963  0.417841  0  1.984064  0
Ag  Ag5  1  0.25890420  0.92891544  0.95795019  1  0  0.559199  0  1.478939  0  0  0.437521  0  1.93421  0  0  0.467183  0  1.876807  0  0.603645  0  0.454977  0.417321  0  1.973902  0
Ag  Ag6  1  0.30910936  0.52999977  0.89567894  1  0  0.551446  0  1.362121  0  0  0.432114  0  1.813878  0  0  0.476311  0  1.743247  0  0.596045  0  0.387458  0.400864  0  1.863067  0
Ag  Ag7  1  0.58379688  0.03186372  0.89450576  1  0  0.551811  0  1.36605  0  0  0.432631  0  1.817267  0  0  0.476682  0  1.746787  0  0.596218  0  0.388466  0.401507  0  1.866339  0
H  H8  1  0.27467015  0.54090438  0.68098442  1  0  0.094923  0  0.963171  0  0  0.101388  0  1.030904  0  0  0.103986  0  1.028578  0  0.162864  0  0.118044  0.099426  0  1.032687  0
H  H9  1  0.40137094  0.04081288  0.68160703  1  0  0.095116  0  0.961893  0  0  0.101725  0  1.029441  0  0  0.104324  0  1.027119  0  0.169245  0  0.118005  0.09972  0  1.03131  0
H  H10  1  0.17165983  0.52795901  0.52890714  1  0  0.118082  0  0.978663  0  0  0.125061  0  1.044801  0  0  0.128416  0  1.043235  0  0.160417  0  0.109035  0.122665  0  1.046045  0
H  H11  1  0.35627246  0.02941113  0.53009519  1  0  0.118436  0  0.980565  0  0  0.125828  0  1.046069  0  0  0.129155  0  1.044619  0  0.155105  0  0.109239  0.123472  0  1.047192  0
H  H12  1  0.84168888  0.66058379  0.55480384  1  0  0.112211  0  0.963827  0  0  0.121648  0  1.025294  0  0  0.123362  0  1.027426  0  0.127863  0  0.110649  0.120419  0  1.023931  0
H  H13  1  0.71107880  0.16197340  0.55378081  1  0  0.112442  0  0.964735  0  0  0.12153  0  1.026214  0  0  0.123253  0  1.028326  0  0.112102  0  0.110714  0.120275  0  1.024897  0
H  H14  1  0.92116487  0.66257748  0.70306864  1  0  0.100302  0  0.946762  0  0  0.107697  0  1.010742  0  0  0.110289  0  1.008195  0  0.16763  0  0.122273  0.105641  0  1.012863  0
H  H15  1  0.77609933  0.16247642  0.70160294  1  0  0.09997  0  0.948518  0  0  0.108237  0  1.011421  0  0  0.110755  0  1.008928  0  0.163528  0  0.122796  0.106248  0  1.013466  0
H  H16  1  0.25466976  0.62044454  0.21122114  1  0  0.093743  0  0.955919  0  0  0.105683  0  1.018303  0  0  0.108047  0  1.01777  0  0.070578  0  0.100305  0.104023  0  1.018742  0
H  H17  1  0.95953067  0.12062146  0.21137086  1  0  0.093527  0  0.956894  0  0  0.105721  0  1.019058  0  0  0.108101  0  1.0185  0  0.081481  0  0.099961  0.104065  0  1.019472  0
H  H18  1  0.04170872  0.69163047  0.32537910  1  0  0.088465  0  0.96126  0  0  0.099145  0  1.02228  0  0  0.102053  0  1.020557  0  0.067233  0  0.096377  0.097128  0  1.023449  0
H  H19  1  0.28833811  0.19181769  0.32513471  1  0  0.088483  0  0.959799  0  0  0.098931  0  1.021082  0  0  0.10183  0  1.019359  0  0.065586  0  0.096253  0.096869  0  1.022328  0
H  H20  1  0.66959835  0.76485716  0.29670217  1  0  0.085483  0  0.9601  0  0  0.09742  0  1.01897  0  0  0.100144  0  1.017941  0  0.055725  0  0.09588  0.095514  0  1.019736  0
H  H21  1  0.63155543  0.26397951  0.29582213  1  0  0.086066  0  0.959419  0  0  0.097413  0  1.019145  0  0  0.100059  0  1.018199  0  0.063622  0  0.095937  0.095551  0  1.019856  0
H  H22  1  0.52381092  0.76986969  0.15229854  1  0  0.098105  0  0.97566  0  0  0.105338  0  1.042879  0  0  0.107629  0  1.043436  0  0.066621  0  0.098281  0.103682  0  1.042596  0
H  H23  1  0.63031744  0.26837136  0.15115793  1  0  0.097981  0  0.975584  0  0  0.105264  0  1.042678  0  0  0.107576  0  1.043218  0  0.089593  0  0.098116  0.103594  0  1.042407  0
H  H24  1  0.07386162  0.37290138  0.07522445  1  0  0.100569  0  0.964322  0  0  0.107934  0  1.028498  0  0  0.110663  0  1.025781  0  0.171324  0  0.120629  0.10584  0  1.030642  0
H  H25  1  0.00597783  0.87297964  0.07540505  1  0  0.100827  0  0.963114  0  0  0.107743  0  1.02798  0  0  0.110477  0  1.025232  0  0.196115  0  0.120465  0.105636  0  1.030152  0
H  H26  1  0.16212581  0.37551428  0.22339207  1  0  0.113471  0  0.963874  0  0  0.122471  0  1.025273  0  0  0.124247  0  1.027364  0  0.118155  0  0.110936  0.121199  0  1.023944  0
H  H27  1  0.06306712  0.87634780  0.22364126  1  0  0.113733  0  0.964263  0  0  0.123098  0  1.025127  0  0  0.124867  0  1.027228  0  0.111519  0  0.110917  0.121831  0  1.023781  0
H  H28  1  0.52963012  0.51480920  0.26029299  1  0  0.118046  0  0.984349  0  0  0.124916  0  1.050347  0  0  0.128259  0  1.048816  0  0.156842  0  0.108612  0.122557  0  1.051507  0
H  H29  1  0.73303706  0.01630030  0.26281295  1  0  0.116689  0  0.98505  0  0  0.124022  0  1.050686  0  0  0.127301  0  1.049262  0  0.1239  0  0.108305  0.12166  0  1.051853  0
H  H30  1  0.45784355  0.49825813  0.10717595  1  0  0.093983  0  0.969809  0  0  0.102417  0  1.034492  0  0  0.10456  0  1.032858  0  0.180516  0  0.118154  0.100774  0  1.035769  0
H  H31  1  0.65455453  0.99881882  0.10953215  1  0  0.094165  0  0.9676  0  0  0.10229  0  1.032716  0  0  0.104395  0  1.031122  0  0.154987  0  0.117999  0.100671  0  1.033965  0
H  H32  1  0.96692760  0.41110872  0.57839403  1  0  0.094922  0  0.954537  0  0  0.106879  0  1.01657  0  0  0.109139  0  1.01615  0  0.07156  0  0.101304  0.105275  0  1.016966  0
H  H33  1  0.60968542  0.91105902  0.57840696  1  0  0.094564  0  0.953648  0  0  0.106904  0  1.015298  0  0  0.109202  0  1.014836  0  0.069606  0  0.101332  0.105275  0  1.015725  0
H  H34  1  0.63854285  0.35209083  0.46147183  1  0  0.090491  0  0.961494  0  0  0.100925  0  1.022318  0  0  0.103833  0  1.020717  0  0.090789  0  0.096761  0.098895  0  1.023457  0
H  H35  1  0.81908780  0.85063209  0.46130630  1  0  0.090517  0  0.961445  0  0  0.100685  0  1.022639  0  0  0.103601  0  1.021004  0  0.077302  0  0.096489  0.098644  0  1.023789  0
H  H36  1  0.27772351  0.28689038  0.48470715  1  0  0.087384  0  0.956944  0  0  0.09912  0  1.015926  0  0  0.101823  0  1.014841  0  0.073596  0  0.097696  0.097241  0  1.016723  0
H  H37  1  0.20261431  0.78441972  0.48463136  1  0  0.087781  0  0.95553  0  0  0.099583  0  1.014342  0  0  0.102323  0  1.013231  0  0.06943  0  0.097562  0.097669  0  1.015153  0
H  H38  1  0.25380801  0.28145057  0.62726055  1  0  0.098235  0  0.965854  0  0  0.107239  0  1.029835  0  0  0.109442  0  1.030404  0  0.082324  0  0.099626  0.10565  0  1.029566  0
H  H39  1  0.37070464  0.77974179  0.62739673  1  0  0.098377  0  0.965253  0  0  0.107209  0  1.029755  0  0  0.10928  0  1.0306  0  0.084922  0  0.099261  0.105677  0  1.029346  0
H  H40  1  0.14389225  0.73944590  0.85493679  1  0  0.408605  0  0.904683  0  0  0.379995  0  0.967927  0  0  0.390316  0  0.952381  0  0.650074  0  0.280494  0.372699  0  0.978894  0
H  H41  1  0.71047433  0.23932425  0.85480608  1  0  0.407475  0  0.905501  0  0  0.378169  0  0.969923  0  0  0.388432  0  0.954457  0  0.648203  0  0.280097  0.370924  0  0.980821  0
H  H42  1  0.11887056  0.71861255  0.93988336  1  0  0.425188  0  0.881239  0  0  0.393694  0  0.947491  0  0  0.404023  0  0.932344  0  0.639705  0  0.283085  0.386402  0  0.958163  0
H  H43  1  0.82032224  0.21839383  0.93977537  1  0  0.424356  0  0.882341  0  0  0.392881  0  0.948594  0  0  0.403212  0  0.933431  0  0.641315  0  0.282851  0.38559  0  0.959273  0
C  C44  1  0.39482998  0.56549272  0.64988405  1  0  0.141242  0  3.65805  0  0  0.108854  0  3.9095  0  0  0.115661  0  3.928288  0  0.487795  0  0.057105  0.104221  0  3.897031  0
C  C45  1  0.25071982  0.06564979  0.65013011  1  0  0.138959  0  3.656182  0  0  0.107343  0  3.907281  0  0  0.114085  0  3.92614  0  0.461845  0  0.055912  0.102774  0  3.894738  0
C  C46  1  0.33752419  0.55932927  0.56629641  1  0  -0.134083  0  3.672338  0  0  -0.154335  0  3.914654  0  0  -0.161289  0  3.935622  0  -0.00851  0  -0.068046  -0.149796  0  3.900728  0
C  C47  1  0.22662854  0.06036883  0.56684034  1  0  -0.134189  0  3.672378  0  0  -0.154952  0  3.915255  0  0  -0.161896  0  3.936169  0  -0.022963  0  -0.068499  -0.150439  0  3.901336  0
C  C48  1  0.49904397  0.59421478  0.53094379  1  0  0.06943  0  3.863331  0  0  0.088116  0  4.089449  0  0  0.090162  0  4.10933  0  0.044581  0  0.022023  0.086794  0  4.076054  0
C  C49  1  0.03059384  0.09570072  0.53104554  1  0  0.070569  0  3.864273  0  0  0.088067  0  4.092242  0  0  0.09013  0  4.112102  0  0.083653  0  0.022703  0.086735  0  4.078876  0
C  C50  1  0.71314082  0.63205147  0.57995772  1  0  -0.128923  0  3.667046  0  0  -0.151116  0  3.912608  0  0  -0.157834  0  3.93405  0  -0.025778  0  -0.067319  -0.146768  0  3.898378  0
C  C51  1  0.86415619  0.13311162  0.57930119  1  0  -0.128704  0  3.670986  0  0  -0.150546  0  3.917322  0  0  -0.157219  0  3.938662  0  0.026015  0  -0.0666  -0.146226  0  3.903188  0
C  C52  1  0.75707894  0.63404001  0.66271474  1  0  0.147288  0  3.642577  0  0  0.113379  0  3.896542  0  0  0.121252  0  3.91324  0  0.516448  0  0.058147  0.107984  0  3.885581  0
C  C53  1  0.90089364  0.13424782  0.66180554  1  0  0.147817  0  3.645401  0  0  0.113595  0  3.899101  0  0  0.121559  0  3.915769  0  0.477124  0  0.057559  0.108144  0  3.88812  0
C  C54  1  0.44280321  0.59339774  0.44652533  1  0  0.278919  0  3.71881  0  0  0.265501  0  3.9846  0  0  0.276308  0  4.001467  0  0.819426  0  0.201669  0.258166  0  3.973219  0
C  C55  1  0.00491152  0.09601695  0.44702150  1  0  0.281586  0  3.715833  0  0  0.268529  0  3.981853  0  0  0.279359  0  3.998675  0  0.839223  0  0.203081  0.261174  0  3.970501  0
C  C56  1  0.14095639  0.61058935  0.04713230  1  0  0.658333  0  3.90542  0  0  0.600302  0  4.202339  0  0  0.635965  0  4.195507  0  1.611394  0  0.197111  0.576066  0  4.205876  0
C  C57  1  0.90657636  0.10936018  0.04687724  1  0  0.659591  0  3.904865  0  0  0.601382  0  4.202241  0  0  0.637053  0  4.195371  0  1.577477  0  0.197723  0.577125  0  4.20581  0
C  C58  1  0.01234688  0.65515281  0.11732917  1  0  -0.060109  0  3.7175  0  0  -0.04451  0  3.951256  0  0  -0.047772  0  3.970142  0  -0.112443  0  -0.010617  -0.042664  0  3.938872  0
C  C59  1  0.10601970  0.15462669  0.11699857  1  0  -0.061319  0  3.718257  0  0  -0.045198  0  3.951748  0  0  -0.048382  0  3.970669  0  -0.049133  0  -0.010894  -0.043359  0  3.939298  0
C  C60  1  0.09499547  0.65363787  0.19834946  1  0  -0.089685  0  3.747461  0  0  -0.113039  0  3.998853  0  0  -0.115114  0  4.020396  0  0.067126  0  -0.092776  -0.11155  0  3.984249  0
C  C61  1  0.10593464  0.15355005  0.19819122  1  0  -0.089657  0  3.749018  0  0  -0.113397  0  4.000329  0  0  -0.115473  0  4.021821  0  -0.070946  0  -0.092478  -0.111914  0  3.985734  0
C  C62  1  0.97451527  0.69434486  0.26299512  1  0  -0.071737  0  3.791322  0  0  -0.086388  0  4.043722  0  0  -0.087125  0  4.064197  0  -0.08954  0  -0.096235  -0.085698  0  4.02954  0
C  C63  1  0.29212378  0.19423130  0.26264747  1  0  -0.070408  0  3.788991  0  0  -0.084916  0  4.041397  0  0  -0.085611  0  4.061836  0  -0.034253  0  -0.095649  -0.084215  0  4.027246  0
C  C64  1  0.76765944  0.73589168  0.24692922  1  0  -0.091216  0  3.79572  0  0  -0.10528  0  4.048557  0  0  -0.107643  0  4.069055  0  -0.078207  0  -0.101181  -0.103631  0  4.034474  0
C  C65  1  0.48273588  0.23522803  0.24624587  1  0  -0.090646  0  3.7943  0  0  -0.104278  0  4.046911  0  0  -0.106574  0  4.06742  0  -0.060018  0  -0.10091  -0.102659  0  4.032799  0
C  C66  1  0.68558982  0.73906202  0.16667024  1  0  -0.083626  0  3.746556  0  0  -0.106858  0  3.997713  0  0  -0.107142  0  4.018225  0  0.004226  0  -0.093309  -0.106589  0  3.983918  0
C  C67  1  0.48307057  0.23804244  0.16585217  1  0  -0.084842  0  3.746949  0  0  -0.10792  0  3.998152  0  0  -0.108158  0  4.018669  0  -0.025155  0  -0.093758  -0.107669  0  3.984347  0
C  C68  1  0.80751994  0.69979202  0.10198730  1  0  -0.071157  0  3.718292  0  0  -0.052909  0  3.949635  0  0  -0.058723  0  3.968872  0  -0.008782  0  -0.011853  -0.049253  0  3.937  0
C  C69  1  0.29525020  0.19892099  0.10138271  1  0  -0.070467  0  3.719132  0  0  -0.052925  0  3.951112  0  0  -0.058928  0  3.970611  0  -0.014241  0  -0.011272  -0.049172  0  3.938329  0
C  C70  1  0.72313430  0.70591134  0.01644090  1  0  0.674592  0  3.861786  0  0  0.615536  0  4.14636  0  0  0.652894  0  4.140271  0  1.570098  0  0.214324  0.589989  0  4.149691  0
C  C71  1  0.29316538  0.20457847  0.01570823  1  0  0.672843  0  3.864037  0  0  0.613773  0  4.148654  0  0  0.651218  0  4.14259  0  1.573446  0  0.212684  0.588168  0  4.151973  0
C  C72  1  0.95627038  0.40244121  0.11770972  1  0  0.146297  0  3.640529  0  0  0.111478  0  3.893815  0  0  0.119409  0  3.910008  0  0.520535  0  0.056432  0.105976  0  3.883293  0
C  C73  1  0.16548023  0.90284893  0.11838944  1  0  0.14656  0  3.640765  0  0  0.111853  0  3.894627  0  0  0.119856  0  3.910658  0  0.490556  0  0.056073  0.106305  0  3.884208  0
C  C74  1  0.00672718  0.40529165  0.20069330  1  0  -0.128998  0  3.664309  0  0  -0.149723  0  3.909132  0  0  -0.156347  0  3.930143  0  0.001232  0  -0.066198  -0.145449  0  3.895232  0
C  C75  1  0.19647082  0.90613988  0.20145130  1  0  -0.13044  0  3.662401  0  0  -0.150822  0  3.907047  0  0  -0.157478  0  3.928074  0  -0.024635  0  -0.06614  -0.146516  0  3.893121  0
C  C76  1  0.85165091  0.44609791  0.25318269  1  0  0.07002  0  3.8682  0  0  0.088388  0  4.094022  0  0  0.090252  0  4.114075  0  0.013976  0  0.022931  0.087195  0  4.080498  0
C  C77  1  0.40339220  0.94737636  0.25464096  1  0  0.070619  0  3.863848  0  0  0.087713  0  4.091835  0  0  0.089549  0  4.1119  0  0.077161  0  0.022138  0.086534  0  4.078283  0
C  C78  1  0.65176975  0.48194901  0.22059857  1  0  -0.138154  0  3.677691  0  0  -0.158286  0  3.920837  0  0  -0.165276  0  3.941809  0  -0.029547  0  -0.068961  -0.153706  0  3.906857  0
C  C79  1  0.57163164  0.98310979  0.22261514  1  0  -0.136996  0  3.677064  0  0  -0.156958  0  3.920251  0  0  -0.163945  0  3.941244  0  0.020584  0  -0.068971  -0.152365  0  3.906233  0
C  C80  1  0.61321668  0.47427062  0.13648288  1  0  0.141031  0  3.658536  0  0  0.108009  0  3.909268  0  0  0.114726  0  3.928381  0  0.495798  0  0.056216  0.103432  0  3.896586  0
C  C81  1  0.52754132  0.97501590  0.13839485  1  0  0.139943  0  3.656036  0  0  0.107205  0  3.907219  0  0  0.113952  0  3.926329  0  0.474441  0  0.0558  0.102618  0  3.894515  0
C  C82  1  0.89188760  0.44825633  0.33812211  1  0  0.281819  0  3.7185  0  0  0.268389  0  3.984582  0  0  0.279366  0  4.001324  0  0.847153  0  0.202802  0.260928  0  3.973275  0
C  C83  1  0.44676386  0.94995911  0.33969539  1  0  0.280442  0  3.719804  0  0  0.267481  0  3.985991  0  0  0.278483  0  4.0027  0  0.809719  0  0.202381  0.260005  0  3.974682  0
C  C84  1  0.99646787  0.40952612  0.74112974  1  0  0.64871  0  3.915809  0  0  0.591349  0  4.212165  0  0  0.627785  0  4.206321  0  1.588739  0  0.1999  0.56653  0  4.215104  0
C  C85  1  0.74432400  0.91020447  0.74123133  1  0  0.647817  0  3.917649  0  0  0.591112  0  4.212859  0  0  0.62752  0  4.206944  0  1.598837  0  0.199587  0.566313  0  4.215833  0
C  C86  1  0.79744098  0.37986863  0.66866939  1  0  -0.061028  0  3.725218  0  0  -0.045649  0  3.959253  0  0  -0.049444  0  3.978185  0  -0.002369  0  -0.010083  -0.043328  0  3.946712  0
C  C87  1  0.87019562  0.87977407  0.66882386  1  0  -0.062441  0  3.728705  0  0  -0.047547  0  3.962992  0  0  -0.051186  0  3.981743  0  -0.069423  0  -0.011153  -0.04532  0  3.950594  0
C  C88  1  0.81050573  0.38291542  0.58909780  1  0  -0.088833  0  3.745988  0  0  -0.112019  0  3.998526  0  0  -0.11346  0  4.019552  0  -0.013868  0  -0.092295  -0.110965  0  3.984226  0
C  C89  1  0.77658928  0.88244065  0.58911333  1  0  -0.086808  0  3.745683  0  0  -0.110137  0  3.997677  0  0  -0.111658  0  4.018697  0  1.7e-05  0  -0.091201  -0.109039  0  3.983376  0
C  C90  1  0.62488773  0.34886901  0.52294498  1  0  -0.074002  0  3.785275  0  0  -0.088802  0  4.038266  0  0  -0.089831  0  4.058706  0  -0.088079  0  -0.096001  -0.087909  0  4.024097  0
C  C91  1  0.89479152  0.84755221  0.52284644  1  0  -0.074444  0  3.785856  0  0  -0.089173  0  4.038723  0  0  -0.090191  0  4.059176  0  -0.044618  0  -0.095967  -0.088287  0  4.024561  0
C  C92  1  0.42380185  0.31214499  0.53606181  1  0  -0.088133  0  3.793882  0  0  -0.102604  0  4.047739  0  0  -0.104524  0  4.068044  0  -0.078666  0  -0.099367  -0.101238  0  4.033786  0
C  C93  1  0.10869148  0.81034796  0.53601416  1  0  -0.089211  0  3.79141  0  0  -0.103496  0  4.044946  0  0  -0.105435  0  4.065213  0  -0.056238  0  -0.099628  -0.102113  0  4.031002  0
C  C94  1  0.40933116  0.30903569  0.61545579  1  0  -0.08609  0  3.744473  0  0  -0.108685  0  3.995755  0  0  -0.109427  0  4.016545  0  -0.015031  0  -0.092614  -0.108117  0  3.981788  0
C  C95  1  0.20358220  0.80772477  0.61557176  1  0  -0.086853  0  3.742794  0  0  -0.109471  0  3.994195  0  0  -0.110174  0  4.015004  0  -0.012873  0  -0.092917  -0.108899  0  3.980214  0
C  C96  1  0.59468583  0.34292692  0.68169998  1  0  -0.066652  0  3.722548  0  0  -0.048213  0  3.951663  0  0  -0.053852  0  3.97147  0  -0.079876  0  -0.011047  -0.044699  0  3.938613  0
C  C97  1  0.08576094  0.84241759  0.68194374  1  0  -0.064589  0  3.71867  0  0  -0.046267  0  3.94736  0  0  -0.051892  0  3.96703  0  -0.079645  0  -0.010736  -0.042795  0  3.934457  0
C  C98  1  0.57934146  0.34074276  0.76723998  1  0  0.669559  0  3.875729  0  0  0.611986  0  4.159327  0  0  0.648714  0  4.152695  0  1.573446  0  0.20876  0.586932  0  4.16302  0
C  C99  1  0.18759197  0.84014592  0.76752546  1  0  0.668751  0  3.874993  0  0  0.61231  0  4.157949  0  0  0.648911  0  4.15128  0  1.56929  0  0.209564  0.587342  0  4.161641  0
N  N100  1  0.60060944  0.60185198  0.69698443  1  0  -0.265122  0  3.320076  0  0  -0.177043  0  3.596548  0  0  -0.19652  0  3.613255  0  -1.177584  0  -0.332884  -0.164023  0  3.58533  0
N  N101  1  0.09083173  0.10166782  0.69653956  1  0  -0.265074  0  3.317668  0  0  -0.178386  0  3.595285  0  0  -0.197842  0  3.612023  0  -1.181131  0  -0.332978  -0.165381  0  3.584017  0
N  N102  1  0.39355908  0.59451776  0.37801743  1  0  -0.391347  0  2.589736  0  0  -0.366076  0  2.807937  0  0  -0.377227  0  2.820332  0  -1.145551  0  -0.289049  -0.358614  0  2.799609  0
N  N103  1  0.98821679  0.09814448  0.37890238  1  0  -0.393581  0  2.589785  0  0  -0.368211  0  2.807792  0  0  -0.379341  0  2.820103  0  -1.15321  0  -0.290095  -0.360769  0  2.799551  0
N  N104  1  0.76317880  0.43602284  0.08623375  1  0  -0.260745  0  3.304708  0  0  -0.17304  0  3.576481  0  0  -0.192384  0  3.593165  0  -1.184452  0  -0.329614  -0.160162  0  3.565376  0
N  N105  1  0.32792504  0.93645777  0.08746901  1  0  -0.259559  0  3.298267  0  0  -0.171998  0  3.569872  0  0  -0.191401  0  3.586537  0  -1.161923  0  -0.327734  -0.159076  0  3.558783  0
N  N106  1  0.92058737  0.44816073  0.40710064  1  0  -0.396103  0  2.588086  0  0  -0.370457  0  2.80614  0  0  -0.381792  0  2.818523  0  -1.162128  0  -0.291232  -0.362855  0  2.797843  0
N  N107  1  0.48614351  0.95013340  0.40876377  1  0  -0.395749  0  2.59149  0  0  -0.370233  0  2.809707  0  0  -0.381566  0  2.822114  0  -1.144342  0  -0.290903  -0.362635  0  2.801371  0
O  O108  1  0.04937346  0.34338655  0.77356204  1  0  -0.60765  0  2.104274  0  0  -0.529659  0  2.371368  0  0  -0.565628  0  2.364028  0  -1.131683  0  -0.317082  -0.504457  0  2.375539  0
O  O109  1  0.72193750  0.84443776  0.77380395  1  0  -0.606754  0  2.104936  0  0  -0.529112  0  2.371689  0  0  -0.564899  0  2.364117  0  -1.137393  0  -0.316852  -0.503995  0  2.375927  0
O  O110  1  0.04296695  0.74458419  0.89601684  1  0  -0.854832  0  1.943683  0  0  -0.790464  0  2.161865  0  0  -0.814538  0  2.124901  0  -1.268285  0  -0.598994  -0.773216  0  2.187491  0
O  O111  1  0.85259280  0.24417279  0.89591301  1  0  -0.851902  0  1.942997  0  0  -0.787537  0  2.161463  0  0  -0.811449  0  2.124664  0  -1.27014  0  -0.598482  -0.770421  0  2.186984  0
O  O112  1  0.09043156  0.49571068  0.76401464  1  0  -0.614661  0  2.030672  0  0  -0.542963  0  2.29912  0  0  -0.575277  0  2.286372  0  -1.14273  0  -0.319824  -0.52017  0  2.307011  0
O  O113  1  0.67518320  0.99679792  0.76391732  1  0  -0.615294  0  2.035649  0  0  -0.543126  0  2.304558  0  0  -0.575529  0  2.291707  0  -1.141742  0  -0.31952  -0.520256  0  2.312503  0
O  O114  1  0.51802411  0.26121732  0.77472306  1  0  -0.621446  0  2.024151  0  0  -0.557866  0  2.263942  0  0  -0.585766  0  2.253081  0  -1.15964  0  -0.30412  -0.53824  0  2.270672  0
O  O115  1  0.25523057  0.76045354  0.77495789  1  0  -0.620858  0  2.021765  0  0  -0.559207  0  2.260601  0  0  -0.586875  0  2.249963  0  -1.163372  0  -0.303466  -0.539731  0  2.267186  0
O  O116  1  0.63220301  0.42357019  0.82748039  1  0  -0.647277  0  2.220058  0  0  -0.550237  0  2.496364  0  0  -0.586565  0  2.48415  0  -1.114733  0  -0.33078  -0.524965  0  2.503715  0
O  O117  1  0.19609324  0.92296158  0.82789007  1  0  -0.6499  0  2.219634  0  0  -0.552498  0  2.494724  0  0  -0.589073  0  2.482831  0  -1.112252  0  -0.332012  -0.527149  0  2.502136  0
O  O118  1  0.22247646  0.66785255  0.01508296  1  0  -0.629155  0  2.0265  0  0  -0.551738  0  2.262058  0  0  -0.584734  0  2.255114  0  -1.173343  0  -0.317458  -0.528354  0  2.26592  0
O  O119  1  0.79197008  0.16609168  0.01421064  1  0  -0.629923  0  2.030009  0  0  -0.551769  0  2.266543  0  0  -0.585106  0  2.259739  0  -1.165805  0  -0.318817  -0.528153  0  2.270294  0
O  O120  1  0.16251736  0.51838622  0.02426034  1  0  -0.643306  0  2.011646  0  0  -0.578983  0  2.281059  0  0  -0.610414  0  2.26846  0  -1.162721  0  -0.316399  -0.556617  0  2.288755  0
O  O121  1  0.86302466  0.01727692  0.02482005  1  0  -0.644526  0  2.010792  0  0  -0.580829  0  2.279417  0  0  -0.611989  0  2.266855  0  -1.136515  0  -0.31546  -0.558639  0  2.287092  0
O  O122  1  0.67757254  0.78937489  0.01144259  1  0  -0.588144  0  2.078707  0  0  -0.511519  0  2.340542  0  0  -0.54434  0  2.330276  0  -1.121864  0  -0.303509  -0.488592  0  2.346825  0
O  O123  1  0.33550788  0.28767653  0.01036885  1  0  -0.586818  0  2.077904  0  0  -0.510285  0  2.340307  0  0  -0.543106  0  2.329905  0  -1.120132  0  -0.303475  -0.487399  0  2.346714  0
O  O124  1  0.71266663  0.62456723  0.95523633  1  0  -0.639255  0  2.230511  0  0  -0.54092  0  2.511027  0  0  -0.576711  0  2.498067  0  -1.125924  0  -0.330757  -0.51612  0  2.519256  0
O  O125  1  0.24037470  0.12313067  0.95470636  1  0  -0.638651  0  2.233451  0  0  -0.540141  0  2.513303  0  0  -0.575972  0  2.500463  0  -1.135202  0  -0.330137  -0.515302  0  2.521433  0
