# generated using pymatgen
data_Ag2H5C5SNCl2
_symmetry_space_group_name_H-M   'P 1'
_cell_length_a   4.21301461
_cell_length_b   10.41405542
_cell_length_c   18.94302862
_cell_angle_alpha   90.00004156
_cell_angle_beta   92.29404661
_cell_angle_gamma   90.00003715
_symmetry_Int_Tables_number   1
_chemical_formula_structural   Ag2H5C5SNCl2
_chemical_formula_sum   'Ag8 H20 C20 S4 N4 Cl8'
_cell_volume   830.45110012
_cell_formula_units_Z   4
loop_
 _symmetry_equiv_pos_site_id
 _symmetry_equiv_pos_as_xyz
  1  'x, y, z'
loop_
 _atom_site_type_symbol
 _atom_site_label
 _atom_site_symmetry_multiplicity
 _atom_site_fract_x
 _atom_site_fract_y
 _atom_site_fract_z
 _atom_site_occupancy
 _atom_site_hle17_bader_spin_density
 _atom_site_hle17_ddec_charge
 _atom_site_hle17_ddec_spin_density
 _atom_site_hle17_ddec_sum_bond_order
 _atom_site_hle17_magmom
 _atom_site_hse06_10hf_bader_spin_density
 _atom_site_hse06_10hf_ddec_charge
 _atom_site_hse06_10hf_ddec_spin_density
 _atom_site_hse06_10hf_ddec_sum_bond_order
 _atom_site_hse06_10hf_magmom
 _atom_site_hse06_bader_spin_density
 _atom_site_hse06_ddec_charge
 _atom_site_hse06_ddec_spin_density
 _atom_site_hse06_ddec_sum_bond_order
 _atom_site_hse06_magmom
 _atom_site_pbe_bader_spin_density
 _atom_site_pbe_cm5_charge
 _atom_site_pbe_ddec_charge
 _atom_site_pbe_ddec_spin_density
 _atom_site_pbe_ddec_sum_bond_order
 _atom_site_pbe_magmom
Ag  Ag0  1  0.22391883  0.14950983  0.47824754  1  0  0.421509  0  1.734878  0  0  0.337147  0  2.204444  0  0  0.359913  0  2.156777  0  0  0.262436  0.323218  0  2.23424  0
Ag  Ag1  1  0.77608505  0.64950885  0.02175195  1  0  0.4215  0  1.734871  0  0  0.33714  0  2.204435  0  0  0.359905  0  2.156769  0  0  0.262427  0.323211  0  2.234229  0
Ag  Ag2  1  0.77608317  0.85049045  0.52175165  1  0  0.421508  0  1.734873  0  0  0.337149  0  2.204441  0  0  0.359914  0  2.156774  0  0  0.262431  0.323221  0  2.234237  0
Ag  Ag3  1  0.22391695  0.35048950  0.97824777  1  0  0.421505  0  1.734886  0  0  0.337144  0  2.204445  0  0  0.359909  0  2.15678  0  0  0.262426  0.323213  0  2.234244  0
Ag  Ag4  1  0.75951667  0.36701113  0.45800829  1  0  0.415907  0  1.828014  0  0  0.330627  0  2.301373  0  0  0.350454  0  2.257083  0  0  0.290203  0.318025  0  2.330128  0
Ag  Ag5  1  0.24048525  0.86700812  0.04199339  1  0  0.4159  0  1.828017  0  0  0.330632  0  2.301363  0  0  0.350453  0  2.257076  0  0  0.290191  0.31803  0  2.330113  0
Ag  Ag6  1  0.24048535  0.63299491  0.54199249  1  0  0.4159  0  1.828007  0  0  0.330626  0  2.301367  0  0  0.35045  0  2.257078  0  0  0.290193  0.318024  0  2.330118  0
Ag  Ag7  1  0.75951677  0.13299024  0.95800686  1  0  0.415881  0  1.828048  0  0  0.330607  0  2.301395  0  0  0.350428  0  2.257108  0  0  0.290193  0.318004  0  2.330149  0
H  H8  1  0.66721218  0.24521538  0.80608497  1  0  0.282198  0  0.935271  0  0  0.256938  0  1.011491  0  0  0.265755  0  1.004881  0  0  0.281547  0.250687  0  1.016223  0
H  H9  1  0.33279252  0.74521740  0.69391498  1  0  0.28217  0  0.935241  0  0  0.256938  0  1.011433  0  0  0.265759  0  1.004816  0  0  0.281548  0.250687  0  1.016166  0
H  H10  1  0.33278743  0.75478010  0.19391368  1  0  0.282139  0  0.935247  0  0  0.256944  0  1.011423  0  0  0.265767  0  1.004802  0  0  0.281533  0.250692  0  1.016157  0
H  H11  1  0.66721188  0.25478384  0.30608582  1  0  0.282186  0  0.935242  0  0  0.256954  0  1.011436  0  0  0.265775  0  1.004816  0  0  0.281545  0.250703  0  1.01617  0
H  H12  1  0.27856719  0.47000856  0.68597763  1  0  0.118943  0  0.971603  0  0  0.124331  0  1.039745  0  0  0.12832  0  1.038168  0  0  0.092988  0.121323  0  1.041306  0
H  H13  1  0.72144031  0.97000796  0.81402400  1  0  0.118961  0  0.971621  0  0  0.124351  0  1.039755  0  0  0.128338  0  1.038181  0  0  0.092994  0.121343  0  1.041316  0
H  H14  1  0.72143485  0.52999076  0.31402367  1  0  0.118943  0  0.971625  0  0  0.124327  0  1.03977  0  0  0.128315  0  1.038195  0  0  0.092979  0.12132  0  1.04133  0
H  H15  1  0.27856647  0.02999232  0.18597681  1  0  0.118956  0  0.971606  0  0  0.124346  0  1.039747  0  0  0.128333  0  1.038173  0  0  0.092992  0.121338  0  1.041309  0
H  H16  1  0.03497025  0.41552551  0.80281214  1  0  0.098021  0  0.953555  0  0  0.103487  0  1.024251  0  0  0.10647  0  1.021084  0  0  0.113222  0.100949  0  1.027119  0
H  H17  1  0.96503712  0.91552962  0.69718789  1  0  0.098014  0  0.953552  0  0  0.103468  0  1.02425  0  0  0.106451  0  1.021084  0  0  0.113208  0.10093  0  1.027118  0
H  H18  1  0.96502701  0.58446997  0.19718755  1  0  0.097944  0  0.953586  0  0  0.103448  0  1.024244  0  0  0.10643  0  1.021078  0  0  0.113213  0.100911  0  1.027114  0
H  H19  1  0.03497201  0.08447450  0.30281188  1  0  0.09804  0  0.953542  0  0  0.103476  0  1.024272  0  0  0.106458  0  1.021105  0  0  0.113215  0.100938  0  1.027141  0
H  H20  1  0.51517718  0.11612149  0.71145832  1  0  0.098478  0  0.927538  0  0  0.107322  0  0.990261  0  0  0.110057  0  0.988228  0  0  0.120095  0.105233  0  0.991881  0
H  H21  1  0.48482492  0.61612464  0.78854102  1  0  0.098498  0  0.927537  0  0  0.10734  0  0.990256  0  0  0.110074  0  0.988226  0  0  0.120113  0.10525  0  0.991879  0
H  H22  1  0.48482002  0.88387398  0.28853872  1  0  0.098401  0  0.927617  0  0  0.10726  0  0.99033  0  0  0.109998  0  0.988288  0  0  0.120086  0.105173  0  0.991947  0
H  H23  1  0.51517472  0.38387852  0.21145921  1  0  0.098474  0  0.927541  0  0  0.107311  0  0.99027  0  0  0.110051  0  0.988224  0  0  0.120088  0.105222  0  0.991893  0
H  H24  1  0.73887675  0.15385218  0.59307668  1  0  0.115972  0  0.980107  0  0  0.117406  0  1.058893  0  0  0.121953  0  1.055258  0  0  0.089875  0.113808  0  1.062067  0
H  H25  1  0.26113494  0.65384967  0.90692381  1  0  0.115932  0  0.9801  0  0  0.117397  0  1.058873  0  0  0.121942  0  1.055239  0  0  0.089873  0.113786  0  1.062057  0
H  H26  1  0.26112759  0.84615098  0.40692147  1  0  0.115933  0  0.980114  0  0  0.117398  0  1.058889  0  0  0.121944  0  1.055254  0  0  0.089875  0.11381  0  1.062054  0
H  H27  1  0.73887659  0.34614773  0.09307705  1  0  0.115957  0  0.980084  0  0  0.117407  0  1.058872  0  0  0.121953  0  1.055238  0  0  0.089865  0.11381  0  1.062048  0
C  C28  1  0.11047624  0.39117758  0.69005239  1  0  -0.152735  0  3.684327  0  0  -0.168922  0  3.937161  0  0  -0.177916  0  3.954961  0  0  -0.092363  -0.163152  0  3.925962  0
C  C29  1  0.88952637  0.89117606  0.80994918  1  0  -0.152776  0  3.684442  0  0  -0.169001  0  3.937321  0  0  -0.177995  0  3.955124  0  0  -0.092381  -0.163232  0  3.926121  0
C  C30  1  0.88952340  0.60882270  0.30994784  1  0  -0.15275  0  3.684391  0  0  -0.168947  0  3.93727  0  0  -0.17794  0  3.955069  0  0  -0.092353  -0.163177  0  3.926074  0
C  C31  1  0.11047566  0.10882326  0.19005160  1  0  -0.152763  0  3.684394  0  0  -0.16896  0  3.937221  0  0  -0.177956  0  3.955025  0  0  -0.092355  -0.163191  0  3.926028  0
C  C32  1  0.98221854  0.36313486  0.75398439  1  0  0.140476  0  3.637647  0  0  0.097178  0  3.895497  0  0  0.108129  0  3.908389  0  0  0.047542  0.089837  0  3.887308  0
C  C33  1  0.01778874  0.86313687  0.74601562  1  0  0.140396  0  3.637676  0  0  0.097155  0  3.895478  0  0  0.108109  0  3.908365  0  0  0.047546  0.089816  0  3.887287  0
C  C34  1  0.01777869  0.63686157  0.24601424  1  0  0.140396  0  3.63765  0  0  0.097102  0  3.895504  0  0  0.108058  0  3.908394  0  0  0.04754  0.089762  0  3.887319  0
C  C35  1  0.98221803  0.13686533  0.25398466  1  0  0.140476  0  3.637682  0  0  0.097217  0  3.895529  0  0  0.10817  0  3.908425  0  0  0.047568  0.089875  0  3.887345  0
C  C36  1  0.02388942  0.31789003  0.62940602  1  0  0.181553  0  3.726763  0  0  0.189762  0  3.970747  0  0  0.202986  0  3.989455  0  0  0.012386  0.180203  0  3.958235  0
C  C37  1  0.97611781  0.81788862  0.87059503  1  0  0.181519  0  3.726843  0  0  0.18973  0  3.970837  0  0  0.202949  0  3.989554  0  0  0.012403  0.180172  0  3.958321  0
C  C38  1  0.97611021  0.68211121  0.37059368  1  0  0.181569  0  3.726758  0  0  0.189803  0  3.970736  0  0  0.203026  0  3.989445  0  0  0.012361  0.180244  0  3.958229  0
C  C39  1  0.02388660  0.18210974  0.12940577  1  0  0.181551  0  3.726722  0  0  0.189791  0  3.970694  0  0  0.203014  0  3.989404  0  0  0.012342  0.180232  0  3.95819  0
C  C40  1  0.68717292  0.19172702  0.70242476  1  0  0.139237  0  3.642828  0  0  0.099446  0  3.894273  0  0  0.109108  0  3.909737  0  0  0.050542  0.093486  0  3.884308  0
C  C41  1  0.31282691  0.69172918  0.79757407  1  0  0.139023  0  3.642697  0  0  0.099267  0  3.894153  0  0  0.108928  0  3.909613  0  0  0.050455  0.093307  0  3.884185  0
C  C42  1  0.31281478  0.80827326  0.29757274  1  0  0.139154  0  3.642714  0  0  0.099407  0  3.894211  0  0  0.10907  0  3.909679  0  0  0.050484  0.093447  0  3.884253  0
C  C43  1  0.68717034  0.30827302  0.20242562  1  0  0.139215  0  3.642755  0  0  0.099471  0  3.8942  0  0  0.109133  0  3.909665  0  0  0.050581  0.093511  0  3.884244  0
C  C44  1  0.81025675  0.21489184  0.63747441  1  0  -0.158745  0  3.706784  0  0  -0.173538  0  3.958906  0  0  -0.183396  0  3.979598  0  0  -0.092067  -0.167764  0  3.946051  0
C  C45  1  0.18974557  0.71489213  0.86252762  1  0  -0.158562  0  3.706501  0  0  -0.173415  0  3.958654  0  0  -0.183269  0  3.979344  0  0  -0.092019  -0.167631  0  3.945805  0
C  C46  1  0.18973576  0.78510940  0.36252577  1  0  -0.158662  0  3.706579  0  0  -0.17355  0  3.958847  0  0  -0.183408  0  3.979538  0  0  -0.092057  -0.16779  0  3.946  0
C  C47  1  0.81025412  0.28510911  0.13747473  1  0  -0.158736  0  3.706627  0  0  -0.173612  0  3.958842  0  0  -0.18347  0  3.979535  0  0  -0.092084  -0.16783  0  3.945966  0
S  S48  1  0.18454469  0.35516654  0.54914726  1  0  -0.374101  0  2.750278  0  0  -0.311561  0  3.212024  0  0  -0.334462  0  3.194764  0  0  -0.208087  -0.29605  0  3.221801  0
S  S49  1  0.81546021  0.85516615  0.95085326  1  0  -0.374073  0  2.750297  0  0  -0.311537  0  3.21206  0  0  -0.334439  0  3.194807  0  0  -0.208077  -0.296024  0  3.221832  0
S  S50  1  0.81545970  0.64483469  0.45085301  1  0  -0.374096  0  2.75029  0  0  -0.311557  0  3.212051  0  0  -0.334459  0  3.194792  0  0  -0.208059  -0.296045  0  3.221831  0
S  S51  1  0.18454418  0.14483316  0.04914701  1  0  -0.374096  0  2.750271  0  0  -0.311565  0  3.21202  0  0  -0.334467  0  3.194762  0  0  -0.208083  -0.296055  0  3.221798  0
N  N52  1  0.77230771  0.26572226  0.75869827  1  0  -0.233468  0  3.529844  0  0  -0.158373  0  3.748973  0  0  -0.174456  0  3.76585  0  0  -0.363562  -0.147979  0  3.73758  0
N  N53  1  0.22769466  0.76572432  0.74130219  1  0  -0.233246  0  3.529803  0  0  -0.158203  0  3.748899  0  0  -0.174287  0  3.765781  0  0  -0.363517  -0.147809  0  3.737508  0
N  N54  1  0.22768239  0.73427610  0.24130031  1  0  -0.233124  0  3.529694  0  0  -0.158131  0  3.74881  0  0  -0.17422  0  3.765695  0  0  -0.363454  -0.147734  0  3.737415  0
N  N55  1  0.77230974  0.23427788  0.25869860  1  0  -0.233409  0  3.529803  0  0  -0.158356  0  3.748911  0  0  -0.174438  0  3.76579  0  0  -0.363557  -0.14796  0  3.737519  0
Cl  Cl56  1  0.29417739  0.95809212  0.58232217  1  0  -0.550735  0  1.194548  0  0  -0.473359  0  1.544646  0  0  -0.494798  0  1.515228  0  0  -0.307054  -0.457497  0  1.563068  0
Cl  Cl57  1  0.70582294  0.45809122  0.91767888  1  0  -0.550738  0  1.194571  0  0  -0.473359  0  1.544659  0  0  -0.494797  0  1.51524  0  0  -0.307054  -0.457496  0  1.563079  0
Cl  Cl58  1  0.70582227  0.04190816  0.41767912  1  0  -0.55075  0  1.194581  0  0  -0.473374  0  1.544664  0  0  -0.494812  0  1.515244  0  0  -0.307063  -0.457512  0  1.56309  0
Cl  Cl59  1  0.29417908  0.54190714  0.08232190  1  0  -0.55073  0  1.194566  0  0  -0.47335  0  1.544654  0  0  -0.494792  0  1.515237  0  0  -0.307049  -0.457493  0  1.563078  0
Cl  Cl60  1  0.33577456  0.36229719  0.36524584  1  0  -0.542494  0  1.165451  0  0  -0.477868  0  1.490484  0  0  -0.498104  0  1.468091  0  0  -0.297688  -0.464307  0  1.506314  0
Cl  Cl61  1  0.66423446  0.86229826  0.13475484  1  0  -0.542531  0  1.165454  0  0  -0.477928  0  1.490495  0  0  -0.498143  0  1.468062  0  0  -0.297714  -0.464367  0  1.506325  0
Cl  Cl62  1  0.66423458  0.63770213  0.63475447  1  0  -0.542514  0  1.165428  0  0  -0.477905  0  1.490476  0  0  -0.498132  0  1.46807  0  0  -0.297707  -0.464341  0  1.506302  0
Cl  Cl63  1  0.33577231  0.13770106  0.86524545  1  0  -0.542505  0  1.165452  0  0  -0.477876  0  1.490479  0  0  -0.498091  0  1.468055  0  0  -0.2977  -0.464312  0  1.506306  0
