# generated using pymatgen
data_LiH3C3NO3
_symmetry_space_group_name_H-M   'P 1'
_cell_length_a   7.32657648
_cell_length_b   7.32831020
_cell_length_c   15.19828305
_cell_angle_alpha   89.99987285
_cell_angle_beta   101.28317183
_cell_angle_gamma   89.99980318
_symmetry_Int_Tables_number   1
_chemical_formula_structural   LiH3C3NO3
_chemical_formula_sum   'Li8 H24 C24 N8 O24'
_cell_volume   800.24562644
_cell_formula_units_Z   8
loop_
 _symmetry_equiv_pos_site_id
 _symmetry_equiv_pos_as_xyz
  1  'x, y, z'
loop_
 _atom_site_type_symbol
 _atom_site_label
 _atom_site_symmetry_multiplicity
 _atom_site_fract_x
 _atom_site_fract_y
 _atom_site_fract_z
 _atom_site_occupancy
 _atom_site_hle17_bader_spin_density
 _atom_site_hle17_ddec_charge
 _atom_site_hle17_ddec_spin_density
 _atom_site_hle17_ddec_sum_bond_order
 _atom_site_hle17_magmom
 _atom_site_hse06_10hf_bader_charge
 _atom_site_hse06_10hf_bader_spin_density
 _atom_site_hse06_10hf_ddec_charge
 _atom_site_hse06_10hf_ddec_spin_density
 _atom_site_hse06_10hf_ddec_sum_bond_order
 _atom_site_hse06_10hf_magmom
 _atom_site_hse06_bader_spin_density
 _atom_site_hse06_ddec_charge
 _atom_site_hse06_ddec_spin_density
 _atom_site_hse06_ddec_sum_bond_order
 _atom_site_hse06_magmom
 _atom_site_pbe_bader_spin_density
 _atom_site_pbe_cm5_charge
 _atom_site_pbe_ddec_charge
 _atom_site_pbe_ddec_spin_density
 _atom_site_pbe_ddec_sum_bond_order
 _atom_site_pbe_magmom
Li  Li0  1  0.97051197  0.03052481  0.73843641  1  0  0.851614  0  0.375994  0  0.875301  0  0.802755  0  0.491011  0  0  0.812736  0  0.474587  0  0  0.485571  0.795592  0  0.502732  0
Li  Li1  1  0.52948496  0.53052346  0.76156506  1  0  0.851615  0  0.375977  0  0.875302  0  0.802744  0  0.491015  0  0  0.812725  0  0.474591  0  0  0.48556  0.79558  0  0.502736  0
Li  Li2  1  0.02948567  0.96947251  0.26156420  1  0  0.851609  0  0.375975  0  0.875307  0  0.802753  0  0.490988  0  0  0.812732  0  0.474565  0  0  0.48557  0.795589  0  0.502709  0
Li  Li3  1  0.47050987  0.46947658  0.23843464  1  0  0.851603  0  0.375976  0  0.875325  0  0.802737  0  0.491011  0  0  0.812718  0  0.474588  0  0  0.485564  0.795572  0  0.502731  0
Li  Li4  1  0.32855276  0.81555524  0.83646182  1  0  0.856501  0  0.377151  0  0.875479  0  0.807782  0  0.495593  0  0  0.818732  0  0.476894  0  0  0.474833  0.79981  0  0.509077  0
Li  Li5  1  0.17144559  0.31555661  0.66353618  1  0  0.856531  0  0.377097  0  0.875485  0  0.807811  0  0.495541  0  0  0.818765  0  0.47684  0  0  0.474826  0.79984  0  0.509024  0
Li  Li6  1  0.67144485  0.18445162  0.16353812  1  0  0.856494  0  0.377149  0  0.875474  0  0.807789  0  0.495584  0  0  0.818736  0  0.476886  0  0  0.474844  0.799816  0  0.509066  0
Li  Li7  1  0.82855486  0.68444207  0.33646532  1  0  0.856527  0  0.37711  0  0.875487  0  0.807798  0  0.49557  0  0  0.818755  0  0.476864  0  0  0.474834  0.799825  0  0.509055  0
H  H8  1  0.69248753  0.29353439  0.60448877  1  0  0.107206  0  0.952178  0  0.159224  0  0.11153  0  1.019792  0  0  0.11571  0  1.016251  0  0  0.135133  0.108464  0  1.022455  0
H  H9  1  0.80750009  0.79354920  0.89551423  1  0  0.107255  0  0.952193  0  0.159378  0  0.111556  0  1.019873  0  0  0.115744  0  1.016325  0  0  0.135135  0.108491  0  1.022533  0
H  H10  1  0.30750602  0.70645747  0.39551411  1  0  0.107262  0  0.952174  0  0.159309  0  0.111564  0  1.019813  0  0  0.115753  0  1.016267  0  0  0.135122  0.108498  0  1.022478  0
H  H11  1  0.19249330  0.20645630  0.10448403  1  0  0.107269  0  0.952213  0  0.159333  0  0.111572  0  1.019871  0  0  0.115757  0  1.016327  0  0  0.135115  0.108505  0  1.022535  0
H  H12  1  0.68064344  0.93283888  0.51612038  1  0  0.105375  0  0.94658  0  0.164987  0  0.107191  0  1.016828  0  0  0.111661  0  1.01313  0  0  0.126862  0.103926  0  1.019664  0
H  H13  1  0.81936574  0.43285464  0.98387973  1  0  0.105423  0  0.946475  0  0.164852  0  0.107167  0  1.016779  0  0  0.111637  0  1.013079  0  0  0.126854  0.103902  0  1.019618  0
H  H14  1  0.31936401  0.06714888  0.48388304  1  0  0.105438  0  0.946504  0  0.164843  0  0.107144  0  1.016875  0  0  0.111615  0  1.013175  0  0  0.126865  0.103879  0  1.019711  0
H  H15  1  0.18063459  0.56714813  0.01611848  1  0  0.105404  0  0.946495  0  0.164881  0  0.107146  0  1.016835  0  0  0.111618  0  1.013134  0  0  0.126856  0.10388  0  1.019674  0
H  H16  1  0.10264006  0.71779670  0.70572866  1  0  0.434264  0  0.870299  0  0.664749  0  0.405135  0  0.930887  0  0  0.416754  0  0.913868  0  0  0.304433  0.396912  0  0.942943  0
H  H17  1  0.39735870  0.21779668  0.79427014  1  0  0.434272  0  0.8703  0  0.664752  0  0.405142  0  0.930883  0  0  0.416761  0  0.913864  0  0  0.304427  0.39692  0  0.942936  0
H  H18  1  0.89736039  0.28220470  0.29427284  1  0  0.434272  0  0.870295  0  0.664716  0  0.405159  0  0.930855  0  0  0.416778  0  0.913837  0  0  0.304443  0.396938  0  0.942907  0
H  H19  1  0.60264446  0.78220745  0.20572963  1  0  0.434283  0  0.870282  0  0.664827  0  0.40516  0  0.930854  0  0  0.416778  0  0.913837  0  0  0.30445  0.396939  0  0.942904  0
H  H20  1  0.10099733  0.97261286  0.59542073  1  0  0.439223  0  0.858096  0  0.65695  0  0.409842  0  0.917269  0  0  0.420863  0  0.901287  0  0  0.30396  0.402052  0  0.928568  0
H  H21  1  0.39900749  0.47261643  0.90458160  1  0  0.439138  0  0.858242  0  0.656967  0  0.409833  0  0.917322  0  0  0.420858  0  0.901332  0  0  0.303924  0.402044  0  0.928622  0
H  H22  1  0.89900453  0.02738172  0.40458155  1  0  0.439139  0  0.85824  0  0.656971  0  0.409821  0  0.917338  0  0  0.420848  0  0.901342  0  0  0.303936  0.402033  0  0.928635  0
H  H23  1  0.60099015  0.52739044  0.09541900  1  0  0.4392  0  0.858124  0  0.656953  0  0.409792  0  0.917338  0  0  0.420811  0  0.901361  0  0  0.303947  0.402012  0  0.928623  0
H  H24  1  0.00454993  0.69037836  0.78804768  1  0  0.433608  0  0.871632  0  0.649708  0  0.402206  0  0.935847  0  0  0.413569  0  0.919324  0  0  0.299533  0.39419  0  0.94749  0
H  H25  1  0.49544757  0.19038110  0.71195170  1  0  0.433663  0  0.871554  0  0.649669  0  0.402258  0  0.93577  0  0  0.41362  0  0.91925  0  0  0.299551  0.394242  0  0.947414  0
H  H26  1  0.99544776  0.30962032  0.21195424  1  0  0.43366  0  0.871559  0  0.64974  0  0.402259  0  0.93577  0  0  0.41362  0  0.91925  0  0  0.299562  0.394243  0  0.947414  0
H  H27  1  0.50455559  0.80961894  0.28804807  1  0  0.433664  0  0.871546  0  0.649703  0  0.40225  0  0.935784  0  0  0.413612  0  0.919262  0  0  0.299552  0.394234  0  0.947428  0
H  H28  1  0.94255906  0.11842682  0.56843117  1  0  0.424112  0  0.883285  0  0.653904  0  0.391733  0  0.95126  0  0  0.401735  0  0.936506  0  0  0.301916  0.384694  0  0.961648  0
H  H29  1  0.55744035  0.61843415  0.93157173  1  0  0.424126  0  0.883248  0  0.653756  0  0.391715  0  0.951278  0  0  0.401718  0  0.936522  0  0  0.301882  0.384683  0  0.961658  0
H  H30  1  0.05744419  0.88156777  0.43157124  1  0  0.42405  0  0.883365  0  0.653849  0  0.391661  0  0.95136  0  0  0.401662  0  0.936612  0  0  0.301859  0.384617  0  0.961759  0
H  H31  1  0.44256008  0.38157271  0.06842912  1  0  0.424077  0  0.883321  0  0.653783  0  0.391707  0  0.951286  0  0  0.40171  0  0.936529  0  0  0.301894  0.384664  0  0.961684  0
C  C32  1  0.81028746  0.35736782  0.44329671  1  0  0.64482  0  3.909656  0  1.640469  0  0.58158  0  4.223802  0  0  0.614409  0  4.216829  0  0  0.232221  0.559486  0  4.227765  0
C  C33  1  0.68971300  0.85737777  0.05670793  1  0  0.644826  0  3.909538  0  1.641345  0  0.581646  0  4.223613  0  0  0.614474  0  4.216643  0  0  0.232207  0.559568  0  4.227556  0
C  C34  1  0.18972111  0.64263904  0.55669892  1  0  0.644923  0  3.9098  0  1.640568  0  0.581718  0  4.223968  0  0  0.614548  0  4.216988  0  0  0.232227  0.559614  0  4.227937  0
C  C35  1  0.31028470  0.14262910  0.94329465  1  0  0.644886  0  3.909533  0  1.640512  0  0.581796  0  4.223501  0  0  0.614625  0  4.216527  0  0  0.232283  0.559693  0  4.227466  0
C  C36  1  0.63674127  0.73564866  0.61656449  1  0  0.05717  0  3.714992  0  0.520431  0  0.063748  0  3.963769  0  0  0.062748  0  3.979729  0  0  0.134038  0.063999  0  3.953533  0
C  C37  1  0.86326039  0.23565790  0.88343650  1  0  0.056934  0  3.715333  0  0.520385  0  0.063593  0  3.963945  0  0  0.062557  0  3.979948  0  0  0.134007  0.063933  0  3.953589  0
C  C38  1  0.36325785  0.26434456  0.38343887  1  0  0.05701  0  3.71512  0  0.520412  0  0.063666  0  3.963742  0  0  0.062631  0  3.979746  0  0  0.134049  0.064022  0  3.953372  0
C  C39  1  0.13673853  0.76434351  0.11656092  1  0  0.05692  0  3.715144  0  0.520258  0  0.063596  0  3.963783  0  0  0.062561  0  3.979787  0  0  0.13404  0.063948  0  3.953414  0
C  C40  1  0.57313910  0.87170182  0.67954126  1  0  0.64731  0  3.932285  0  1.661593  0  0.594288  0  4.235827  0  0  0.627736  0  4.226018  0  0  0.234083  0.571726  0  4.241782  0
C  C41  1  0.92686335  0.37170430  0.82045767  1  0  0.647187  0  3.932548  0  1.661494  0  0.594229  0  4.23595  0  0  0.62769  0  4.226142  0  0  0.234079  0.571642  0  4.241902  0
C  C42  1  0.42686406  0.12830095  0.32045851  1  0  0.64732  0  3.932314  0  1.661241  0  0.594357  0  4.235709  0  0  0.627815  0  4.225902  0  0  0.2341  0.571765  0  4.241659  0
C  C43  1  0.07313425  0.62830120  0.17954161  1  0  0.647301  0  3.932277  0  1.660689  0  0.594322  0  4.235704  0  0  0.627779  0  4.225895  0  0  0.234098  0.571733  0  4.241652  0
C  C44  1  0.69425067  0.43709003  0.58579248  1  0  0.104188  0  3.632276  0  0.541264  0  0.069422  0  3.892331  0  0  0.072848  0  3.907487  0  0  0.077824  0.067081  0  3.882354  0
C  C45  1  0.80575163  0.93710613  0.91420966  1  0  0.104053  0  3.632152  0  0.541351  0  0.069267  0  3.892387  0  0  0.072678  0  3.907571  0  0  0.077827  0.066926  0  3.882414  0
C  C46  1  0.30575673  0.56289909  0.41420963  1  0  0.104083  0  3.632432  0  0.541493  0  0.069378  0  3.89254  0  0  0.072792  0  3.907715  0  0  0.077866  0.067036  0  3.882573  0
C  C47  1  0.19424323  0.06289391  0.08579070  1  0  0.103955  0  3.632393  0  0.54143  0  0.069212  0  3.892513  0  0  0.072637  0  3.907665  0  0  0.077852  0.06687  0  3.882541  0
C  C48  1  0.74748012  0.49219013  0.50630759  1  0  0.03275  0  3.746166  0  0.495528  0  0.039692  0  4.000376  0  0  0.036671  0  4.018907  0  0  0.123173  0.041413  0  3.988088  0
C  C49  1  0.75252052  0.99220333  0.99369303  1  0  0.033066  0  3.745607  0  0.495473  0  0.039814  0  4.000103  0  0  0.03679  0  4.01864  0  0  0.123228  0.04154  0  3.9878  0
C  C50  1  0.25252712  0.50780718  0.49368990  1  0  0.032938  0  3.745925  0  0.495215  0  0.039707  0  4.000369  0  0  0.036682  0  4.018903  0  0  0.123163  0.041427  0  3.988086  0
C  C51  1  0.24748547  0.00780217  0.00630830  1  0  0.032959  0  3.745706  0  0.495476  0  0.039768  0  4.000052  0  0  0.036746  0  4.018586  0  0  0.123186  0.041489  0  3.987763  0
C  C52  1  0.68688694  0.78969395  0.53598609  1  0  0.096317  0  3.629149  0  0.537503  0  0.063716  0  3.891051  0  0  0.066235  0  3.905032  0  0  0.074341  0.061902  0  3.882049  0
C  C53  1  0.81311868  0.28970983  0.96401519  1  0  0.096378  0  3.628989  0  0.537338  0  0.063824  0  3.890894  0  0  0.066353  0  3.904884  0  0  0.074382  0.061984  0  3.881866  0
C  C54  1  0.31311490  0.21029653  0.46401554  1  0  0.096346  0  3.629315  0  0.537386  0  0.063805  0  3.891199  0  0  0.066336  0  3.905187  0  0  0.074348  0.061957  0  3.882178  0
C  C55  1  0.18688165  0.71029294  0.03598302  1  0  0.096392  0  3.62909  0  0.537423  0  0.063793  0  3.891033  0  0  0.066322  0  3.905021  0  0  0.074338  0.061948  0  3.882004  0
N  N56  1  0.63769322  0.55905673  0.64041672  1  0  -0.330771  0  3.143534  0  -1.241389  0  -0.296035  0  3.408091  0  0  -0.302473  0  3.421561  0  0  -0.335047  -0.291607  0  3.399329  0
N  N57  1  0.86229655  0.05906609  0.85958146  1  0  -0.33064  0  3.143751  0  -1.241356  0  -0.295893  0  3.408233  0  0  -0.302322  0  3.421719  0  0  -0.335053  -0.291495  0  3.399445  0
N  N58  1  0.36230294  0.44093785  0.35958112  1  0  -0.33067  0  3.143545  0  -1.241377  0  -0.295974  0  3.408085  0  0  -0.302401  0  3.421565  0  0  -0.33505  -0.291581  0  3.399293  0
N  N59  1  0.13769682  0.94093532  0.14041614  1  0  -0.330544  0  3.143857  0  -1.241388  0  -0.29582  0  3.408333  0  0  -0.302248  0  3.421818  0  0  -0.335026  -0.291425  0  3.399538  0
N  N60  1  0.74102431  0.66814072  0.48077801  1  0  -0.297525  0  3.120783  0  -1.237032  0  -0.265647  0  3.386055  0  0  -0.270976  0  3.400065  0  0  -0.299154  -0.261878  0  3.37673  0
N  N61  1  0.75898094  0.16815336  0.01922330  1  0  -0.297724  0  3.120661  0  -1.236838  0  -0.265799  0  3.385998  0  0  -0.271128  0  3.400004  0  0  -0.299229  -0.26203  0  3.376675  0
N  N62  1  0.25898031  0.33185113  0.51922386  1  0  -0.297666  0  3.120752  0  -1.23696  0  -0.265734  0  3.386042  0  0  -0.27106  0  3.400047  0  0  -0.299199  -0.261967  0  3.376729  0
N  N63  1  0.24101798  0.83185077  0.98077412  1  0  -0.297658  0  3.120702  0  -1.236972  0  -0.265736  0  3.386007  0  0  -0.271063  0  3.400012  0  0  -0.299194  -0.261968  0  3.376686  0
O  O64  1  0.07837951  0.78329057  0.76034765  1  0  -0.983901  0  1.799227  0  -1.366107  0  -0.936768  0  1.988937  0  0  -0.953363  0  1.952696  0  0  -0.694754  -0.924977  0  2.014344  0
O  O65  1  0.42161760  0.28329344  0.73965093  1  0  -0.983946  0  1.799205  0  -1.366075  0  -0.936808  0  1.988944  0  0  -0.953405  0  1.952704  0  0  -0.694741  -0.925018  0  2.014352  0
O  O66  1  0.92161672  0.21670947  0.23965217  1  0  -0.983952  0  1.79919  0  -1.366111  0  -0.936836  0  1.988905  0  0  -0.953429  0  1.952665  0  0  -0.694775  -0.925049  0  2.014312  0
O  O67  1  0.57838560  0.71670932  0.26035015  1  0  -0.983942  0  1.799179  0  -1.366215  0  -0.936806  0  1.988921  0  0  -0.953402  0  1.952679  0  0  -0.694755  -0.925019  0  2.014329  0
O  O68  1  0.49196468  0.80603457  0.73882201  1  0  -0.72216  0  1.968928  0  -1.25225  0  -0.671744  0  2.210833  0  0  -0.693908  0  2.199235  0  0  -0.383937  -0.656265  0  2.218406  0
O  O69  1  0.00803508  0.30603742  0.76117547  1  0  -0.722114  0  1.968951  0  -1.252275  0  -0.671732  0  2.210813  0  0  -0.693896  0  2.199209  0  0  -0.383989  -0.656256  0  2.218399  0
O  O70  1  0.50803570  0.19396547  0.26117752  1  0  -0.722147  0  1.968976  0  -1.251875  0  -0.671767  0  2.210851  0  0  -0.693929  0  2.199246  0  0  -0.383965  -0.656292  0  2.218434  0
O  O71  1  0.99196256  0.69396262  0.23882514  1  0  -0.72216  0  1.968912  0  -1.251387  0  -0.671767  0  2.210773  0  0  -0.693932  0  2.199167  0  0  -0.383982  -0.656294  0  2.218358  0
O  O72  1  0.03565903  0.07438811  0.62061535  1  0  -0.958144  0  1.83263  0  -1.34837  0  -0.913197  0  2.024809  0  0  -0.928934  0  1.990498  0  0  -0.681307  -0.902028  0  2.048848  0
O  O73  1  0.46434183  0.57439017  0.87938775  1  0  -0.958088  0  1.832668  0  -1.348338  0  -0.913178  0  2.024687  0  0  -0.928914  0  1.99038  0  0  -0.681265  -0.902007  0  2.04871  0
O  O74  1  0.96434007  0.92560647  0.37938736  1  0  -0.958043  0  1.832766  0  -1.348341  0  -0.91314  0  2.024805  0  0  -0.92888  0  1.990488  0  0  -0.681249  -0.90197  0  2.048847  0
O  O75  1  0.53565720  0.42561396  0.12061298  1  0  -0.958059  0  1.832639  0  -1.348344  0  -0.913122  0  2.024839  0  0  -0.928854  0  1.99053  0  0  -0.681287  -0.901953  0  2.048857  0
O  O76  1  0.85299215  0.42221232  0.37274211  1  0  -0.676038  0  2.034787  0  -1.228315  0  -0.6245  0  2.277775  0  0  -0.648288  0  2.267704  0  0  -0.333755  -0.607868  0  2.284158  0
O  O77  1  0.64700650  0.92222483  0.12725770  1  0  -0.676026  0  2.034891  0  -1.228466  0  -0.624481  0  2.277804  0  0  -0.64826  0  2.267727  0  0  -0.333749  -0.607865  0  2.284209  0
O  O78  1  0.14701353  0.57777680  0.62724998  1  0  -0.676236  0  2.034668  0  -1.228169  0  -0.62466  0  2.277594  0  0  -0.648444  0  2.267512  0  0  -0.3338  -0.608053  0  2.284041  0
O  O79  1  0.35298418  0.07777658  0.87274230  1  0  -0.676066  0  2.034816  0  -1.228343  0  -0.624523  0  2.277689  0  0  -0.648304  0  2.26761  0  0  -0.333724  -0.607916  0  2.284126  0
O  O80  1  0.81513026  0.18958283  0.46512688  1  0  -0.634059  0  2.017442  0  -1.217993  0  -0.564337  0  2.236915  0  0  -0.591272  0  2.229024  0  0  -0.291032  -0.545633  0  2.241996  0
O  O81  1  0.68486523  0.68959017  0.03487554  1  0  -0.634188  0  2.017334  0  -1.218643  0  -0.564302  0  2.236645  0  0  -0.59123  0  2.228758  0  0  -0.290998  -0.545649  0  2.241758  0
O  O82  1  0.18487009  0.81041994  0.53487199  1  0  -0.634024  0  2.01781  0  -1.218116  0  -0.564255  0  2.237234  0  0  -0.591187  0  2.229345  0  0  -0.290944  -0.545527  0  2.242301  0
O  O83  1  0.31513374  0.31041942  0.96512320  1  0  -0.634122  0  2.017198  0  -1.21789  0  -0.564502  0  2.236683  0  0  -0.591435  0  2.228782  0  0  -0.291092  -0.545778  0  2.241748  0
O  O84  1  0.61004707  0.03790656  0.66729745  1  0  -0.631837  0  1.972236  0  -1.205615  0  -0.578394  0  2.199261  0  0  -0.603199  0  2.189559  0  0  -0.288922  -0.560977  0  2.205403  0
O  O85  1  0.88995255  0.53791455  0.83270227  1  0  -0.63174  0  1.972246  0  -1.20555  0  -0.578331  0  2.199244  0  0  -0.603142  0  2.189541  0  0  -0.288892  -0.560915  0  2.205395  0
O  O86  1  0.38995061  0.96209757  0.33270447  1  0  -0.63189  0  1.972231  0  -1.205589  0  -0.578458  0  2.199213  0  0  -0.603266  0  2.189509  0  0  -0.288959  -0.561043  0  2.205368  0
O  O87  1  0.11004644  0.46209640  0.16729714  1  0  -0.63183  0  1.972211  0  -1.205549  0  -0.578401  0  2.199209  0  0  -0.603209  0  2.189504  0  0  -0.288945  -0.560987  0  2.205362  0
