# generated using pymatgen
data_ZnH7C3N(ClO)2
_symmetry_space_group_name_H-M   'P 1'
_cell_length_a   6.95227425
_cell_length_b   7.58549936
_cell_length_c   12.76916059
_cell_angle_alpha   90.00009810
_cell_angle_beta   90.00047365
_cell_angle_gamma   90.00030434
_symmetry_Int_Tables_number   1
_chemical_formula_structural   ZnH7C3N(ClO)2
_chemical_formula_sum   'Zn4 H28 C12 N4 Cl8 O8'
_cell_volume   673.40047832
_cell_formula_units_Z   4
loop_
 _symmetry_equiv_pos_site_id
 _symmetry_equiv_pos_as_xyz
  1  'x, y, z'
loop_
 _atom_site_type_symbol
 _atom_site_label
 _atom_site_symmetry_multiplicity
 _atom_site_fract_x
 _atom_site_fract_y
 _atom_site_fract_z
 _atom_site_occupancy
 _atom_site_hle17_bader_spin_density
 _atom_site_hle17_ddec_charge
 _atom_site_hle17_ddec_spin_density
 _atom_site_hle17_ddec_sum_bond_order
 _atom_site_hle17_magmom
 _atom_site_hse06_10hf_bader_spin_density
 _atom_site_hse06_10hf_ddec_charge
 _atom_site_hse06_10hf_ddec_spin_density
 _atom_site_hse06_10hf_ddec_sum_bond_order
 _atom_site_hse06_10hf_magmom
 _atom_site_hse06_bader_spin_density
 _atom_site_hse06_ddec_charge
 _atom_site_hse06_ddec_spin_density
 _atom_site_hse06_ddec_sum_bond_order
 _atom_site_hse06_magmom
 _atom_site_pbe_bader_spin_density
 _atom_site_pbe_cm5_charge
 _atom_site_pbe_ddec_charge
 _atom_site_pbe_ddec_spin_density
 _atom_site_pbe_ddec_sum_bond_order
 _atom_site_pbe_magmom
Zn  Zn0  1  0.60406472  0.45732972  0.27195602  1  0  0.99273  0  1.943645  0  0  0.841476  0  2.398624  0  0  0.88835  0  2.343782  0  0  0.529701  0.80836  0  2.436418  0
Zn  Zn1  1  0.39593056  0.95732333  0.72804373  1  0  0.992717  0  1.943707  0  0  0.841441  0  2.398695  0  0  0.888315  0  2.343857  0  0  0.529676  0.808326  0  2.436479  0
Zn  Zn2  1  0.10406253  0.45732843  0.22804677  1  0  0.992716  0  1.943672  0  0  0.841442  0  2.398666  0  0  0.888316  0  2.343822  0  0  0.529676  0.808326  0  2.436454  0
Zn  Zn3  1  0.89593419  0.95732199  0.77195298  1  0  0.99263  0  1.943709  0  0  0.841363  0  2.398686  0  0  0.888235  0  2.343849  0  0  0.529629  0.808247  0  2.436474  0
H  H4  1  0.44235886  0.48898621  0.57014286  1  0  0.336925  0  0.833808  0  0  0.31678  0  0.89742  0  0  0.32383  0  0.891659  0  0  0.308816  0.311711  0  0.901664  0
H  H5  1  0.55764380  0.98898370  0.42985615  1  0  0.336917  0  0.833824  0  0  0.316779  0  0.897438  0  0  0.323828  0  0.891676  0  0  0.308814  0.311707  0  0.901684  0
H  H6  1  0.94235195  0.48898006  0.92985673  1  0  0.336922  0  0.8338  0  0  0.316794  0  0.897406  0  0  0.323844  0  0.891642  0  0  0.308823  0.31172  0  0.901655  0
H  H7  1  0.05764782  0.98897930  0.07014305  1  0  0.336939  0  0.833828  0  0  0.316823  0  0.897403  0  0  0.323874  0  0.89164  0  0  0.308814  0.311747  0  0.901653  0
H  H8  1  0.29774774  0.66566112  0.57651736  1  0  0.330624  0  0.870149  0  0  0.311629  0  0.931633  0  0  0.318344  0  0.927157  0  0  0.305946  0.306827  0  0.934955  0
H  H9  1  0.70225449  0.16566053  0.42348054  1  0  0.330634  0  0.870131  0  0  0.311653  0  0.931602  0  0  0.318368  0  0.927124  0  0  0.305959  0.306847  0  0.934926  0
H  H10  1  0.79774937  0.66565890  0.92348411  1  0  0.33061  0  0.870153  0  0  0.311641  0  0.9316  0  0  0.318357  0  0.927122  0  0  0.305955  0.306834  0  0.934927  0
H  H11  1  0.20225143  0.16565879  0.07651770  1  0  0.330636  0  0.870145  0  0  0.311655  0  0.931605  0  0  0.31837  0  0.927126  0  0  0.305953  0.306845  0  0.934933  0
H  H12  1  0.30183012  0.54561086  0.46766990  1  0  0.333593  0  0.875227  0  0  0.310047  0  0.944884  0  0  0.318075  0  0.938121  0  0  0.296954  0.304295  0  0.949773  0
H  H13  1  0.69817286  0.04561057  0.53232866  1  0  0.33361  0  0.875216  0  0  0.310073  0  0.944864  0  0  0.318101  0  0.938102  0  0  0.29695  0.304317  0  0.949755  0
H  H14  1  0.80182720  0.54561013  0.03232917  1  0  0.33359  0  0.875196  0  0  0.310058  0  0.94485  0  0  0.318086  0  0.938085  0  0  0.296972  0.304302  0  0.949744  0
H  H15  1  0.19817578  0.04560867  0.96767175  1  0  0.3336  0  0.875232  0  0  0.310058  0  0.944889  0  0  0.318088  0  0.938123  0  0  0.296945  0.304298  0  0.949785  0
H  H16  1  0.85385003  0.38130682  0.60148643  1  0  0.134317  0  0.941054  0  0  0.144064  0  1.005357  0  0  0.14671  0  1.004513  0  0  0.096163  0.142151  0  1.006049  0
H  H17  1  0.14614769  0.88130878  0.39851404  1  0  0.134346  0  0.941056  0  0  0.14409  0  1.00535  0  0  0.146739  0  1.004505  0  0  0.096174  0.142178  0  1.006041  0
H  H18  1  0.35384326  0.38131526  0.89851580  1  0  0.134301  0  0.941203  0  0  0.144059  0  1.005475  0  0  0.146714  0  1.004629  0  0  0.096176  0.142147  0  1.006165  0
H  H19  1  0.64615446  0.88131616  0.10148623  1  0  0.134346  0  0.941268  0  0  0.144104  0  1.005519  0  0  0.14676  0  1.004673  0  0  0.096186  0.142191  0  1.00621  0
H  H20  1  0.91831581  0.60270965  0.58874034  1  0  0.122236  0  0.944454  0  0  0.135023  0  1.005739  0  0  0.137227  0  1.005405  0  0  0.094784  0.133392  0  1.006136  0
H  H21  1  0.08169182  0.10271389  0.41125671  1  0  0.1222  0  0.944528  0  0  0.134992  0  1.005782  0  0  0.1372  0  1.005447  0  0  0.094783  0.133361  0  1.00618  0
H  H22  1  0.41830636  0.60271417  0.91126317  1  0  0.1222  0  0.944592  0  0  0.134977  0  1.005858  0  0  0.137188  0  1.005523  0  0  0.094785  0.133345  0  1.006257  0
H  H23  1  0.58169552  0.10271200  0.08873858  1  0  0.122222  0  0.944592  0  0  0.135011  0  1.005832  0  0  0.137226  0  1.005496  0  0  0.0948  0.133381  0  1.006231  0
H  H24  1  0.17091448  0.41687311  0.67647184  1  0  0.080053  0  0.953607  0  0  0.090824  0  1.021993  0  0  0.091882  0  1.022013  0  0  0.095232  0.089967  0  1.022106  0
H  H25  1  0.82908920  0.91687821  0.32352788  1  0  0.079983  0  0.953634  0  0  0.090838  0  1.021969  0  0  0.0919  0  1.021991  0  0  0.095247  0.089983  0  1.022081  0
H  H26  1  0.67089875  0.41688511  0.82352882  1  0  0.07996  0  0.953695  0  0  0.090888  0  1.022  0  0  0.091952  0  1.022022  0  0  0.095241  0.090028  0  1.02212  0
H  H27  1  0.32909773  0.91688336  0.17647324  1  0  0.079958  0  0.953605  0  0  0.090929  0  1.02192  0  0  0.091994  0  1.021941  0  0  0.095248  0.090067  0  1.022042  0
H  H28  1  0.19395174  0.28634106  0.56300939  1  0  0.065416  0  0.943225  0  0  0.080001  0  1.00819  0  0  0.080053  0  1.008991  0  0  0.101519  0.079808  0  1.007813  0
H  H29  1  0.80604831  0.78633978  0.43698628  1  0  0.065427  0  0.943199  0  0  0.080011  0  1.008203  0  0  0.080067  0  1.009007  0  0  0.101533  0.07982  0  1.007824  0
H  H30  1  0.69394350  0.28634020  0.93698419  1  0  0.065439  0  0.943169  0  0  0.080034  0  1.008187  0  0  0.080094  0  1.008989  0  0  0.101536  0.079845  0  1.007805  0
H  H31  1  0.30605511  0.78634064  0.06301696  1  0  0.065406  0  0.943144  0  0  0.080019  0  1.008173  0  0  0.080079  0  1.008974  0  0  0.10154  0.079829  0  1.00779  0
C  C32  1  0.91390855  0.46372451  0.44382471  1  0  0.727568  0  3.794282  0  0  0.675316  0  4.092175  0  0  0.710581  0  4.084182  0  0  0.216906  0.651254  0  4.096833  0
C  C33  1  0.08609396  0.96371741  0.55617349  1  0  0.727693  0  3.79426  0  0  0.675373  0  4.092236  0  0  0.710636  0  4.084263  0  0  0.216929  0.651315  0  4.096886  0
C  C34  1  0.41391092  0.46372667  0.05617948  1  0  0.727821  0  3.794055  0  0  0.675491  0  4.092042  0  0  0.71076  0  4.084044  0  0  0.217009  0.651434  0  4.096704  0
C  C35  1  0.58608727  0.96371921  0.94382342  1  0  0.727795  0  3.794038  0  0  0.675433  0  4.092049  0  0  0.710696  0  4.084077  0  0  0.216944  0.651379  0  4.096702  0
C  C36  1  0.95404452  0.46939218  0.56035008  1  0  -0.31289  0  3.642302  0  0  -0.344837  0  3.885449  0  0  -0.35243  0  3.892959  0  0  -0.172996  -0.339549  0  3.880216  0
C  C37  1  0.04595370  0.96939244  0.43964890  1  0  -0.312958  0  3.642369  0  0  -0.344835  0  3.885574  0  0  -0.352436  0  3.893103  0  0  -0.173015  -0.339548  0  3.880343  0
C  C38  1  0.45403982  0.46939546  0.93965189  1  0  -0.312956  0  3.642347  0  0  -0.344765  0  3.885514  0  0  -0.352376  0  3.893059  0  0  -0.17304  -0.339478  0  3.880283  0
C  C39  1  0.54595984  0.96939311  0.06035023  1  0  -0.313125  0  3.642472  0  0  -0.344914  0  3.885668  0  0  -0.352534  0  3.893223  0  0  -0.173085  -0.339628  0  3.88044  0
C  C40  1  0.15736574  0.41831518  0.59114357  1  0  0.102399  0  3.567219  0  0  0.038538  0  3.829262  0  0  0.043647  0  3.839666  0  0  -0.071801  0.035202  0  3.822172  0
C  C41  1  0.84263363  0.91831796  0.40885458  1  0  0.102484  0  3.567044  0  0  0.03848  0  3.829272  0  0  0.043576  0  3.839706  0  0  -0.07183  0.035139  0  3.822187  0
C  C42  1  0.65736571  0.41832215  0.90885625  1  0  0.102499  0  3.567142  0  0  0.038345  0  3.829505  0  0  0.043436  0  3.839956  0  0  -0.071791  0.035007  0  3.822419  0
C  C43  1  0.34263510  0.91832022  0.09114660  1  0  0.102691  0  3.566809  0  0  0.038429  0  3.829264  0  0  0.043527  0  3.839702  0  0  -0.071776  0.035087  0  3.82218  0
N  N44  1  0.30943111  0.53755748  0.54879036  1  0  -0.487333  0  3.208987  0  0  -0.436887  0  3.413263  0  0  -0.450948  0  3.410197  0  0  -0.612067  -0.427288  0  3.415742  0
N  N45  1  0.69056895  0.03755691  0.45120741  1  0  -0.487358  0  3.208929  0  0  -0.436915  0  3.413269  0  0  -0.450973  0  3.410205  0  0  -0.612059  -0.427309  0  3.415751  0
N  N46  1  0.80942885  0.53755666  0.95120869  1  0  -0.4873  0  3.209035  0  0  -0.436856  0  3.413443  0  0  -0.450905  0  3.410381  0  0  -0.612091  -0.427249  0  3.415927  0
N  N47  1  0.19057265  0.03755509  0.04879300  1  0  -0.487475  0  3.209054  0  0  -0.436997  0  3.413472  0  0  -0.451052  0  3.410406  0  0  -0.612104  -0.427384  0  3.415958  0
Cl  Cl48  1  0.45285638  0.71382936  0.32950227  1  0  -0.575217  0  0.966812  0  0  -0.520185  0  1.247528  0  0  -0.536214  0  1.223381  0  0  -0.28405  -0.508619  0  1.264289  0
Cl  Cl49  1  0.54713462  0.21382609  0.67049724  1  0  -0.575203  0  0.966779  0  0  -0.520164  0  1.247488  0  0  -0.5362  0  1.223343  0  0  -0.284041  -0.508598  0  1.264245  0
Cl  Cl50  1  0.95286277  0.71382903  0.17049607  1  0  -0.575232  0  0.966814  0  0  -0.520179  0  1.247502  0  0  -0.536209  0  1.223354  0  0  -0.284059  -0.508616  0  1.264259  0
Cl  Cl51  1  0.04713686  0.21382378  0.82950423  1  0  -0.575193  0  0.966776  0  0  -0.520128  0  1.247457  0  0  -0.536163  0  1.22331  0  0  -0.284042  -0.508563  0  1.264215  0
Cl  Cl52  1  0.36095252  0.24732717  0.30020547  1  0  -0.541469  0  1.051336  0  0  -0.479076  0  1.345268  0  0  -0.496642  0  1.320299  0  0  -0.266309  -0.466529  0  1.362538  0
Cl  Cl53  1  0.63904587  0.74732453  0.69979251  1  0  -0.541474  0  1.051353  0  0  -0.479082  0  1.34531  0  0  -0.496653  0  1.320338  0  0  -0.266316  -0.466537  0  1.362581  0
Cl  Cl54  1  0.86095073  0.24732693  0.19979356  1  0  -0.541468  0  1.051327  0  0  -0.479094  0  1.345279  0  0  -0.496658  0  1.32031  0  0  -0.266312  -0.466547  0  1.362551  0
Cl  Cl55  1  0.13904622  0.74732081  0.80020207  1  0  -0.541463  0  1.051378  0  0  -0.479073  0  1.345329  0  0  -0.496643  0  1.320359  0  0  -0.266305  -0.466529  0  1.362601  0
O  O56  1  0.74412059  0.42047311  0.41458511  1  0  -0.663402  0  2.103389  0  0  -0.594471  0  2.370557  0  0  -0.623431  0  2.357711  0  0  -0.324784  -0.574197  0  2.378611  0
O  O57  1  0.25588310  0.92047089  0.58541148  1  0  -0.663482  0  2.10347  0  0  -0.594501  0  2.370627  0  0  -0.623459  0  2.357782  0  0  -0.324808  -0.574225  0  2.378665  0
O  O58  1  0.24411910  0.42046744  0.08541827  1  0  -0.663549  0  2.103132  0  0  -0.594623  0  2.370411  0  0  -0.62358  0  2.357556  0  0  -0.324878  -0.574325  0  2.378411  0
O  O59  1  0.75588172  0.92046733  0.91458458  1  0  -0.663513  0  2.103168  0  0  -0.594568  0  2.370403  0  0  -0.623524  0  2.357556  0  0  -0.32482  -0.574274  0  2.378409  0
O  O60  1  0.05242033  0.50567736  0.38387212  1  0  -0.645503  0  2.157321  0  0  -0.568193  0  2.419831  0  0  -0.598983  0  2.410257  0  0  -0.313978  -0.546735  0  2.425668  0
O  O61  1  0.94758099  0.00566799  0.61612641  1  0  -0.645517  0  2.157205  0  0  -0.56823  0  2.419819  0  0  -0.598992  0  2.410188  0  0  -0.313972  -0.546777  0  2.425658  0
O  O62  1  0.55240719  0.50566896  0.11613285  1  0  -0.645574  0  2.157448  0  0  -0.56825  0  2.419968  0  0  -0.599071  0  2.410469  0  0  -0.31402  -0.546801  0  2.425812  0
O  O63  1  0.44758694  0.00564870  0.88387038  1  0  -0.645501  0  2.157327  0  0  -0.568162  0  2.419892  0  0  -0.598953  0  2.410339  0  0  -0.313974  -0.546714  0  2.425731  0
