# generated using pymatgen
data_Zn4H30(C2O)17
_symmetry_space_group_name_H-M   'P 1'
_cell_length_a   17.92692843
_cell_length_b   18.52557523
_cell_length_c   20.17079415
_cell_angle_alpha   61.15961459
_cell_angle_beta   63.40155169
_cell_angle_gamma   89.91549976
_symmetry_Int_Tables_number   1
_chemical_formula_structural   Zn4H30(C2O)17
_chemical_formula_sum   'Zn8 H60 C68 O34'
_cell_volume   5046.36075260
_cell_formula_units_Z   2
loop_
 _symmetry_equiv_pos_site_id
 _symmetry_equiv_pos_as_xyz
  1  'x, y, z'
loop_
 _atom_site_type_symbol
 _atom_site_label
 _atom_site_symmetry_multiplicity
 _atom_site_fract_x
 _atom_site_fract_y
 _atom_site_fract_z
 _atom_site_occupancy
 _atom_site_pbe_bader_charge
 _atom_site_pbe_bader_spin_density
 _atom_site_pbe_cm5_charge
 _atom_site_pbe_ddec_charge
 _atom_site_pbe_ddec_spin_density
 _atom_site_pbe_ddec_sum_bond_order
 _atom_site_pbe_magmom
Zn  Zn0  1  0.12981903  0.54122535  0.92609998  1  1.30199  0  0.668946  0.950673  0  2.413927  0
Zn  Zn1  1  0.96197098  0.54828353  0.06931667  1  1.309209  0  0.669357  0.95858  0  2.373396  0
Zn  Zn2  1  0.97090112  0.37927500  0.06159503  1  1.297692  0  0.66877  0.948694  0  2.427805  0
Zn  Zn3  1  0.95460443  0.54244537  0.91299803  1  1.311788  0  0.671393  0.969688  0  2.321205  0
Zn  Zn4  1  0.37887056  0.97041022  0.06003327  1  1.303441  0  0.669366  0.951911  0  2.415457  0
Zn  Zn5  1  0.54382851  0.12733093  0.92127594  1  1.301198  0  0.669573  0.948739  0  2.429857  0
Zn  Zn6  1  0.54001217  0.95828959  0.91457094  1  1.308864  0  0.67021  0.960096  0  2.373466  0
Zn  Zn7  1  0.55560226  0.96005987  0.06919927  1  1.319737  0  0.670793  0.968718  0  2.321114  0
H  H8  1  0.42868933  0.81958106  0.35107430  1  0.11037  0  0.112222  0.122494  0  1.012335  0
H  H9  1  0.20745477  0.83697979  0.31886103  1  0.134  0  0.119565  0.136551  0  0.978301  0
H  H10  1  0.08548557  0.67974934  0.63387588  1  0.117833  0  0.112589  0.120339  0  1.016522  0
H  H11  1  0.30649461  0.66049286  0.66641875  1  0.117079  0  0.119291  0.135622  0  0.979457  0
H  H12  1  0.67789902  0.08485334  0.63873278  1  0.157503  0  0.112292  0.120061  0  1.016333  0
H  H13  1  0.66712599  0.30518452  0.65841793  1  0.139111  0  0.120069  0.136028  0  0.977951  0
H  H14  1  0.82618455  0.42202831  0.34520451  1  0.108297  0  0.112708  0.120828  0  1.017352  0
H  H15  1  0.84204735  0.20157663  0.32591535  1  0.149478  0  0.119821  0.136324  0  0.977636  0
H  H16  1  0.21939445  0.31658901  0.88180208  1  0.02355  0  0.090988  0.085324  0  0.977009  0
H  H17  1  0.13417208  0.23015535  0.98313893  1  0.074413  0  0.093968  0.094018  0  0.984068  0
H  H18  1  0.22602590  0.14064095  0.97882919  1  0.069011  0  0.093573  0.094482  0  0.984333  0
H  H19  1  0.31142774  0.22827577  0.87877954  1  0.036581  0  0.090982  0.085833  0  0.97997  0
H  H20  1  0.20248666  0.10963774  0.12381810  1  0.034319  0  0.09478  0.096266  0  0.982475  0
H  H21  1  0.27295520  0.17277008  0.12708784  1  0.024596  0  0.089961  0.082867  0  0.981411  0
H  H22  1  0.11297160  0.20153577  0.12674504  1  0.063794  0  0.095802  0.098233  0  0.982159  0
H  H23  1  0.18547239  0.26554577  0.12720833  1  0.010018  0  0.090825  0.084816  0  0.979027  0
H  H24  1  0.32307324  0.41035140  0.88208281  1  0.042852  0  0.092173  0.0918  0  0.979312  0
H  H25  1  0.30819304  0.39057656  0.98213095  1  0.04049  0  0.090031  0.087483  0  0.981382  0
H  H26  1  0.39735472  0.29835905  0.98309356  1  0.016198  0  0.09008  0.087696  0  0.981921  0
H  H27  1  0.41376588  0.31990031  0.88200874  1  0.045238  0  0.091767  0.091281  0  0.980209  0
H  H28  1  0.90621549  0.81376044  0.87873032  1  0.043131  0  0.090111  0.083757  0  0.982343  0
H  H29  1  0.88640720  0.78797250  0.98296327  1  0.010366  0  0.093437  0.092373  0  0.981344  0
H  H30  1  0.79727728  0.88008808  0.98276755  1  0.035876  0  0.09365  0.09232  0  0.98185  0
H  H31  1  0.81655708  0.90436946  0.87914359  1  0.012964  0  0.091742  0.086721  0  0.980054  0
H  H32  1  0.67367315  0.75617431  0.12217095  1  0.032053  0  0.09436  0.09701  0  0.982827  0
H  H33  1  0.60315369  0.69340717  0.11875305  1  0.029398  0  0.089422  0.083639  0  0.980218  0
H  H34  1  0.76151800  0.66269524  0.12197400  1  0.034284  0  0.092986  0.095052  0  0.988187  0
H  H35  1  0.69184930  0.60187105  0.11594895  1  0.022658  0  0.088096  0.081041  0  0.982027  0
H  H36  1  0.80778917  0.72531791  0.86952995  1  0.017475  0  0.092207  0.093862  0  0.983617  0
H  H37  1  0.72100147  0.63789132  0.96587867  1  0.010748  0  0.090272  0.087667  0  0.980024  0
H  H38  1  0.63004107  0.72808645  0.96916405  1  0.013989  0  0.089824  0.086299  0  0.979845  0
H  H39  1  0.71648898  0.81496861  0.87191397  1  0.049167  0  0.091821  0.092332  0  0.983116  0
H  H40  1  0.17649859  0.81028364  0.91528963  1  0.033506  0  0.090797  0.084395  0  0.979895  0
H  H41  1  0.26639595  0.77922760  0.86173469  1  0.04406  0  0.093133  0.092612  0  0.984488  0
H  H42  1  0.35745084  0.87426258  0.85667505  1  0.036606  0  0.092795  0.091826  0  0.983875  0
H  H43  1  0.26685338  0.90417654  0.91111441  1  0.026891  0  0.091126  0.085569  0  0.980081  0
H  H44  1  0.40190848  0.75110022  0.94344102  1  0.045335  0  0.094156  0.09625  0  0.983718  0
H  H45  1  0.34468837  0.69402552  0.05953816  1  0.014823  0  0.090486  0.084385  0  0.979683  0
H  H46  1  0.30971563  0.65470475  0.95062808  1  0.062822  0  0.094081  0.096651  0  0.984123  0
H  H47  1  0.25170958  0.59967315  0.06665059  1  0.04097  0  0.090921  0.085165  0  0.979328  0
H  H48  1  0.09143806  0.72892761  0.08286044  1  0.027743  0  0.091753  0.09202  0  0.982176  0
H  H49  1  0.12209837  0.64275554  0.14423597  1  0.043997  0  0.09147  0.090454  0  0.977385  0
H  H50  1  0.21391591  0.73673447  0.13937093  1  0.033011  0  0.092516  0.091099  0  0.976737  0
H  H51  1  0.18294137  0.82278402  0.07842933  1  0.03012  0  0.092035  0.092727  0  0.981576  0
H  H52  1  0.91274410  0.28096244  0.90837984  1  0.011656  0  0.091699  0.086365  0  0.978887  0
H  H53  1  0.87405135  0.36343438  0.85197905  1  0.05957  0  0.095755  0.096166  0  0.977211  0
H  H54  1  0.79078675  0.26354071  0.85536024  1  0.02681  0  0.096002  0.097922  0  0.980801  0
H  H55  1  0.82516958  0.18049882  0.91708327  1  0.031968  0  0.091185  0.085288  0  0.978986  0
H  H56  1  0.66088539  0.30530605  0.93262682  1  0.064845  0  0.094934  0.097979  0  0.98169  0
H  H57  1  0.59909473  0.24767699  0.04864615  1  0.028846  0  0.088868  0.081665  0  0.98225  0
H  H58  1  0.74485415  0.40043783  0.93422703  1  0.064323  0  0.094788  0.097509  0  0.981648  0
H  H59  1  0.68529378  0.33976059  0.05043951  1  0.025958  0  0.088304  0.081691  0  0.981331  0
H  H60  1  0.82831703  0.19224511  0.07626075  1  0.049411  0  0.092274  0.093269  0  0.983212  0
H  H61  1  0.73808555  0.21815895  0.13490939  1  0.010828  0  0.088788  0.08565  0  0.98218  0
H  H62  1  0.64597331  0.12618171  0.13784927  1  -0.006013  0  0.088167  0.084385  0  0.982447  0
H  H63  1  0.73561698  0.09555893  0.08499995  1  0.044714  0  0.091658  0.092011  0  0.981417  0
H  H64  1  0.44512635  0.86794359  0.42826355  1  0.591478  0  0.333613  0.364282  0  0.886028  0
H  H65  1  0.07147479  0.80756302  0.55158589  1  0.60241  0  0.334503  0.364623  0  0.884237  0
H  H66  1  0.62963612  0.06980103  0.55795226  1  0.613581  0  0.334252  0.365017  0  0.883778  0
H  H67  1  0.70008758  0.44093824  0.42027405  1  0.600397  0  0.335083  0.36545  0  0.882827  0
C  C68  1  0.13993483  0.63832639  0.00237575  1  1.534942  0  0.235345  0.603346  0  4.096763  0
C  C69  1  0.88590513  0.37434734  0.22901038  1  1.526536  0  0.228295  0.601276  0  4.174013  0
C  C70  1  0.14812499  0.36516594  0.99785222  1  1.550488  0  0.234312  0.598447  0  4.105078  0
C  C71  1  0.86175735  0.36655207  0.98982947  1  1.528532  0  0.235568  0.603088  0  4.096428  0
C  C72  1  0.13190403  0.61893909  0.75673034  1  1.562287  0  0.229577  0.605851  0  4.163901  0
C  C73  1  0.86194796  0.64153871  0.98859772  1  1.547675  0  0.235337  0.603965  0  4.093412  0
C  C74  1  0.36640654  0.14572619  0.99482480  1  1.548063  0  0.235069  0.603022  0  4.09772  0
C  C75  1  0.61695064  0.13239493  0.75499692  1  1.519775  0  0.227959  0.600049  0  4.174083  0
C  C76  1  0.36066213  0.86540947  0.99245814  1  1.551507  0  0.23445  0.600753  0  4.100102  0
C  C77  1  0.64360522  0.86282225  0.99090104  1  1.524182  0  0.235091  0.603689  0  4.092701  0
C  C78  1  0.38155538  0.88315887  0.22808509  1  1.598239  0  0.228573  0.60223  0  4.168256  0
C  C79  1  0.64861805  0.13736884  0.99432799  1  1.552689  0  0.23554  0.604196  0  4.093679  0
C  C80  1  0.35847290  0.80709174  0.38096873  1  0.06151  0  -0.077994  -0.150191  0  3.934821  0
C  C81  1  0.23327677  0.81628633  0.36275359  1  -0.017033  0  -0.068568  -0.099874  0  3.931896  0
C  C82  1  0.17746067  0.77327658  0.45254951  1  -0.001016  0  -0.011673  -0.099678  0  3.984165  0
C  C83  1  0.21071865  0.74434794  0.51103741  1  -0.027189  0  0.000152  0.057381  0  3.973628  0
C  C84  1  0.15581323  0.69622911  0.60385726  1  -0.061462  0  -0.078051  -0.148202  0  3.934422  0
C  C85  1  0.28075069  0.68472709  0.62236719  1  -0.026346  0  -0.068508  -0.098218  0  3.93655  0
C  C86  1  0.33668570  0.73189277  0.53240323  1  -0.042466  0  -0.01465  -0.104593  0  3.988237  0
C  C87  1  0.30360124  0.76255407  0.47369945  1  -0.068426  0  -0.001823  0.051439  0  3.974153  0
C  C88  1  0.32411860  0.83412579  0.32640978  1  -0.057873  0  -0.011423  -0.016356  0  3.974508  0
C  C89  1  0.18997586  0.66751846  0.65856794  1  0.029528  0  -0.01313  -0.020056  0  3.980493  0
C  C90  1  0.69236900  0.15435893  0.60558989  1  0.025707  0  -0.077683  -0.146766  0  3.938271  0
C  C91  1  0.68674407  0.27911937  0.61687218  1  -0.036757  0  -0.067397  -0.096706  0  3.932747  0
C  C92  1  0.73146180  0.33342358  0.52643863  1  -0.022017  0  -0.011764  -0.102403  0  3.98782  0
C  C93  1  0.75909792  0.29943390  0.47145194  1  0.003384  0  -0.000678  0.05647  0  3.97705  0
C  C94  1  0.80821733  0.35249761  0.37843485  1  -0.074686  0  -0.0777  -0.14853  0  3.936646  0
C  C95  1  0.81776849  0.22769409  0.36733830  1  -0.009036  0  -0.067758  -0.09803  0  3.935897  0
C  C96  1  0.76899935  0.17358097  0.45767997  1  -0.051693  0  -0.015129  -0.107845  0  3.994534  0
C  C97  1  0.73859160  0.20760591  0.51258475  1  -0.044232  0  -0.002123  0.053865  0  3.980289  0
C  C98  1  0.66623221  0.18932318  0.65672129  1  -0.038212  0  -0.012076  -0.017746  0  3.980891  0
C  C99  1  0.83626641  0.31749034  0.32737503  1  0.030837  0  -0.01229  -0.01688  0  3.980645  0
C  C100  1  0.20201484  0.26601941  0.94904043  1  -0.051783  0  -0.155356  -0.169453  0  3.852047  0
C  C101  1  0.26267981  0.20662276  0.94702824  1  -0.089671  0  -0.155627  -0.171893  0  3.85884  0
C  C102  1  0.30964802  0.20669488  0.99535161  1  0.03274  0  -0.016516  0.021208  0  3.816004  0
C  C103  1  0.24034164  0.17532297  0.09127453  1  -0.014548  0  -0.156908  -0.170616  0  3.859127  0
C  C104  1  0.18123312  0.23632407  0.09229225  1  -0.044466  0  -0.156809  -0.171552  0  3.854708  0
C  C105  1  0.20902802  0.30808393  0.99702532  1  0.036934  0  -0.016305  0.021852  0  3.813026  0
C  C106  1  0.30358831  0.35885706  0.94950154  1  -0.040758  0  -0.162725  -0.174659  0  3.884057  0
C  C107  1  0.36319180  0.29847077  0.94942894  1  -0.011581  0  -0.163653  -0.176618  0  3.885266  0
C  C108  1  0.85467982  0.79068839  0.94645692  1  -0.0097  0  -0.154154  -0.167963  0  3.84778  0
C  C109  1  0.79509131  0.85147340  0.94675472  1  -0.030146  0  -0.154621  -0.169146  0  3.849936  0
C  C110  1  0.70030310  0.80133333  0.99069360  1  0.067965  0  -0.016377  0.021452  0  3.805452  0
C  C111  1  0.67125690  0.72828412  0.08571520  1  -0.018829  0  -0.159669  -0.175029  0  3.861064  0
C  C112  1  0.73022094  0.66711978  0.08472651  1  -0.037481  0  -0.159154  -0.171391  0  3.863688  0
C  C113  1  0.80094755  0.69905406  0.98917496  1  0.038527  0  -0.016252  0.021184  0  3.808552  0
C  C114  1  0.75754221  0.70296079  0.93733831  1  0.010527  0  -0.16486  -0.181139  0  3.887022  0
C  C115  1  0.69736464  0.76289058  0.93895269  1  -0.033149  0  -0.162955  -0.174052  0  3.877448  0
C  C116  1  0.23190932  0.78634789  0.91807235  1  -0.054967  0  -0.155077  -0.168194  0  3.852134  0
C  C117  1  0.29229541  0.84906437  0.91495298  1  -0.023054  0  -0.156119  -0.171117  0  3.856658  0
C  C118  1  0.29966538  0.80247301  0.99847721  1  0.034748  0  -0.016745  0.021708  0  3.811419  0
C  C119  1  0.33690040  0.72636797  0.00169706  1  -0.021576  0  -0.159316  -0.174655  0  3.861033  0
C  C120  1  0.27567155  0.66328059  0.00596324  1  -0.070233  0  -0.158483  -0.173274  0  3.857815  0
C  C121  1  0.19738065  0.69708357  0.00402447  1  0.060454  0  -0.016594  0.021581  0  3.812184  0
C  C122  1  0.14795439  0.70622959  0.08318169  1  -0.023645  0  -0.162747  -0.178303  0  3.883583  0
C  C123  1  0.20872325  0.76855742  0.08003967  1  -0.016618  0  -0.16309  -0.176632  0  3.878363  0
C  C124  1  0.85358827  0.29942837  0.91105082  1  -0.034145  0  -0.154195  -0.169644  0  3.847819  0
C  C125  1  0.79637060  0.23363246  0.91441397  1  -0.023489  0  -0.153923  -0.168419  0  3.848346  0
C  C126  1  0.70439243  0.19704206  0.99659485  1  0.044877  0  -0.016961  0.018415  0  3.814859  0
C  C127  1  0.66563315  0.27284781  0.99212921  1  -0.0582  0  -0.157951  -0.171359  0  3.853725  0
C  C128  1  0.72257656  0.33546494  0.99244062  1  -0.052982  0  -0.158756  -0.173701  0  3.863  0
C  C129  1  0.80211902  0.30440427  0.99353436  1  0.041453  0  -0.016061  0.020146  0  3.811452  0
C  C130  1  0.77144971  0.21428948  0.07631841  1  -0.019104  0  -0.165437  -0.178222  0  3.885232  0
C  C131  1  0.71125399  0.15140711  0.07960777  1  -0.011799  0  -0.164219  -0.176458  0  3.890292  0
C  C132  1  0.43189963  0.74736893  0.50161326  1  1.528401  0  0.22982  0.572216  0  4.122333  0
C  C133  1  0.08221687  0.75833737  0.48329668  1  1.532073  0  0.231344  0.571983  0  4.121518  0
C  C134  1  0.75146331  0.07910138  0.49373812  1  1.522636  0  0.231361  0.575401  0  4.117117  0
C  C135  1  0.75082496  0.42787415  0.49085639  1  1.52433  0  0.231145  0.570959  0  4.122857  0
O  O136  1  0.00272876  0.50468121  0.99130947  1  -1.202632  0  -0.572911  -1.027948  0  2.542675  0
O  O137  1  0.17800844  0.62045895  0.94361876  1  -1.170515  0  -0.317891  -0.552624  0  2.355747  0
O  O138  1  0.89604288  0.45470345  0.19534260  1  -1.168622  0  -0.311374  -0.537071  0  2.319949  0
O  O139  1  0.06742950  0.32817263  0.03850938  1  -1.172214  0  -0.317275  -0.549387  0  2.354002  0
O  O140  1  0.05876923  0.61273947  0.05761838  1  -1.184282  0  -0.311752  -0.545126  0  2.353931  0
O  O141  1  0.18122802  0.44531848  0.95755143  1  -1.185138  0  -0.311944  -0.542705  0  2.3623  0
O  O142  1  0.91293051  0.33644587  0.18777326  1  -1.158458  0  -0.310319  -0.5365  0  2.348274  0
O  O143  1  0.88952356  0.33330074  0.04316363  1  -1.166482  0  -0.314602  -0.547325  0  2.387657  0
O  O144  1  0.05021395  0.60522472  0.78776358  1  -1.179428  0  -0.311419  -0.540774  0  2.307366  0
O  O145  1  0.88077346  0.44649841  0.93328678  1  -1.169421  0  -0.31541  -0.551069  0  2.320164  0
O  O146  1  0.17075922  0.59629604  0.80023952  1  -1.166972  0  -0.311089  -0.53852  0  2.350516  0
O  O147  1  0.88794479  0.62179231  0.04317305  1  -1.173746  0  -0.318185  -0.554328  0  2.355487  0
O  O148  1  0.88345351  0.61881903  0.93351107  1  -1.177015  0  -0.31256  -0.547918  0  2.342551  0
O  O149  1  0.50580071  0.00199468  0.99230626  1  -1.214853  0  -0.573512  -1.02912  0  2.546821  0
O  O150  1  0.32795059  0.06692207  0.03393634  1  -1.178688  0  -0.317309  -0.552276  0  2.344862  0
O  O151  1  0.59118168  0.17031737  0.79636271  1  -1.160235  0  -0.30986  -0.534744  0  2.348595  0
O  O152  1  0.44073225  0.88968253  0.93349043  1  -1.183736  0  -0.317763  -0.555464  0  2.341428  0
O  O153  1  0.44799081  0.17722546  0.95518101  1  -1.170327  0  -0.313391  -0.545861  0  2.365204  0
O  O154  1  0.32728921  0.88999431  0.04593044  1  -1.185118  0  -0.310805  -0.540204  0  2.371629  0
O  O155  1  0.60471905  0.05184994  0.78859495  1  -1.170675  0  -0.311441  -0.536963  0  2.320863  0
O  O156  1  0.61571584  0.88551114  0.93768256  1  -1.176738  0  -0.3117  -0.54432  0  2.368608  0
O  O157  1  0.46306519  0.89310483  0.19606997  1  -1.170291  0  -0.310113  -0.536726  0  2.298542  0
O  O158  1  0.62941330  0.88762851  0.04364879  1  -1.168143  0  -0.316798  -0.555023  0  2.331181  0
O  O159  1  0.34221790  0.91116736  0.18537254  1  -1.186879  0  -0.311662  -0.539346  0  2.358971  0
O  O160  1  0.63340362  0.17286406  0.93115634  1  -1.182529  0  -0.317887  -0.550213  0  2.36035  0
O  O161  1  0.62171700  0.05765284  0.05386153  1  -1.179661  0  -0.313498  -0.550676  0  2.336562  0
O  O162  1  0.48176190  0.83058662  0.44104363  1  -1.080141  0  -0.338312  -0.470914  0  2.193058  0
O  O163  1  0.46434613  0.69117949  0.53000461  1  -1.09993  0  -0.274891  -0.432201  0  2.024254  0
O  O164  1  0.03396577  0.78177190  0.54097875  1  -1.095599  0  -0.337198  -0.468967  0  2.193048  0
O  O165  1  0.04856353  0.72981750  0.45727514  1  -1.093312  0  -0.271459  -0.427883  0  2.02529  0
O  O166  1  0.66633016  0.03196329  0.55096183  1  -1.102058  0  -0.339532  -0.473133  0  2.189277  0
O  O167  1  0.80754687  0.04482870  0.47262789  1  -1.093547  0  -0.27469  -0.431744  0  2.020696  0
O  O168  1  0.72829170  0.47719708  0.42974943  1  -1.086416  0  -0.336381  -0.468271  0  2.193845  0
O  O169  1  0.78243195  0.46012913  0.51563210  1  -1.088804  0  -0.270935  -0.426203  0  2.023389  0
