# generated using pymatgen
data_Zn2PH21C14N4O7
_symmetry_space_group_name_H-M   'P 1'
_cell_length_a   9.83450196
_cell_length_b   13.92919958
_cell_length_c   15.48633059
_cell_angle_alpha   89.99994572
_cell_angle_beta   90.00000957
_cell_angle_gamma   89.69518079
_symmetry_Int_Tables_number   1
_chemical_formula_structural   Zn2PH21C14N4O7
_chemical_formula_sum   'Zn8 P4 H84 C56 N16 O28'
_cell_volume   2121.39192829
_cell_formula_units_Z   4
loop_
 _symmetry_equiv_pos_site_id
 _symmetry_equiv_pos_as_xyz
  1  'x, y, z'
loop_
 _atom_site_type_symbol
 _atom_site_label
 _atom_site_symmetry_multiplicity
 _atom_site_fract_x
 _atom_site_fract_y
 _atom_site_fract_z
 _atom_site_occupancy
 _atom_site_pbe_bader_charge
 _atom_site_pbe_bader_spin_density
 _atom_site_pbe_cm5_charge
 _atom_site_pbe_ddec_charge
 _atom_site_pbe_ddec_spin_density
 _atom_site_pbe_ddec_sum_bond_order
 _atom_site_pbe_magmom
Zn  Zn0  1  0.59825208  0.90266601  0.90476078  1  1.336859  0  0.692205  1.010222  0  2.255707  0
Zn  Zn1  1  0.90174700  0.59733389  0.40475998  1  1.336767  0  0.692188  1.01024  0  2.255722  0
Zn  Zn2  1  0.40174868  0.09733385  0.09523946  1  1.336869  0  0.692204  1.010224  0  2.255687  0
Zn  Zn3  1  0.09825172  0.40266598  0.59523961  1  1.336861  0  0.692196  1.010237  0  2.255732  0
Zn  Zn4  1  0.58305962  0.23134278  0.86151777  1  1.182748  0  0.691677  0.747219  0  2.31542  0
Zn  Zn5  1  0.91693912  0.26865719  0.36151746  1  1.182746  0  0.691668  0.747193  0  2.315418  0
Zn  Zn6  1  0.41694114  0.76865708  0.13848182  1  1.182717  0  0.691675  0.747238  0  2.315401  0
Zn  Zn7  1  0.08306063  0.73134268  0.63848212  1  1.182747  0  0.691668  0.747177  0  2.315453  0
P  P8  1  0.38312521  0.07042276  0.89352993  1  3.431329  0  0.321646  1.251209  0  5.472835  0
P  P9  1  0.11687325  0.42957747  0.39352946  1  3.431327  0  0.321685  1.251276  0  5.472918  0
P  P10  1  0.61687657  0.92957782  0.10647031  1  3.431208  0  0.321671  1.251232  0  5.47291  0
P  P11  1  0.88312447  0.57042240  0.60646949  1  3.431392  0  0.321666  1.251199  0  5.472832  0
H  H12  1  0.12966536  0.95964078  0.92264876  1  0.062135  0  0.105819  0.105571  0  1.013366  0
H  H13  1  0.37033141  0.54035726  0.42264930  1  0.062051  0  0.105832  0.105595  0  1.013327  0
H  H14  1  0.87033541  0.04035837  0.07735147  1  0.062154  0  0.105822  0.105556  0  1.013343  0
H  H15  1  0.62966426  0.45964333  0.57734965  1  0.062049  0  0.105817  0.105545  0  1.013365  0
H  H16  1  0.85913777  0.08607603  0.73578825  1  0.064798  0  0.10443  0.108728  0  1.003242  0
H  H17  1  0.64086094  0.41392336  0.23578974  1  0.064827  0  0.104436  0.108733  0  1.003278  0
H  H18  1  0.14086401  0.91392455  0.26421263  1  0.064771  0  0.10442  0.108706  0  1.003236  0
H  H19  1  0.35913881  0.58607651  0.76421179  1  0.06482  0  0.104432  0.10873  0  1.003229  0
H  H20  1  0.26788404  0.19149448  0.76075148  1  0.095636  0  0.107087  0.116637  0  1.003839  0
H  H21  1  0.23211438  0.30850446  0.26075113  1  0.095608  0  0.107123  0.116689  0  1.003739  0
H  H22  1  0.73211774  0.80850610  0.23924940  1  0.095646  0  0.107098  0.116625  0  1.003865  0
H  H23  1  0.76788536  0.69149469  0.73924911  1  0.095628  0  0.107126  0.116684  0  1.003801  0
H  H24  1  0.78259476  0.34168697  0.66352054  1  0.080814  0  0.102756  0.087587  0  1.014883  0
H  H25  1  0.71740391  0.15831393  0.16352031  1  0.080813  0  0.102762  0.087594  0  1.014857  0
H  H26  1  0.21740396  0.65831362  0.33647905  1  0.080828  0  0.102754  0.08758  0  1.014897  0
H  H27  1  0.28259584  0.84168522  0.83647928  1  0.0804  0  0.102753  0.087562  0  1.014932  0
H  H28  1  0.83551526  0.25733902  0.74216154  1  0.046451  0  0.100002  0.064128  0  1.047512  0
H  H29  1  0.66448445  0.24266251  0.24216059  1  0.046435  0  0.10001  0.064114  0  1.047501  0
H  H30  1  0.16448448  0.74266156  0.25783805  1  0.046441  0  0.100004  0.064101  0  1.047513  0
H  H31  1  0.33551530  0.75733736  0.75783835  1  0.046432  0  0.099987  0.064108  0  1.047505  0
H  H32  1  0.87271000  0.42495704  0.79058870  1  0.075979  0  0.106554  0.095189  0  0.959539  0
H  H33  1  0.62728770  0.07504445  0.29058917  1  0.076063  0  0.106556  0.0952  0  0.959544  0
H  H34  1  0.12728975  0.57504355  0.20941089  1  0.076089  0  0.106553  0.09518  0  0.959533  0
H  H35  1  0.37271001  0.92495614  0.70941171  1  0.076092  0  0.106544  0.095191  0  0.95954  0
H  H36  1  0.69806931  0.45027943  0.77747195  1  0.064188  0  0.104409  0.082651  0  1.038602  0
H  H37  1  0.80192839  0.04972063  0.27747182  1  0.064152  0  0.104402  0.082634  0  1.03864  0
H  H38  1  0.30192942  0.54972044  0.22252829  1  0.064124  0  0.104414  0.082658  0  1.038584  0
H  H39  1  0.19807035  0.95027780  0.72252841  1  0.064054  0  0.104408  0.082648  0  1.038669  0
H  H40  1  0.45225455  0.48233023  0.93942636  1  0.040945  0  0.099737  0.071224  0  1.030527  0
H  H41  1  0.04774392  0.01766925  0.43942623  1  0.040958  0  0.099738  0.071213  0  1.030524  0
H  H42  1  0.54774520  0.51766892  0.06057452  1  0.040958  0  0.099736  0.07123  0  1.030518  0
H  H43  1  0.95225583  0.98233062  0.56057465  1  0.040973  0  0.099733  0.071205  0  1.03055  0
H  H44  1  0.49939264  0.44324008  0.83571104  1  0.049698  0  0.101994  0.075753  0  1.016587  0
H  H45  1  0.00060681  0.05676022  0.33571023  1  0.049693  0  0.102029  0.075803  0  1.016477  0
H  H46  1  0.50060710  0.55675979  0.16428919  1  0.049692  0  0.102005  0.075762  0  1.01656  0
H  H47  1  0.99939293  0.94323965  0.66428936  1  0.049686  0  0.101996  0.075764  0  1.016569  0
H  H48  1  0.69855474  0.50200450  0.92450869  1  0.028592  0  0.101267  0.082456  0  0.968069  0
H  H49  1  0.80144333  0.99799610  0.42450818  1  0.028655  0  0.101269  0.082459  0  0.96804  0
H  H50  1  0.30144501  0.49799537  0.07549090  1  0.028588  0  0.101269  0.082459  0  0.968043  0
H  H51  1  0.19855539  0.00200448  0.57549141  1  0.028597  0  0.101267  0.082446  0  0.968075  0
H  H52  1  0.66531925  0.40839479  0.00016775  1  0.073657  0  0.109745  0.091522  0  1.011014  0
H  H53  1  0.83467938  0.09160556  0.50016691  1  0.073664  0  0.10975  0.091518  0  1.01102  0
H  H54  1  0.33468049  0.59160507  0.99983248  1  0.073654  0  0.109743  0.091504  0  1.011022  0
H  H55  1  0.16531935  0.90839431  0.49983268  1  0.073662  0  0.10976  0.091515  0  1.010988  0
H  H56  1  0.89602784  0.20524482  0.02146986  1  0.070657  0  0.102436  0.084614  0  0.986617  0
H  H57  1  0.60397182  0.29475550  0.52147140  1  0.070628  0  0.102432  0.084576  0  0.986573  0
H  H58  1  0.10397292  0.79475504  0.97852908  1  0.070637  0  0.102439  0.084599  0  0.986575  0
H  H59  1  0.39602996  0.70524508  0.47852948  1  0.070637  0  0.102436  0.084586  0  0.986592  0
H  H60  1  0.74650967  0.27331085  0.04364486  1  0.076723  0  0.104089  0.082263  0  1.012235  0
H  H61  1  0.75349000  0.22668802  0.54364454  1  0.07672  0  0.104103  0.082276  0  1.012208  0
H  H62  1  0.25349110  0.72668902  0.95635472  1  0.076713  0  0.104097  0.082269  0  1.012253  0
H  H63  1  0.24651279  0.77331184  0.45635505  1  0.076727  0  0.104073  0.082276  0  1.012248  0
H  H64  1  0.91555465  0.36924063  0.96033390  1  0.031152  0  0.097189  0.071196  0  0.968102  0
H  H65  1  0.58444411  0.13075996  0.46033433  1  0.031153  0  0.097186  0.071196  0  0.968135  0
H  H66  1  0.08444611  0.63075924  0.03966568  1  0.031156  0  0.097199  0.071228  0  0.968066  0
H  H67  1  0.41555563  0.86924135  0.53966655  1  0.03114  0  0.097175  0.071189  0  0.968139  0
H  H68  1  0.91894342  0.28051891  0.87826415  1  0.067577  0  0.109893  0.093633  0  0.98307  0
H  H69  1  0.58105531  0.21948247  0.37826450  1  0.067581  0  0.109903  0.093636  0  0.983047  0
H  H70  1  0.08105633  0.71948095  0.12173480  1  0.067586  0  0.10991  0.093659  0  0.983029  0
H  H71  1  0.41894443  0.78051883  0.62173574  1  0.067564  0  0.109889  0.093632  0  0.983055  0
H  H72  1  0.45453406  0.31287625  0.98467989  1  0.482809  0  0.290086  0.297415  0  0.98071  0
H  H73  1  0.04546544  0.18712318  0.48467897  1  0.482853  0  0.29007  0.297306  0  0.980779  0
H  H74  1  0.54546569  0.68712290  0.01532099  1  0.482848  0  0.290104  0.29742  0  0.980719  0
H  H75  1  0.95453431  0.81287669  0.51532062  1  0.48285  0  0.290073  0.297296  0  0.980778  0
H  H76  1  0.35682054  0.32287020  0.89775161  1  0.443303  0  0.311575  0.299189  0  0.906709  0
H  H77  1  0.14317893  0.17713004  0.39775135  1  0.443297  0  0.31158  0.299198  0  0.906689  0
H  H78  1  0.64318022  0.67712895  0.10224863  1  0.443293  0  0.311628  0.299278  0  0.906638  0
H  H79  1  0.85682082  0.82286983  0.60224888  1  0.4433  0  0.311573  0.299172  0  0.906701  0
H  H80  1  0.76711150  0.11521682  0.91749041  1  0.440714  0  0.284308  0.27608  0  0.996434  0
H  H81  1  0.73288928  0.38478381  0.41749129  1  0.440716  0  0.284304  0.27608  0  0.996424  0
H  H82  1  0.23289029  0.88478233  0.08250917  1  0.440728  0  0.284324  0.276105  0  0.996407  0
H  H83  1  0.26711148  0.61521678  0.58250830  1  0.440726  0  0.284307  0.276067  0  0.996446  0
H  H84  1  0.55027024  0.30762016  0.70198285  1  0.485866  0  0.28332  0.285466  0  0.995012  0
H  H85  1  0.94972947  0.19237926  0.20198261  1  0.485856  0  0.283314  0.285461  0  0.994982  0
H  H86  1  0.44972950  0.69237971  0.29801739  1  0.485859  0  0.283315  0.285456  0  0.994977  0
H  H87  1  0.05027028  0.80761917  0.79801698  1  0.485991  0  0.283338  0.285482  0  0.994987  0
H  H88  1  0.62503630  0.20249988  0.70064494  1  0.411868  0  0.307073  0.293961  0  0.910917  0
H  H89  1  0.87496340  0.29750098  0.20064526  1  0.411832  0  0.307057  0.293939  0  0.910925  0
H  H90  1  0.37496344  0.79750070  0.29935400  1  0.411843  0  0.307063  0.293947  0  0.910926  0
H  H91  1  0.12503634  0.70249889  0.79935433  1  0.411824  0  0.307075  0.293996  0  0.910861  0
H  H92  1  0.65988256  0.13248026  0.99595896  1  0.46917  0  0.29187  0.291275  0  0.973275  0
H  H93  1  0.84011825  0.36751885  0.49595921  1  0.469171  0  0.291882  0.291287  0  0.9733  0
H  H94  1  0.34011820  0.86751961  0.00404063  1  0.469159  0  0.291875  0.291286  0  0.973302  0
H  H95  1  0.15988353  0.63248173  0.50403973  1  0.469166  0  0.291892  0.29129  0  0.973263  0
C  C96  1  0.21407211  0.07574064  0.84716193  1  -0.515196  0  -0.02201  -0.164237  0  3.988345  0
C  C97  1  0.28592532  0.42425750  0.34716148  1  -0.515196  0  -0.021972  -0.164184  0  3.98834  0
C  C98  1  0.78592966  0.92425922  0.15283895  1  -0.515707  0  -0.022034  -0.164291  0  3.988367  0
C  C99  1  0.71407240  0.57574166  0.65283746  1  -0.515363  0  -0.021979  -0.164128  0  3.988279  0
C  C100  1  0.11057573  0.01343732  0.87293823  1  -0.077051  0  -0.07834  -0.085404  0  3.949427  0
C  C101  1  0.38942171  0.48656151  0.37293903  1  -0.076986  0  -0.078403  -0.085519  0  3.949387  0
C  C102  1  0.88942504  0.98656254  0.12706200  1  -0.077044  0  -0.078333  -0.085362  0  3.949346  0
C  C103  1  0.61057499  0.51343837  0.62706056  1  -0.076977  0  -0.078352  -0.085417  0  3.949409  0
C  C104  1  0.98232179  0.01780885  0.83382701  1  0.020498  0  -0.023338  -0.044133  0  4.002145  0
C  C105  1  0.51767593  0.48219043  0.33382777  1  0.020407  0  -0.023318  -0.044091  0  4.002047  0
C  C106  1  0.01767897  0.98219173  0.16617323  1  0.020493  0  -0.023327  -0.04414  0  4.002131  0
C  C107  1  0.48232382  0.51781016  0.66617246  1  0.020573  0  -0.023303  -0.044093  0  4.002059  0
C  C108  1  0.95795397  0.08460102  0.76780876  1  -0.078474  0  -0.088382  -0.14212  0  3.983248  0
C  C109  1  0.54204475  0.41539762  0.26780893  1  -0.078471  0  -0.088378  -0.142095  0  3.983236  0
C  C110  1  0.04204679  0.91539885  0.23219212  1  -0.078466  0  -0.088385  -0.142081  0  3.98325  0
C  C111  1  0.45795602  0.58460153  0.73219130  1  -0.078556  0  -0.088386  -0.142121  0  3.983217  0
C  C112  1  0.06093081  0.14708366  0.74149838  1  -0.016707  0  -0.020542  -0.035475  0  4.001211  0
C  C113  1  0.43906863  0.35291531  0.24149930  1  -0.016712  0  -0.02054  -0.035506  0  4.001103  0
C  C114  1  0.93906996  0.85291621  0.25850250  1  -0.016913  0  -0.020545  -0.035496  0  4.001279  0
C  C115  1  0.56093214  0.64708312  0.75850158  1  -0.016724  0  -0.020538  -0.035453  0  4.001151  0
C  C116  1  0.18771525  0.14337507  0.78235700  1  -0.091267  0  -0.077895  -0.089223  0  3.942262  0
C  C117  1  0.31228318  0.35662386  0.28235791  1  -0.09129  0  -0.07795  -0.089289  0  3.942127  0
C  C118  1  0.81228551  0.85662480  0.21764388  1  -0.090604  0  -0.077871  -0.089142  0  3.942253  0
C  C119  1  0.68771555  0.64337530  0.71764233  1  -0.09128  0  -0.077968  -0.089369  0  3.942298  0
C  C120  1  0.87446822  0.94670053  0.85895264  1  1.590373  0  0.205223  0.574549  0  4.231689  0
C  C121  1  0.62552882  0.55329871  0.35895442  1  1.590519  0  0.205333  0.57466  0  4.231543  0
C  C122  1  0.12553254  0.05329934  0.14104760  1  1.590365  0  0.205221  0.574574  0  4.231689  0
C  C123  1  0.37446889  0.44670188  0.64104710  1  1.59038  0  0.20529  0.574692  0  4.231522  0
C  C124  1  0.04083735  0.21641066  0.66796641  1  1.585581  0  0.205393  0.577125  0  4.246956  0
C  C125  1  0.45916308  0.28358838  0.16796739  1  1.585589  0  0.205397  0.577148  0  4.246838  0
C  C126  1  0.95916341  0.78358920  0.33203383  1  1.585673  0  0.205373  0.577099  0  4.24702  0
C  C127  1  0.54083870  0.71641149  0.83203285  1  1.585316  0  0.205393  0.577112  0  4.246799  0
C  C128  1  0.75933532  0.31265204  0.72770812  1  0.264103  0  -0.082007  -0.020856  0  3.928843  0
C  C129  1  0.74066338  0.18734879  0.22770787  1  0.264077  0  -0.081992  -0.020829  0  3.92878  0
C  C130  1  0.24066443  0.68734783  0.27229082  1  0.264104  0  -0.081987  -0.02083  0  3.928924  0
C  C131  1  0.25933535  0.81265108  0.77229172  1  0.264522  0  -0.081986  -0.020819  0  3.928904  0
C  C132  1  0.77034391  0.39299588  0.79399881  1  0.244168  0  -0.070586  -0.095083  0  3.903604  0
C  C133  1  0.72965379  0.10700560  0.29399862  1  0.244142  0  -0.070587  -0.095079  0  3.903722  0
C  C134  1  0.22965584  0.60700470  0.20600078  1  0.244194  0  -0.07057  -0.095065  0  3.903648  0
C  C135  1  0.27034494  0.89299499  0.70600161  1  0.244283  0  -0.070549  -0.095074  0  3.903642  0
C  C136  1  0.50898585  0.42639544  0.90469059  1  0.290781  0  -0.07608  -0.009535  0  3.9189  0
C  C137  1  0.99101391  0.07360520  0.40469046  1  0.290794  0  -0.076085  -0.009542  0  3.918717  0
C  C138  1  0.49101491  0.57360443  0.09530964  1  0.290788  0  -0.076039  -0.009453  0  3.918759  0
C  C139  1  0.00898482  0.92639538  0.59531042  1  0.290783  0  -0.076093  -0.009551  0  3.918875  0
C  C140  1  0.65852091  0.42835158  0.93161305  1  0.277362  0  -0.06971  -0.100336  0  3.915825  0
C  C141  1  0.84147784  0.07164904  0.43161291  1  0.277307  0  -0.069739  -0.100367  0  3.915839  0
C  C142  1  0.34147884  0.57164829  0.06838654  1  0.277378  0  -0.069712  -0.100326  0  3.915787  0
C  C143  1  0.15852190  0.92835011  0.56838732  1  0.277377  0  -0.069718  -0.100338  0  3.915909  0
C  C144  1  0.80595723  0.23919661  0.99182883  1  0.255297  0  -0.075827  -0.013858  0  3.905773  0
C  C145  1  0.69404256  0.26080322  0.49182915  1  0.255318  0  -0.075841  -0.01384  0  3.90566  0
C  C146  1  0.19404354  0.76080326  0.00817141  1  0.255329  0  -0.075844  -0.013854  0  3.905745  0
C  C147  1  0.30595820  0.73919736  0.50817108  1  0.255293  0  -0.075792  -0.013812  0  3.905807  0
C  C148  1  0.85298446  0.31483511  0.92681404  1  0.267829  0  -0.064987  -0.085021  0  3.919151  0
C  C149  1  0.64701531  0.18516551  0.42681378  1  0.267809  0  -0.064998  -0.085038  0  3.919212  0
C  C150  1  0.14701529  0.68516548  0.07318555  1  0.267819  0  -0.065009  -0.085061  0  3.919127  0
C  C151  1  0.35298545  0.81483507  0.57318581  1  0.267828  0  -0.064993  -0.08505  0  3.91921  0
N  N152  1  0.73765851  0.35854185  0.88111759  1  -1.067626  0  -0.345784  -0.124667  0  3.536847  0
N  N153  1  0.76234023  0.14145882  0.38111738  1  -1.067635  0  -0.345759  -0.124633  0  3.536927  0
N  N154  1  0.26234226  0.64145730  0.11888265  1  -1.067713  0  -0.345821  -0.124718  0  3.536911  0
N  N155  1  0.23765850  0.85854248  0.61888221  1  -1.067706  0  -0.345778  -0.124625  0  3.536844  0
N  N156  1  0.45426049  0.32935016  0.91955471  1  -1.183827  0  -0.625917  -0.552783  0  3.390741  0
N  N157  1  0.04573899  0.17064933  0.41955445  1  -1.183824  0  -0.625942  -0.552709  0  3.390685  0
N  N158  1  0.54574129  0.67064899  0.08044488  1  -1.183794  0  -0.626041  -0.552985  0  3.390735  0
N  N159  1  0.95426076  0.82934982  0.58044578  1  -1.183832  0  -0.625907  -0.552624  0  3.390719  0
N  N160  1  0.62446425  0.26663263  0.73263248  1  -1.151481  0  -0.622093  -0.550799  0  3.361788  0
N  N161  1  0.87553445  0.23336747  0.23263220  1  -1.151429  0  -0.622089  -0.55077  0  3.36172  0
N  N162  1  0.37553550  0.73336723  0.26736776  1  -1.151441  0  -0.622077  -0.550758  0  3.361742  0
N  N163  1  0.12446428  0.76663168  0.76736803  1  -1.151576  0  -0.622123  -0.55083  0  3.361753  0
N  N164  1  0.71563755  0.16863261  0.95010044  1  -1.169512  0  -0.629223  -0.553979  0  3.376652  0
N  N165  1  0.78436324  0.33136798  0.45010071  1  -1.169518  0  -0.629221  -0.553972  0  3.37662  0
N  N166  1  0.28436321  0.83136798  0.04989915  1  -1.169521  0  -0.629234  -0.553993  0  3.376628  0
N  N167  1  0.21563854  0.66863260  0.54989823  1  -1.16951  0  -0.629244  -0.553963  0  3.376669  0
O  O168  1  0.41429772  0.96348329  0.91229255  1  -1.451751  0  -0.377557  -0.765249  0  2.329437  0
O  O169  1  0.08570209  0.53651619  0.41229241  1  -1.451742  0  -0.377586  -0.765293  0  2.32947  0
O  O170  1  0.58570406  0.03651658  0.08770769  1  -1.451762  0  -0.377564  -0.765242  0  2.329462  0
O  O171  1  0.91429664  0.46348296  0.58770718  1  -1.451754  0  -0.37754  -0.765223  0  2.329471  0
O  O172  1  0.37617330  0.13381294  0.97498044  1  -1.443365  0  -0.391482  -0.776986  0  2.358315  0
O  O173  1  0.12382518  0.36618578  0.47498002  1  -1.44336  0  -0.391514  -0.777051  0  2.358307  0
O  O174  1  0.62382848  0.86618620  0.02501979  1  -1.443275  0  -0.391484  -0.776988  0  2.358311  0
O  O175  1  0.87617253  0.63381409  0.52501827  1  -1.443284  0  -0.391534  -0.777033  0  2.358292  0
O  O176  1  0.47932179  0.11327991  0.82587283  1  -1.453954  0  -0.398013  -0.745961  0  2.274721  0
O  O177  1  0.02067664  0.38672040  0.32587303  1  -1.453976  0  -0.398003  -0.74594  0  2.274833  0
O  O178  1  0.52067897  0.88671996  0.17412741  1  -1.453938  0  -0.39803  -0.74599  0  2.27477  0
O  O179  1  0.97932209  0.61328018  0.67412656  1  -1.453929  0  -0.398001  -0.745956  0  2.274725  0
O  O180  1  0.90625578  0.86022348  0.86815046  1  -1.175699  0  -0.321851  -0.54496  0  2.112624  0
O  O181  1  0.59374126  0.63977503  0.36815411  1  -1.175685  0  -0.321909  -0.54497  0  2.112466  0
O  O182  1  0.09374600  0.13977638  0.13184977  1  -1.175684  0  -0.321844  -0.544974  0  2.112664  0
O  O183  1  0.40625543  0.36022485  0.63185000  1  -1.175649  0  -0.321887  -0.545027  0  2.112574  0
O  O184  1  0.75409777  0.98393103  0.86835897  1  -1.174312  0  -0.324123  -0.574219  0  2.339018  0
O  O185  1  0.74590130  0.51606819  0.36835887  1  -1.174243  0  -0.324131  -0.574299  0  2.339036  0
O  O186  1  0.24590299  0.01606811  0.13164126  1  -1.174329  0  -0.324127  -0.574249  0  2.338991  0
O  O187  1  0.25409742  0.48393240  0.63164007  1  -1.174328  0  -0.324138  -0.574282  0  2.338967  0
O  O188  1  0.97906790  0.18948313  0.60114173  1  -1.19555  0  -0.327088  -0.569499  0  2.161168  0
O  O189  1  0.52093280  0.31051711  0.10114200  1  -1.195496  0  -0.327082  -0.569521  0  2.161084  0
O  O190  1  0.02093287  0.81051673  0.39885915  1  -1.195576  0  -0.327078  -0.569504  0  2.161224  0
O  O191  1  0.47906796  0.68948419  0.89885824  1  -1.195531  0  -0.327094  -0.569494  0  2.161046  0
O  O192  1  0.09164371  0.29999584  0.68191093  1  -1.163918  0  -0.328945  -0.572478  0  2.33659  0
O  O193  1  0.40835672  0.20000318  0.18191133  1  -1.163954  0  -0.328971  -0.5725  0  2.336567  0
O  O194  1  0.90835705  0.70000474  0.31808866  1  -1.163908  0  -0.328954  -0.572474  0  2.3366  0
O  O195  1  0.59164506  0.79999668  0.81808890  1  -1.163674  0  -0.328967  -0.572499  0  2.336547  0
