# generated using pymatgen
data_ZnH12C17N3O4
_symmetry_space_group_name_H-M   'P 1'
_cell_length_a   8.64770986
_cell_length_b   9.75902789
_cell_length_c   11.66332669
_cell_angle_alpha   101.85416811
_cell_angle_beta   101.75084971
_cell_angle_gamma   115.36210097
_symmetry_Int_Tables_number   1
_chemical_formula_structural   ZnH12C17N3O4
_chemical_formula_sum   'Zn2 H24 C34 N6 O8'
_cell_volume   821.77100058
_cell_formula_units_Z   2
loop_
 _symmetry_equiv_pos_site_id
 _symmetry_equiv_pos_as_xyz
  1  'x, y, z'
loop_
 _atom_site_type_symbol
 _atom_site_label
 _atom_site_symmetry_multiplicity
 _atom_site_fract_x
 _atom_site_fract_y
 _atom_site_fract_z
 _atom_site_occupancy
 _atom_site_pbe_bader_spin_density
 _atom_site_pbe_cm5_charge
 _atom_site_pbe_ddec_charge
 _atom_site_pbe_ddec_spin_density
 _atom_site_pbe_ddec_sum_bond_order
 _atom_site_pbe_magmom
Zn  Zn0  1  0.25741778  0.37209501  0.49655803  1  0  0.714388  0.878977  0  2.346253  0
Zn  Zn1  1  0.74257926  0.62790437  0.50344109  1  0  0.714383  0.878919  0  2.346352  0
H  H2  1  0.87561562  0.34476351  0.32992692  1  0  0.151186  0.144931  0  0.996334  0
H  H3  1  0.12438247  0.65523347  0.67006938  1  0  0.151197  0.144964  0  0.996316  0
H  H4  1  0.68932810  0.84573127  0.25663396  1  0  0.138969  0.112017  0  1.034917  0
H  H5  1  0.31066876  0.15426570  0.74336558  1  0  0.138977  0.112037  0  1.034913  0
H  H6  1  0.40762083  0.82801343  0.22961554  1  0  0.107799  0.11337  0  1.014158  0
H  H7  1  0.59237708  0.17198114  0.77038118  1  0  0.107825  0.113387  0  1.014112  0
H  H8  1  0.10712325  0.76361004  0.09533117  1  0  0.102176  0.104397  0  1.000866  0
H  H9  1  0.89287348  0.23638454  0.90466537  1  0  0.102159  0.10441  0  1.000818  0
H  H10  1  0.35771817  0.19747338  0.00680315  1  0  0.097003  0.095742  0  1.034437  0
H  H11  1  0.64228009  0.80252837  0.99320343  1  0  0.096983  0.095686  0  1.034501  0
H  H12  1  0.65852547  0.26030736  0.13796488  1  0  0.105673  0.112559  0  1.040623  0
H  H13  1  0.34147032  0.73969201  0.86203833  1  0  0.105679  0.112594  0  1.040534  0
H  H14  1  0.92595318  0.81804230  0.94385243  1  0  0.092591  0.093848  0  0.990087  0
H  H15  1  0.07404384  0.18195708  0.05614754  1  0  0.092571  0.093821  0  0.990157  0
H  H16  1  0.03208404  0.96299145  0.87565857  1  0  0.090797  0.092543  0  1.008224  0
H  H17  1  0.96791483  0.03700913  0.12434190  1  0  0.090803  0.092525  0  1.008215  0
H  H18  1  0.20020327  0.48884232  0.94732050  1  0  0.10335  0.103743  0  1.009222  0
H  H19  1  0.79980104  0.51115945  0.05267760  1  0  0.103383  0.103787  0  1.009252  0
H  H20  1  0.62407996  0.45145252  0.83078188  1  0  0.107295  0.115997  0  0.994869  0
H  H21  1  0.37592756  0.54855286  0.16921563  1  0  0.107303  0.115974  0  0.994923  0
H  H22  1  0.18843514  0.76496961  0.42618130  1  0  0.104261  0.116444  0  1.012998  0
H  H23  1  0.81156797  0.23503216  0.57381747  1  0  0.104243  0.116417  0  1.012999  0
H  H24  1  0.76672024  0.97019597  0.58979586  1  0  0.10097  0.100812  0  1.052205  0
H  H25  1  0.23328105  0.02980462  0.41020071  1  0  0.101001  0.100854  0  1.052172  0
C  C26  1  0.87206032  0.23109286  0.32725993  1  0  0.177091  0.11216  0  3.82094  0
C  C27  1  0.12793823  0.76890291  0.67273881  1  0  0.177014  0.111997  0  3.820922  0
C  C28  1  0.77753821  0.97482330  0.29000032  1  0  0.159164  0.084364  0  3.915014  0
C  C29  1  0.22246233  0.02517606  0.71000106  1  0  0.159112  0.084303  0  3.914915  0
C  C30  1  0.55043891  0.04691357  0.19038283  1  0  0.090074  0.155978  0  4.023438  0
C  C31  1  0.44955913  0.95308339  0.80961689  1  0  0.090073  0.156004  0  4.023406  0
C  C32  1  0.39667831  0.90673624  0.17828566  1  0  -0.088199  -0.154599  0  3.997747  0
C  C33  1  0.60331840  0.09325832  0.82171259  1  0  -0.088238  -0.154639  0  3.997827  0
C  C34  1  0.22802359  0.87173579  0.10313944  1  0  -0.086659  -0.118208  0  3.96289  0
C  C35  1  0.77197077  0.12825879  0.89685844  1  0  -0.08663  -0.118198  0  3.96286  0
C  C36  1  0.21110567  0.97521372  0.04049661  1  0  -0.00809  0.118343  0  3.966079  0
C  C37  1  0.78888997  0.02478324  0.95950530  1  0  -0.008137  0.118222  0  3.966138  0
C  C38  1  0.36806348  0.11535644  0.05479026  1  0  -0.089236  -0.118121  0  3.96858  0
C  C39  1  0.63193414  0.88464412  0.94521430  1  0  -0.089149  -0.11794  0  3.968596  0
C  C40  1  0.53749511  0.15178331  0.12859922  1  0  -0.087741  -0.150668  0  3.980447  0
C  C41  1  0.46250354  0.84821483  0.87140423  1  0  -0.087774  -0.150761  0  3.980369  0
C  C42  1  0.02914407  0.94377855  0.96514422  1  0  -0.156845  -0.187835  0  3.939485  0
C  C43  1  0.97085362  0.05622203  0.03485607  1  0  -0.156852  -0.187776  0  3.939528  0
C  C44  1  0.29673110  0.43133014  0.74436331  1  0  0.201741  0.566926  0  4.220815  0
C  C45  1  0.70327334  0.56867403  0.25563694  1  0  0.201709  0.566908  0  4.220829  0
C  C46  1  0.40070378  0.46438988  0.87631922  1  0  -0.016017  -0.031097  0  3.962657  0
C  C47  1  0.59930506  0.53561790  0.12368063  1  0  -0.015992  -0.031055  0  3.962542  0
C  C48  1  0.33140478  0.49342510  0.97168450  1  0  -0.085005  -0.103665  0  3.991666  0
C  C49  1  0.66860205  0.50657907  0.02831442  1  0  -0.085074  -0.103776  0  3.991812  0
C  C50  1  0.57044065  0.47153503  0.90564943  1  0  -0.086035  -0.10833  0  3.982189  0
C  C51  1  0.42956551  0.52846794  0.09434917  1  0  -0.086112  -0.108392  0  3.982124  0
C  C52  1  0.32417041  0.86886802  0.45891367  1  0  -0.087463  -0.102581  0  3.957642  0
C  C53  1  0.67582842  0.13113255  0.54108936  1  0  -0.087453  -0.102588  0  3.957638  0
C  C54  1  0.47445307  0.85235982  0.50996366  1  0  -0.019453  -0.04562  0  3.972777  0
C  C55  1  0.52554765  0.14764195  0.49003730  1  0  -0.019442  -0.045559  0  3.972707  0
C  C56  1  0.65050921  0.98380068  0.55066553  1  0  -0.083379  -0.085388  0  3.957613  0
C  C57  1  0.34949136  0.01619869  0.44933415  1  0  -0.083391  -0.08545  0  3.957557  0
C  C58  1  0.44697298  0.69557826  0.52335825  1  0  0.218921  0.596945  0  4.15745  0
C  C59  1  0.55302769  0.30442350  0.47664528  1  0  0.21894  0.596926  0  4.157398  0
N  N60  1  0.00640508  0.21154660  0.38428721  1  0  -0.242379  -0.197108  0  3.570413  0
N  N61  1  0.99359365  0.78845158  0.61571111  1  0  -0.242359  -0.196976  0  3.570285  0
N  N62  1  0.94814037  0.05007093  0.36104973  1  0  -0.214638  -0.180551  0  3.188162  0
N  N63  1  0.05185716  0.94992724  0.63895012  1  0  -0.21462  -0.180564  0  3.188046  0
N  N64  1  0.72407656  0.08289301  0.26554576  1  0  -0.21239  -0.017288  0  3.783226  0
N  N65  1  0.27592014  0.91710156  0.73445248  1  0  -0.212326  -0.017212  0  3.783155  0
O  O66  1  0.34836316  0.36647719  0.66193425  1  0  -0.33261  -0.56288  0  2.338154  0
O  O67  1  0.65164130  0.63352698  0.33806515  1  0  -0.332546  -0.562842  0  2.338142  0
O  O68  1  0.17371417  0.46684350  0.72071454  1  0  -0.324369  -0.556695  0  2.123266  0
O  O69  1  0.82628908  0.53316067  0.27928639  1  0  -0.324409  -0.556714  0  2.12326  0
O  O70  1  0.28441964  0.57755849  0.47896459  1  0  -0.312267  -0.533061  0  2.311212  0
O  O71  1  0.71557994  0.42244330  0.52103363  1  0  -0.312287  -0.53306  0  2.311229  0
O  O72  1  0.58227046  0.68570774  0.58031131  1  0  -0.330618  -0.566329  0  2.3414  0
O  O73  1  0.41773094  0.31429524  0.41968912  1  0  -0.330623  -0.566309  0  2.341291  0
