# generated using pymatgen
data_CdH10C14(SN4)2
_symmetry_space_group_name_H-M   'P 1'
_cell_length_a   7.27022774
_cell_length_b   9.04115625
_cell_length_c   13.16622985
_cell_angle_alpha   110.07533696
_cell_angle_beta   101.92002199
_cell_angle_gamma   89.99738964
_symmetry_Int_Tables_number   1
_chemical_formula_structural   CdH10C14(SN4)2
_chemical_formula_sum   'Cd2 H20 C28 S4 N16'
_cell_volume   792.95614963
_cell_formula_units_Z   2
loop_
 _symmetry_equiv_pos_site_id
 _symmetry_equiv_pos_as_xyz
  1  'x, y, z'
loop_
 _atom_site_type_symbol
 _atom_site_label
 _atom_site_symmetry_multiplicity
 _atom_site_fract_x
 _atom_site_fract_y
 _atom_site_fract_z
 _atom_site_occupancy
 _atom_site_hle17_bader_spin_density
 _atom_site_hle17_ddec_charge
 _atom_site_hle17_ddec_spin_density
 _atom_site_hle17_ddec_sum_bond_order
 _atom_site_hle17_magmom
 _atom_site_hse06_10hf_bader_spin_density
 _atom_site_hse06_10hf_ddec_charge
 _atom_site_hse06_10hf_ddec_spin_density
 _atom_site_hse06_10hf_ddec_sum_bond_order
 _atom_site_hse06_10hf_magmom
 _atom_site_hse06_bader_spin_density
 _atom_site_hse06_ddec_charge
 _atom_site_hse06_ddec_spin_density
 _atom_site_hse06_ddec_sum_bond_order
 _atom_site_hse06_magmom
 _atom_site_pbe_bader_spin_density
 _atom_site_pbe_cm5_charge
 _atom_site_pbe_ddec_charge
 _atom_site_pbe_ddec_spin_density
 _atom_site_pbe_ddec_sum_bond_order
 _atom_site_pbe_magmom
Cd  Cd0  1  0.74995977  0.60473570  0.99993635  1  0  0.839946  0  1.988595  0  0  0.652535  0  2.475589  0  0  0.694725  0  2.440195  0  0  0.644219  0.622923  0  2.499714  0
Cd  Cd1  1  0.25004365  0.39526027  0.00006319  1  0  0.839972  0  1.988576  0  0  0.652576  0  2.475534  0  0  0.694769  0  2.440139  0  0  0.644227  0.622964  0  2.49966  0
H  H2  1  0.18735274  0.92039108  0.85203537  1  0  0.104615  0  0.964884  0  0  0.112009  0  1.032276  0  0  0.115146  0  1.030628  0  0  0.093907  0.10966  0  1.033633  0
H  H3  1  0.31252584  0.06894188  0.14778348  1  0  0.104448  0  0.965195  0  0  0.112217  0  1.032107  0  0  0.115348  0  1.030458  0  0  0.093979  0.109913  0  1.033412  0
H  H4  1  0.81265263  0.07961080  0.14796580  1  0  0.104643  0  0.964844  0  0  0.112034  0  1.032225  0  0  0.115193  0  1.030551  0  0  0.093917  0.109685  0  1.033585  0
H  H5  1  0.68747231  0.93105765  0.85221325  1  0  0.104352  0  0.965286  0  0  0.112111  0  1.0322  0  0  0.115243  0  1.030553  0  0  0.09392  0.109809  0  1.033506  0
H  H6  1  0.10903830  0.13114928  0.77142415  1  0  0.074729  0  0.995093  0  0  0.07769  0  1.075162  0  0  0.080232  0  1.073472  0  0  0.086679  0.075815  0  1.076484  0
H  H7  1  0.39128098  0.36023841  0.22853100  1  0  0.073963  0  0.996092  0  0  0.077014  0  1.076266  0  0  0.079553  0  1.074603  0  0  0.086701  0.075146  0  1.07757  0
H  H8  1  0.89096004  0.86885260  0.22857696  1  0  0.074755  0  0.995062  0  0  0.077699  0  1.07515  0  0  0.080241  0  1.073459  0  0  0.086671  0.075821  0  1.076473  0
H  H9  1  0.60871705  0.63975993  0.77146696  1  0  0.073958  0  0.996121  0  0  0.077011  0  1.076285  0  0  0.079548  0  1.074625  0  0  0.086716  0.075143  0  1.077589  0
H  H10  1  0.91190512  0.06485114  0.58293593  1  0  0.087977  0  0.963189  0  0  0.097171  0  1.028914  0  0  0.099451  0  1.02818  0  0  0.09961  0.09551  0  1.029509  0
H  H11  1  0.58827621  0.48211956  0.41706804  1  0  0.087593  0  0.964053  0  0  0.097042  0  1.029232  0  0  0.099328  0  1.028492  0  0  0.099449  0.095375  0  1.02988  0
H  H12  1  0.08809017  0.93514837  0.41706654  1  0  0.087956  0  0.963188  0  0  0.097151  0  1.028921  0  0  0.099432  0  1.028184  0  0  0.099598  0.095489  0  1.029517  0
H  H13  1  0.41171814  0.51788468  0.58293165  1  0  0.087584  0  0.964133  0  0  0.097017  0  1.029331  0  0  0.099304  0  1.02859  0  0  0.099421  0.09535  0  1.029976  0
H  H14  1  0.79555068  0.78396727  0.46965834  1  0  0.091651  0  0.953813  0  0  0.099887  0  1.018054  0  0  0.102478  0  1.016776  0  0  0.101318  0.097981  0  1.019096  0
H  H15  1  0.70389907  0.31426775  0.53035589  1  0  0.0918  0  0.952832  0  0  0.099785  0  1.017363  0  0  0.102435  0  1.016017  0  0  0.101131  0.097845  0  1.018413  0
H  H16  1  0.20444471  0.21603341  0.53034518  1  0  0.091613  0  0.953799  0  0  0.099849  0  1.018041  0  0  0.10244  0  1.016762  0  0  0.101291  0.097939  0  1.019089  0
H  H17  1  0.29609201  0.68573176  0.46964457  1  0  0.091756  0  0.952931  0  0  0.099727  0  1.017485  0  0  0.102375  0  1.016142  0  0  0.101112  0.097788  0  1.018537  0
H  H18  1  0.87095069  0.57377200  0.55016406  1  0  0.10496  0  0.958801  0  0  0.112674  0  1.027589  0  0  0.115451  0  1.025906  0  0  0.107743  0.110662  0  1.028887  0
H  H19  1  0.62825412  0.02366004  0.44968401  1  0  0.104767  0  0.960497  0  0  0.112584  0  1.029157  0  0  0.115303  0  1.027544  0  0  0.107771  0.110606  0  1.030408  0
H  H20  1  0.12904882  0.42622751  0.44983890  1  0  0.104946  0  0.958839  0  0  0.112646  0  1.027645  0  0  0.115423  0  1.025965  0  0  0.107738  0.110631  0  1.028945  0
H  H21  1  0.37174405  0.97633950  0.55030969  1  0  0.10473  0  0.960503  0  0  0.112541  0  1.029182  0  0  0.11526  0  1.02757  0  0  0.107768  0.110564  0  1.030436  0
C  C22  1  0.07127387  0.61449630  0.85528714  1  0  0.305538  0  3.813548  0  0  0.25935  0  4.114788  0  0  0.280021  0  4.125976  0  0  0.219625  0.245499  0  4.10687  0
C  C23  1  0.42878425  0.75945133  0.14463089  1  0  0.306718  0  3.81389  0  0  0.260775  0  4.114793  0  0  0.281443  0  4.125945  0  0  0.219694  0.246934  0  4.106883  0
C  C24  1  0.92872576  0.38550439  0.14471384  1  0  0.305672  0  3.813475  0  0  0.259483  0  4.114718  0  0  0.280154  0  4.125906  0  0  0.219661  0.245637  0  4.106795  0
C  C25  1  0.57122069  0.24054583  0.85536759  1  0  0.306802  0  3.813803  0  0  0.260874  0  4.114681  0  0  0.281542  0  4.125834  0  0  0.219717  0.247037  0  4.106765  0
C  C26  1  0.02728614  0.73695692  0.70652851  1  0  0.16052  0  3.780783  0  0  0.155552  0  4.022676  0  0  0.158987  0  4.045675  0  0  0.091748  0.153242  0  4.007109  0
C  C27  1  0.47224130  0.03073606  0.29328941  1  0  0.162237  0  3.781281  0  0  0.157048  0  4.023284  0  0  0.160487  0  4.046245  0  0  0.091844  0.154736  0  4.007744  0
C  C28  1  0.97271631  0.26304378  0.29347204  1  0  0.160436  0  3.780846  0  0  0.15548  0  4.022723  0  0  0.158912  0  4.045726  0  0  0.091716  0.153167  0  4.007159  0
C  C29  1  0.52775556  0.96926465  0.70670594  1  0  0.162154  0  3.781351  0  0  0.156919  0  4.023403  0  0  0.160358  0  4.046366  0  0  0.091818  0.154609  0  4.007862  0
C  C30  1  0.09638130  0.89243480  0.77000579  1  0  -0.131397  0  3.740715  0  0  -0.149564  0  3.984152  0  0  -0.152108  0  4.005113  0  0  -0.090368  -0.147714  0  3.9699  0
C  C31  1  0.40345694  0.12286863  0.22984485  1  0  -0.132143  0  3.741101  0  0  -0.150625  0  3.984635  0  0  -0.153163  0  4.005592  0  0  -0.090475  -0.148813  0  3.970365  0
C  C32  1  0.90362407  0.10756708  0.22999613  1  0  -0.131404  0  3.740786  0  0  -0.149557  0  3.984201  0  0  -0.15212  0  4.005153  0  0  -0.090384  -0.147712  0  3.969958  0
C  C33  1  0.59654370  0.87712735  0.77015133  1  0  -0.13192  0  3.741069  0  0  -0.150354  0  3.984583  0  0  -0.152895  0  4.005546  0  0  -0.090337  -0.148548  0  3.970313  0
C  C34  1  0.05312994  0.00961334  0.72447368  1  0  -0.058068  0  3.77174  0  0  -0.069858  0  4.021188  0  0  -0.072661  0  4.044265  0  0  -0.096436  -0.067904  0  4.005517  0
C  C35  1  0.44692556  0.28554352  0.27546087  1  0  -0.056693  0  3.771121  0  0  -0.068443  0  4.020326  0  0  -0.071259  0  4.04344  0  0  -0.096781  -0.066493  0  4.004657  0
C  C36  1  0.94686969  0.99038736  0.27552730  1  0  -0.058073  0  3.771751  0  0  -0.069842  0  4.021163  0  0  -0.072645  0  4.044247  0  0  -0.096423  -0.067886  0  4.005489  0
C  C37  1  0.55307443  0.71446073  0.72453720  1  0  -0.056679  0  3.771215  0  0  -0.068477  0  4.020499  0  0  -0.071292  0  4.043615  0  0  -0.096832  -0.066522  0  4.004821  0
C  C38  1  0.94413474  0.97163153  0.61713960  1  0  -0.066435  0  3.755762  0  0  -0.084912  0  4.008023  0  0  -0.086554  0  4.02994  0  0  -0.090528  -0.083639  0  3.993056  0
C  C39  1  0.55583896  0.35472126  0.38283705  1  0  -0.067473  0  3.756029  0  0  -0.086102  0  4.008581  0  0  -0.087761  0  4.030545  0  0  -0.090347  -0.084847  0  3.993612  0
C  C40  1  0.05586207  0.02836915  0.38286332  1  0  -0.066446  0  3.755797  0  0  -0.084922  0  4.008038  0  0  -0.086566  0  4.029956  0  0  -0.090516  -0.083646  0  3.993067  0
C  C41  1  0.44415613  0.64527589  0.61716181  1  0  -0.067437  0  3.75597  0  0  -0.086046  0  4.008501  0  0  -0.087704  0  4.030463  0  0  -0.090288  -0.084789  0  3.993525  0
C  C42  1  0.87853220  0.81506901  0.55408404  1  0  -0.060117  0  3.765543  0  0  -0.071502  0  4.015451  0  0  -0.074196  0  4.038638  0  0  -0.088965  -0.06963  0  3.999613  0
C  C43  1  0.62102293  0.26109001  0.44587417  1  0  -0.05847  0  3.76416  0  0  -0.069886  0  4.014316  0  0  -0.072554  0  4.037314  0  0  -0.088107  -0.068002  0  3.998543  0
C  C44  1  0.12146579  0.18492931  0.44591847  1  0  -0.060061  0  3.765429  0  0  -0.071451  0  4.015361  0  0  -0.074146  0  4.03855  0  0  -0.088949  -0.069579  0  3.999524  0
C  C45  1  0.37897014  0.73891542  0.55412338  1  0  -0.058453  0  3.764268  0  0  -0.06987  0  4.014434  0  0  -0.072536  0  4.03743  0  0  -0.088119  -0.067995  0  3.998678  0
C  C46  1  0.91984967  0.69646316  0.59854255  1  0  -0.127787  0  3.726569  0  0  -0.151341  0  3.980206  0  0  -0.153986  0  4.001256  0  0  -0.082874  -0.149459  0  3.965893  0
C  C47  1  0.57953473  0.09807098  0.40133159  1  0  -0.12846  0  3.730739  0  0  -0.151913  0  3.98394  0  0  -0.154496  0  4.005027  0  0  -0.083004  -0.150061  0  3.969587  0
C  C48  1  0.08015006  0.30353871  0.40146023  1  0  -0.127701  0  3.726424  0  0  -0.151282  0  3.980109  0  0  -0.153924  0  4.001155  0  0  -0.082836  -0.14939  0  3.965786  0
C  C49  1  0.42046179  0.90192619  0.59866439  1  0  -0.12841  0  3.730893  0  0  -0.151842  0  3.984078  0  0  -0.154423  0  4.005164  0  0  -0.082991  -0.149987  0  3.969728  0
S  S50  1  0.99774166  0.75806875  0.95926033  1  0  -0.39387  0  2.09168  0  0  -0.355368  0  2.453696  0  0  -0.373204  0  2.445747  0  0  -0.18496  -0.342647  0  2.45894  0
S  S51  1  0.50261014  0.79906273  0.04075290  1  0  -0.394243  0  2.09194  0  0  -0.355805  0  2.454078  0  0  -0.373679  0  2.446124  0  0  -0.184882  -0.343059  0  2.459321  0
S  S52  1  0.00225927  0.24193076  0.04074127  1  0  -0.393907  0  2.091648  0  0  -0.355402  0  2.453656  0  0  -0.373239  0  2.44571  0  0  -0.184963  -0.34268  0  2.458897  0
S  S53  1  0.49739620  0.20093443  0.95924650  1  0  -0.394299  0  2.091926  0  0  -0.355873  0  2.45407  0  0  -0.373748  0  2.446111  0  0  -0.184901  -0.343132  0  2.459315  0
N  N54  1  0.07258361  0.61609992  0.75194211  1  0  -0.046088  0  3.504085  0  0  0.037507  0  3.723601  0  0  0.023713  0  3.7459  0  0  -0.10176  0.046421  0  3.708737  0
N  N55  1  0.42691564  0.86448864  0.24786145  1  0  -0.04763  0  3.507571  0  0  0.035849  0  3.727203  0  0  0.02208  0  3.749448  0  0  -0.101705  0.04474  0  3.712372  0
N  N56  1  0.92741895  0.38390196  0.24805949  1  0  -0.046161  0  3.504121  0  0  0.037429  0  3.723646  0  0  0.023634  0  3.745945  0  0  -0.101755  0.046339  0  3.708789  0
N  N57  1  0.57308521  0.13550970  0.75213607  1  0  -0.047707  0  3.507779  0  0  0.035784  0  3.7274  0  0  0.022014  0  3.749649  0  0  -0.101724  0.044673  0  3.712574  0
N  N58  1  0.13516319  0.47809071  0.69136966  1  0  -0.06852  0  2.85601  0  0  -0.069945  0  3.147321  0  0  -0.06735  0  3.156332  0  0  -0.055373  -0.071509  0  3.14128  0
N  N59  1  0.36412039  0.78710390  0.30840427  1  0  -0.068455  0  2.855077  0  0  -0.069776  0  3.146299  0  0  -0.067179  0  3.155322  0  0  -0.055843  -0.071344  0  3.140249  0
N  N60  1  0.86484076  0.52191116  0.30863286  1  0  -0.06852  0  2.85592  0  0  -0.069964  0  3.147242  0  0  -0.067368  0  3.15625  0  0  -0.055432  -0.071524  0  3.141201  0
N  N61  1  0.63588046  0.21289445  0.69159325  1  0  -0.068429  0  2.855304  0  0  -0.069729  0  3.146501  0  0  -0.067133  0  3.155526  0  0  -0.055792  -0.071295  0  3.140451  0
N  N62  1  0.17388416  0.39561638  0.75483623  1  0  -0.036231  0  2.968738  0  0  -0.036118  0  3.270799  0  0  -0.032079  0  3.280614  0  0  -0.075844  -0.038574  0  3.264043  0
N  N63  1  0.32581502  0.64110231  0.24503210  1  0  -0.036866  0  2.966086  0  0  -0.036648  0  3.26798  0  0  -0.032634  0  3.277851  0  0  -0.075915  -0.039091  0  3.261193  0
N  N64  1  0.82611979  0.60438549  0.24516629  1  0  -0.036132  0  2.96873  0  0  -0.035988  0  3.270747  0  0  -0.031949  0  3.28056  0  0  -0.075755  -0.038446  0  3.26399  0
N  N65  1  0.67419004  0.35889603  0.75496743  1  0  -0.036895  0  2.966276  0  0  -0.036691  0  3.268178  0  0  -0.032677  0  3.278047  0  0  -0.075996  -0.039135  0  3.261392  0
N  N66  1  0.13845786  0.47547945  0.85595782  1  0  -0.361768  0  3.214973  0  0  -0.289857  0  3.521409  0  0  -0.311059  0  3.534442  0  0  -0.255888  -0.275522  0  3.51223  0
N  N67  1  0.36170641  0.61975364  0.14399172  1  0  -0.360785  0  3.214117  0  0  -0.289043  0  3.520499  0  0  -0.310281  0  3.533637  0  0  -0.255369  -0.274714  0  3.51132  0
N  N68  1  0.86154339  0.52452360  0.14404466  1  0  -0.361893  0  3.215073  0  0  -0.289998  0  3.521531  0  0  -0.311198  0  3.534561  0  0  -0.255942  -0.275666  0  3.512355  0
N  N69  1  0.63830135  0.38024351  0.85600784  1  0  -0.360761  0  3.214061  0  0  -0.289025  0  3.52044  0  0  -0.310258  0  3.533571  0  0  -0.25535  -0.274698  0  3.511261  0
