# generated using pymatgen
data_ZnH18C28(NO)4
_symmetry_space_group_name_H-M   'P 1'
_cell_length_a   8.67974921
_cell_length_b   10.38816477
_cell_length_c   14.33009575
_cell_angle_alpha   82.16899778
_cell_angle_beta   91.38919672
_cell_angle_gamma   70.22038349
_symmetry_Int_Tables_number   1
_chemical_formula_structural   ZnH18C28(NO)4
_chemical_formula_sum   'Zn2 H36 C56 N8 O8'
_cell_volume   1201.09107174
_cell_formula_units_Z   2
loop_
 _symmetry_equiv_pos_site_id
 _symmetry_equiv_pos_as_xyz
  1  'x, y, z'
loop_
 _atom_site_type_symbol
 _atom_site_label
 _atom_site_symmetry_multiplicity
 _atom_site_fract_x
 _atom_site_fract_y
 _atom_site_fract_z
 _atom_site_occupancy
 _atom_site_hle17_bader_spin_density
 _atom_site_hle17_ddec_charge
 _atom_site_hle17_ddec_spin_density
 _atom_site_hle17_ddec_sum_bond_order
 _atom_site_hle17_magmom
 _atom_site_hse06_10hf_bader_spin_density
 _atom_site_hse06_10hf_ddec_charge
 _atom_site_hse06_10hf_ddec_spin_density
 _atom_site_hse06_10hf_ddec_sum_bond_order
 _atom_site_hse06_10hf_magmom
 _atom_site_hse06_bader_spin_density
 _atom_site_hse06_ddec_charge
 _atom_site_hse06_ddec_spin_density
 _atom_site_hse06_ddec_sum_bond_order
 _atom_site_hse06_magmom
 _atom_site_pbe_bader_spin_density
 _atom_site_pbe_cm5_charge
 _atom_site_pbe_ddec_charge
 _atom_site_pbe_ddec_spin_density
 _atom_site_pbe_ddec_sum_bond_order
 _atom_site_pbe_magmom
Zn  Zn0  1  0.28251127  0.70326711  0.71289886  1  0  0.965677  0  1.904232  0  0  0.772899  0  2.36895  0  0  0.821401  0  2.314675  0  0  0.682589  0.736417  0  2.408764  0
Zn  Zn1  1  0.71747419  0.29675367  0.28710371  1  0  0.96578  0  1.904185  0  0  0.773014  0  2.368947  0  0  0.821516  0  2.314672  0  0  0.682675  0.73654  0  2.408751  0
H  H2  1  0.40255355  0.68099932  0.07210136  1  0  0.075431  0  0.924509  0  0  0.085149  0  0.982365  0  0  0.087752  0  0.980345  0  0  0.112932  0.083154  0  0.984051  0
H  H3  1  0.59746174  0.31897781  0.92789903  1  0  0.075415  0  0.924535  0  0  0.085148  0  0.982369  0  0  0.087757  0  0.980351  0  0  0.112973  0.083153  0  0.984056  0
H  H4  1  0.43995337  0.63315745  0.24663172  1  0  0.098981  0  0.996021  0  0  0.10773  0  1.060782  0  0  0.110078  0  1.060802  0  0  0.102931  0.106036  0  1.060827  0
H  H5  1  0.56005528  0.36682491  0.75337016  1  0  0.098905  0  0.996097  0  0  0.107668  0  1.060808  0  0  0.110018  0  1.060825  0  0  0.102885  0.105972  0  1.060855  0
H  H6  1  0.98608101  0.97096874  0.25157040  1  0  0.099068  0  0.993271  0  0  0.10828  0  1.056363  0  0  0.110642  0  1.056401  0  0  0.10337  0.106607  0  1.05635  0
H  H7  1  0.01392955  0.02902905  0.74842778  1  0  0.099033  0  0.993417  0  0  0.108284  0  1.056465  0  0  0.110646  0  1.056503  0  0  0.103391  0.106611  0  1.05645  0
H  H8  1  0.96801154  0.00829141  0.07683404  1  0  0.077825  0  0.976422  0  0  0.077815  0  1.054176  0  0  0.081165  0  1.051078  0  0  0.109625  0.075371  0  1.056439  0
H  H9  1  0.03201246  0.99170727  0.92316273  1  0  0.077842  0  0.976319  0  0  0.077794  0  1.054152  0  0  0.081142  0  1.051057  0  0  0.109603  0.075351  0  1.05641  0
H  H10  1  0.49791267  0.68739033  0.38188334  1  0  0.122715  0  0.969945  0  0  0.130836  0  1.034711  0  0  0.134353  0  1.033256  0  0  0.111277  0.128328  0  1.035759  0
H  H11  1  0.50209688  0.31259311  0.61812611  1  0  0.122657  0  0.969889  0  0  0.13077  0  1.034659  0  0  0.134288  0  1.033206  0  0  0.11126  0.12826  0  1.03571  0
H  H12  1  0.96894097  0.85701678  0.38506781  1  0  0.123437  0  0.966034  0  0  0.131364  0  1.030695  0  0  0.134982  0  1.029103  0  0  0.111804  0.128825  0  1.031782  0
H  H13  1  0.03106957  0.14299543  0.61492606  1  0  0.123332  0  0.96621  0  0  0.131251  0  1.030877  0  0  0.134868  0  1.029287  0  0  0.111758  0.128713  0  1.031958  0
H  H14  1  0.77381689  0.91758799  0.47291069  1  0  0.131727  0  0.986019  0  0  0.139306  0  1.048606  0  0  0.143735  0  1.045312  0  0  0.109017  0.136123  0  1.051079  0
H  H15  1  0.22619160  0.08239431  0.52708283  1  0  0.131808  0  0.985976  0  0  0.13934  0  1.048609  0  0  0.143767  0  1.045317  0  0  0.109047  0.136158  0  1.05108  0
H  H16  1  0.55871012  0.96408548  0.59026428  1  0  0.106657  0  0.941584  0  0  0.118964  0  0.996953  0  0  0.121647  0  0.995355  0  0  0.109896  0.117135  0  0.997913  0
H  H17  1  0.44128947  0.03591029  0.40972287  1  0  0.106591  0  0.941583  0  0  0.118887  0  0.99698  0  0  0.121566  0  0.99539  0  0  0.109805  0.117055  0  0.997943  0
H  H18  1  0.64572102  0.90097922  0.76226001  1  0  0.106278  0  0.947123  0  0  0.116986  0  1.004923  0  0  0.119429  0  1.005095  0  0  0.110155  0.11519  0  1.004999  0
H  H19  1  0.35426515  0.09903321  0.23773019  1  0  0.106291  0  0.947082  0  0  0.116936  0  1.004974  0  0  0.119396  0  1.005126  0  0  0.110146  0.115139  0  1.005052  0
H  H20  1  0.94717148  0.78911655  0.81247278  1  0  0.086566  0  0.909348  0  0  0.099009  0  0.962873  0  0  0.101375  0  0.961105  0  0  0.125395  0.097186  0  0.964332  0
H  H21  1  0.05281257  0.21089597  0.18752716  1  0  0.086552  0  0.909407  0  0  0.099041  0  0.962877  0  0  0.10141  0  0.961102  0  0  0.125404  0.09722  0  0.964336  0
H  H22  1  0.72018288  0.59940468  0.46772809  1  0  0.130078  0  0.987672  0  0  0.137707  0  1.050291  0  0  0.142169  0  1.047027  0  0  0.108752  0.134462  0  1.052767  0
H  H23  1  0.27981214  0.40058922  0.53228016  1  0  0.130015  0  0.987751  0  0  0.137634  0  1.05042  0  0  0.142073  0  1.047195  0  0  0.10872  0.134458  0  1.052802  0
H  H24  1  0.96958910  0.50722660  0.58291894  1  0  0.104444  0  0.942419  0  0  0.116482  0  0.999496  0  0  0.119247  0  0.997631  0  0  0.109364  0.114632  0  1.000588  0
H  H25  1  0.03039748  0.49275402  0.41709624  1  0  0.104409  0  0.942241  0  0  0.116378  0  0.999434  0  0  0.119158  0  0.997529  0  0  0.109339  0.11453  0  1.00052  0
H  H26  1  0.93308943  0.49564923  0.75526491  1  0  0.109074  0  0.944594  0  0  0.120226  0  0.999987  0  0  0.12265  0  1.000352  0  0  0.111514  0.118542  0  0.999767  0
H  H27  1  0.06688823  0.50435109  0.24475023  1  0  0.109063  0  0.94455  0  0  0.120239  0  0.999936  0  0  0.122595  0  1.000388  0  0  0.111525  0.118569  0  0.999702  0
H  H28  1  0.64653553  0.58073446  0.80828114  1  0  0.083524  0  0.911278  0  0  0.096952  0  0.963267  0  0  0.099217  0  0.961665  0  0  0.124632  0.09522  0  0.964565  0
H  H29  1  0.35343821  0.41927821  0.19172430  1  0  0.083423  0  0.911175  0  0  0.096865  0  0.963156  0  0  0.09913  0  0.961554  0  0  0.12462  0.095132  0  0.964455  0
H  H30  1  0.27380349  0.36733524  0.94315057  1  0  0.098253  0  0.93813  0  0  0.108647  0  0.996446  0  0  0.112604  0  0.99309  0  0  0.103817  0.105898  0  0.998624  0
H  H31  1  0.72622600  0.63267070  0.05685944  1  0  0.098133  0  0.938354  0  0  0.108589  0  0.99658  0  0  0.112555  0  0.993227  0  0  0.103757  0.105838  0  0.998762  0
H  H32  1  0.31414157  0.13026792  0.03038424  1  0  0.087727  0  0.943168  0  0  0.100786  0  0.99669  0  0  0.103641  0  0.996476  0  0  0.099471  0.098844  0  0.996847  0
H  H33  1  0.68589278  0.86972557  0.96962363  1  0  0.08771  0  0.943123  0  0  0.100799  0  0.996596  0  0  0.103659  0  0.996376  0  0  0.099447  0.098856  0  0.996753  0
H  H34  1  0.33558662  0.93682993  0.94059443  1  0  0.101451  0  0.972692  0  0  0.10393  0  1.047372  0  0  0.107848  0  1.04399  0  0  0.102563  0.101127  0  1.049679  0
H  H35  1  0.66443729  0.06317183  0.05940062  1  0  0.101454  0  0.972629  0  0  0.103945  0  1.047298  0  0  0.107855  0  1.043926  0  0  0.102542  0.101195  0  1.049561  0
H  H36  1  0.28140002  0.21216778  0.67965648  1  0  0.097493  0  0.960819  0  0  0.104186  0  1.030404  0  0  0.108969  0  1.025572  0  0  0.099596  0.10084  0  1.033823  0
H  H37  1  0.71856897  0.78785932  0.32033903  1  0  0.097387  0  0.96087  0  0  0.104125  0  1.030447  0  0  0.108909  0  1.02562  0  0  0.099581  0.10078  0  1.033868  0
C  C38  1  0.31175054  0.74431633  0.11395586  1  0  0.114555  0  3.750726  0  0  0.091494  0  4.008723  0  0  0.095961  0  4.027208  0  0  0.040707  0.088308  0  3.996401  0
C  C39  1  0.68826642  0.25567108  0.88604275  1  0  0.114708  0  3.750644  0  0  0.091643  0  4.008638  0  0  0.096099  0  4.027134  0  0  0.040822  0.088456  0  3.996319  0
C  C40  1  0.33358331  0.71777092  0.21222079  1  0  -0.165258  0  3.739942  0  0  -0.184022  0  3.984882  0  0  -0.190893  0  4.008894  0  0  -0.090496  -0.179455  0  3.968786  0
C  C41  1  0.66642694  0.28222171  0.78777583  1  0  -0.165256  0  3.739968  0  0  -0.184029  0  3.984932  0  0  -0.190898  0  4.008947  0  0  -0.090575  -0.179462  0  3.968839  0
C  C42  1  0.21527718  0.79817430  0.26527791  1  0  0.071914  0  3.784386  0  0  0.086422  0  4.011059  0  0  0.088218  0  4.033637  0  0  -0.000168  0.085356  0  3.996437  0
C  C43  1  0.78474135  0.20182648  0.73471722  1  0  0.07172  0  3.784504  0  0  0.086293  0  4.011204  0  0  0.088081  0  4.033791  0  0  -0.000183  0.085227  0  3.996574  0
C  C44  1  0.08074011  0.90313120  0.21485036  1  0  -0.16158  0  3.734723  0  0  -0.178572  0  3.974218  0  0  -0.185442  0  3.998135  0  0  -0.088737  -0.173979  0  3.958152  0
C  C45  1  0.91928014  0.09686547  0.78514940  1  0  -0.161547  0  3.734675  0  0  -0.178563  0  3.974164  0  0  -0.185428  0  3.998073  0  0  -0.088766  -0.173971  0  3.958096  0
C  C46  1  0.07083731  0.92421769  0.11649055  1  0  0.111009  0  3.729302  0  0  0.090501  0  3.982486  0  0  0.094549  0  4.001255  0  0  0.03942  0.08766  0  3.969901  0
C  C47  1  0.92917626  0.07578421  0.88350861  1  0  0.110961  0  3.729244  0  0  0.090434  0  3.982531  0  0  0.094484  0  4.0013  0  0  0.039405  0.087595  0  3.969942  0
C  C48  1  0.39661269  0.69861158  0.51818808  1  0  0.207408  0  3.747186  0  0  0.199421  0  3.99255  0  0  0.207403  0  4.010719  0  0  0.130887  0.193911  0  3.979806  0
C  C49  1  0.60338667  0.30138840  0.48181189  1  0  0.207409  0  3.747219  0  0  0.19928  0  3.992653  0  0  0.207262  0  4.010827  0  0  0.130881  0.193766  0  3.979911  0
C  C50  1  0.38658424  0.71713992  0.41945043  1  0  -0.171685  0  3.618509  0  0  -0.197947  0  3.865946  0  0  -0.204791  0  3.884841  0  0  -0.072312  -0.193485  0  3.854116  0
C  C51  1  0.61342799  0.28285687  0.58055345  1  0  -0.17175  0  3.618451  0  0  -0.197905  0  3.865961  0  0  -0.204752  0  3.884855  0  0  -0.072287  -0.193443  0  3.854132  0
C  C52  1  0.23140867  0.77505185  0.36962044  1  0  0.11446  0  3.742309  0  0  0.12455  0  3.977987  0  0  0.12941  0  3.998624  0  0  0.015111  0.120798  0  3.966207  0
C  C53  1  0.76860230  0.22494491  0.63037785  1  0  0.114834  0  3.742072  0  0  0.124751  0  3.977959  0  0  0.129622  0  3.998569  0  0  0.015153  0.120999  0  3.966175  0
C  C54  1  0.09146690  0.81214598  0.42124219  1  0  -0.170858  0  3.616459  0  0  -0.196907  0  3.863375  0  0  -0.20376  0  3.882277  0  0  -0.072246  -0.192524  0  3.851681  0
C  C55  1  0.90854157  0.18785698  0.57875334  1  0  -0.170902  0  3.616278  0  0  -0.19689  0  3.86325  0  0  -0.203744  0  3.882146  0  0  -0.072208  -0.192507  0  3.851558  0
C  C56  1  0.11105502  0.79115571  0.51989083  1  0  0.204479  0  3.750125  0  0  0.197541  0  3.994826  0  0  0.205392  0  4.013222  0  0  0.130395  0.192113  0  3.982  0
C  C57  1  0.88894213  0.20883809  0.48010698  1  0  0.20457  0  3.750147  0  0  0.197635  0  3.994846  0  0  0.205485  0  4.013246  0  0  0.130385  0.192202  0  3.982027  0
C  C58  1  0.97351085  0.82620956  0.58244666  1  0  0.176303  0  3.737657  0  0  0.171792  0  3.978987  0  0  0.177253  0  4.000087  0  0  0.121569  0.16859  0  3.964265  0
C  C59  1  0.02648200  0.17378634  0.41755090  1  0  0.176239  0  3.737701  0  0  0.171687  0  3.979109  0  0  0.177144  0  4.000213  0  0  0.121598  0.168488  0  3.964388  0
C  C60  1  0.80865865  0.88866776  0.54853585  1  0  -0.147419  0  3.673702  0  0  -0.165513  0  3.920238  0  0  -0.172587  0  3.941056  0  0  -0.080098  -0.161443  0  3.907591  0
C  C61  1  0.19133414  0.11132501  0.45145506  1  0  -0.147334  0  3.673766  0  0  -0.165367  0  3.920282  0  0  -0.172437  0  3.941101  0  0  -0.080078  -0.161298  0  3.907632  0
C  C62  1  0.68875215  0.91637267  0.61342547  1  0  0.00574  0  3.696813  0  0  -0.014698  0  3.9497  0  0  -0.011498  0  3.9686  0  0  -0.065047  -0.016613  0  3.938131  0
C  C63  1  0.31123937  0.08362318  0.38656302  1  0  0.005629  0  3.697113  0  0  -0.014781  0  3.949951  0  0  -0.011583  0  3.968853  0  0  -0.065041  -0.016694  0  3.938379  0
C  C64  1  0.73604001  0.88041233  0.70972906  1  0  -0.109539  0  3.721038  0  0  -0.123479  0  3.975417  0  0  -0.129864  0  3.997395  0  0  -0.078029  -0.119723  0  3.96176  0
C  C65  1  0.26394725  0.11958876  0.29026443  1  0  -0.109452  0  3.721322  0  0  -0.123366  0  3.975742  0  0  -0.129763  0  3.997718  0  0  -0.077901  -0.119609  0  3.962087  0
C  C66  1  0.90289308  0.81863765  0.73800082  1  0  0.128705  0  3.728145  0  0  0.096826  0  3.986272  0  0  0.103494  0  4.003696  0  0  0.054891  0.092614  0  3.974423  0
C  C67  1  0.09709597  0.18137065  0.26199402  1  0  0.12879  0  3.728316  0  0  0.096886  0  3.986451  0  0  0.103552  0  4.003885  0  0  0.05483  0.09267  0  3.974606  0
C  C68  1  0.55259650  0.63955781  0.57905601  1  0  0.174023  0  3.741008  0  0  0.170623  0  3.981053  0  0  0.176037  0  4.002209  0  0  0.121254  0.16746  0  3.966263  0
C  C69  1  0.44739465  0.36043404  0.42094895  1  0  0.174004  0  3.74105  0  0  0.170866  0  3.980863  0  0  0.176279  0  4.002016  0  0  0.121248  0.167701  0  3.966087  0
C  C70  1  0.70744140  0.59532068  0.54352325  1  0  -0.146142  0  3.674215  0  0  -0.164865  0  3.920777  0  0  -0.172008  0  3.941615  0  0  -0.080344  -0.160708  0  3.908132  0
C  C71  1  0.29255435  0.40465981  0.45648712  1  0  -0.14608  0  3.674397  0  0  -0.164876  0  3.920923  0  0  -0.172007  0  3.941785  0  0  -0.080262  -0.160767  0  3.908234  0
C  C72  1  0.84629492  0.54261314  0.60720061  1  0  0.004045  0  3.698999  0  0  -0.016384  0  3.952585  0  0  -0.013219  0  3.971478  0  0  -0.064952  -0.018346  0  3.941125  0
C  C73  1  0.15369951  0.45737979  0.39281542  1  0  0.004393  0  3.698713  0  0  -0.015995  0  3.952279  0  0  -0.012814  0  3.971146  0  0  -0.064787  -0.017963  0  3.940841  0
C  C74  1  0.82736617  0.53649085  0.70376837  1  0  -0.107038  0  3.717248  0  0  -0.120972  0  3.971058  0  0  -0.127355  0  3.993021  0  0  -0.077048  -0.117225  0  3.957414  0
C  C75  1  0.17262170  0.46351552  0.29624271  1  0  -0.10731  0  3.716856  0  0  -0.121281  0  3.970728  0  0  -0.127618  0  3.992712  0  0  -0.077189  -0.117544  0  3.957087  0
C  C76  1  0.66885605  0.58298590  0.73356544  1  0  0.131259  0  3.732449  0  0  0.098785  0  3.990976  0  0  0.105421  0  4.008692  0  0  0.055345  0.094623  0  3.978946  0
C  C77  1  0.33113345  0.41701632  0.26644539  1  0  0.131485  0  3.732257  0  0  0.099027  0  3.99081  0  0  0.105669  0  4.008502  0  0  0.055361  0.094862  0  3.97879  0
C  C78  1  0.28437018  0.28087630  0.90527337  1  0  -0.061048  0  3.734007  0  0  -0.087847  0  3.981644  0  0  -0.08541  0  4.000698  0  0  -0.08063  -0.088507  0  3.96797  0
C  C79  1  0.71565297  0.71913068  0.09472881  1  0  -0.06094  0  3.734218  0  0  -0.08777  0  3.981781  0  0  -0.085352  0  4.000853  0  0  -0.080532  -0.088427  0  3.9681  0
C  C80  1  0.30732070  0.14882379  0.95337499  1  0  -0.074034  0  3.763335  0  0  -0.082573  0  4.014218  0  0  -0.088114  0  4.037056  0  0  -0.089808  -0.079077  0  3.998145  0
C  C81  1  0.69270023  0.85118013  0.04662820  1  0  -0.074122  0  3.763364  0  0  -0.082696  0  4.014232  0  0  -0.08824  0  4.037075  0  0  -0.089897  -0.0792  0  3.998171  0
C  C82  1  0.32218392  0.03924542  0.90355580  1  0  -0.053788  0  3.71775  0  0  -0.081699  0  3.970254  0  0  -0.079068  0  3.989154  0  0  -0.077872  -0.082465  0  3.956813  0
C  C83  1  0.67781167  0.96076697  0.09644283  1  0  -0.053758  0  3.717655  0  0  -0.081676  0  3.970142  0  0  -0.079037  0  3.989044  0  0  -0.077778  -0.082495  0  3.95668  0
C  C84  1  0.31232501  0.06176100  0.80455943  1  0  -0.086531  0  3.782131  0  0  -0.059465  0  4.013553  0  0  -0.069823  0  4.03848  0  0  -0.026014  -0.052788  0  3.997144  0
C  C85  1  0.68767502  0.93824622  0.19544327  1  0  -0.086487  0  3.782389  0  0  -0.059398  0  4.013754  0  0  -0.069754  0  4.038684  0  0  -0.026014  -0.052723  0  3.997356  0
C  C86  1  0.28948739  0.19428395  0.75661144  1  0  -0.074642  0  3.71484  0  0  -0.109642  0  3.960512  0  0  -0.106876  0  3.979537  0  0  -0.083524  -0.111482  0  3.948288  0
C  C87  1  0.71049845  0.80572954  0.24338213  1  0  -0.074668  0  3.715317  0  0  -0.109732  0  3.960975  0  0  -0.106972  0  3.98001  0  0  -0.083631  -0.111573  0  3.948749  0
C  C88  1  0.27620186  0.30420431  0.80617762  1  0  -0.084491  0  3.786078  0  0  -0.058131  0  4.020121  0  0  -0.068343  0  4.045296  0  0  -0.026458  -0.051567  0  4.003575  0
C  C89  1  0.72379427  0.69580086  0.19382039  1  0  -0.084325  0  3.786147  0  0  -0.057977  0  4.020205  0  0  -0.068186  0  4.045377  0  0  -0.026389  -0.051413  0  4.00366  0
C  C90  1  0.26258889  0.44270694  0.75206169  1  0  0.614742  0  3.956953  0  0  0.56585  0  4.256297  0  0  0.599774  0  4.249089  0  0  0.191015  0.542573  0  4.260505  0
C  C91  1  0.73739703  0.55729722  0.24792589  1  0  0.61477  0  3.957069  0  0  0.565829  0  4.256491  0  0  0.599756  0  4.249278  0  0  0.191095  0.542548  0  4.260702  0
C  C92  1  0.31274707  0.94865427  0.74906515  1  0  0.617248  0  3.95229  0  0  0.569024  0  4.24947  0  0  0.602969  0  4.242342  0  0  0.192572  0.545723  0  4.253577  0
C  C93  1  0.68724522  0.05135510  0.25093866  1  0  0.617312  0  3.952332  0  0  0.569025  0  4.249567  0  0  0.602969  0  4.242442  0  0  0.192577  0.545725  0  4.253675  0
N  N94  1  0.18351114  0.84599841  0.06565688  1  0  -0.304287  0  3.071888  0  0  -0.265331  0  3.333737  0  0  -0.275809  0  3.348651  0  0  -0.317471  -0.258176  0  3.323749  0
N  N95  1  0.81650409  0.15399935  0.93434343  1  0  -0.304276  0  3.072106  0  0  -0.2653  0  3.333964  0  0  -0.275775  0  3.348879  0  0  -0.317496  -0.25815  0  3.323987  0
N  N96  1  0.26080509  0.73565477  0.56523655  1  0  -0.363082  0  3.326498  0  0  -0.29495  0  3.588423  0  0  -0.311634  0  3.600446  0  0  -0.315891  -0.283032  0  3.579649  0
N  N97  1  0.73919698  0.26434415  0.43476285  1  0  -0.36306  0  3.326539  0  0  -0.294911  0  3.588519  0  0  -0.311596  0  3.600546  0  0  -0.315874  -0.282994  0  3.579749  0
N  N98  1  0.01838454  0.79332312  0.67617839  1  0  -0.341193  0  3.252515  0  0  -0.273132  0  3.521334  0  0  -0.289969  0  3.536445  0  0  -0.313953  -0.261545  0  3.510577  0
N  N99  1  0.98160730  0.20668103  0.32381620  1  0  -0.341398  0  3.252532  0  0  -0.273334  0  3.521417  0  0  -0.290173  0  3.536536  0  0  -0.314045  -0.261748  0  3.510663  0
N  N100  1  0.53539321  0.63183599  0.67304969  1  0  -0.341632  0  3.256542  0  0  -0.273806  0  3.525313  0  0  -0.290542  0  3.540258  0  0  -0.31474  -0.262262  0  3.514593  0
N  N101  1  0.46459510  0.36816000  0.32695271  1  0  -0.341685  0  3.256879  0  0  -0.274007  0  3.525687  0  0  -0.290744  0  3.540634  0  0  -0.314774  -0.26246  0  3.514955  0
O  O102  1  0.27985720  0.53400590  0.80065272  1  0  -0.633174  0  1.987194  0  0  -0.56385  0  2.242331  0  0  -0.591858  0  2.227691  0  0  -0.336455  -0.54325  0  2.25273  0
O  O103  1  0.72011022  0.46600158  0.19933857  1  0  -0.633121  0  1.987106  0  0  -0.563811  0  2.242299  0  0  -0.591818  0  2.227655  0  0  -0.336553  -0.543223  0  2.25272  0
O  O104  1  0.24161859  0.46220113  0.66327959  1  0  -0.628995  0  1.957927  0  0  -0.584793  0  2.196191  0  0  -0.607708  0  2.187313  0  0  -0.327579  -0.567854  0  2.200936  0
O  O105  1  0.75837963  0.53780705  0.33671044  1  0  -0.629135  0  1.958111  0  0  -0.584798  0  2.196228  0  0  -0.607708  0  2.187321  0  0  -0.327567  -0.567842  0  2.200966  0
O  O106  1  0.31371591  0.83354121  0.79735497  1  0  -0.624974  0  1.99738  0  0  -0.553261  0  2.253908  0  0  -0.581468  0  2.239561  0  0  -0.332577  -0.53256  0  2.264161  0
O  O107  1  0.68626166  0.16647349  0.20265098  1  0  -0.625051  0  1.997445  0  0  -0.553351  0  2.254038  0  0  -0.581561  0  2.239694  0  0  -0.332594  -0.532628  0  2.264241  0
O  O108  1  0.30521452  0.97211571  0.66019221  1  0  -0.630893  0  1.953939  0  0  -0.588235  0  2.191886  0  0  -0.610738  0  2.182344  0  0  -0.329404  -0.571607  0  2.197238  0
O  O109  1  0.69479011  0.02787392  0.33980958  1  0  -0.630977  0  1.95409  0  0  -0.588254  0  2.19199  0  0  -0.610754  0  2.182445  0  0  -0.329424  -0.571629  0  2.197341  0
