# generated using pymatgen
data_CuH6(C2N)3
_symmetry_space_group_name_H-M   'P 1'
_cell_length_a   9.51542736
_cell_length_b   9.50903971
_cell_length_c   14.40700000
_cell_angle_alpha   90.00000000
_cell_angle_beta   90.00000000
_cell_angle_gamma   90.00000000
_symmetry_Int_Tables_number   1
_chemical_formula_structural   CuH6(C2N)3
_chemical_formula_sum   'Cu8 H48 C48 N24'
_cell_volume   1303.58248142
_cell_formula_units_Z   8
loop_
 _symmetry_equiv_pos_site_id
 _symmetry_equiv_pos_as_xyz
  1  'x, y, z'
loop_
 _atom_site_type_symbol
 _atom_site_label
 _atom_site_symmetry_multiplicity
 _atom_site_fract_x
 _atom_site_fract_y
 _atom_site_fract_z
 _atom_site_occupancy
 _atom_site_pbe_bader_charge
 _atom_site_pbe_bader_spin_density
 _atom_site_pbe_cm5_charge
 _atom_site_pbe_ddec_charge
 _atom_site_pbe_ddec_spin_density
 _atom_site_pbe_ddec_sum_bond_order
 _atom_site_pbe_magmom
Cu  Cu0  1  0.43646279  0.18097621  0.82749150  1  0.713825  0  0.522642  0.300303  0  2.841361  0
Cu  Cu1  1  0.06353367  0.81901646  0.32749150  1  0.71378  0  0.522648  0.300284  0  2.841425  0
Cu  Cu2  1  0.56353223  0.68098464  0.67250781  1  0.713763  0  0.522658  0.300301  0  2.841432  0
Cu  Cu3  1  0.93646346  0.31901749  0.17250573  1  0.713792  0  0.52264  0.300297  0  2.841322  0
Cu  Cu4  1  0.43106209  0.81294434  0.07736378  1  0.71188  0  0.522148  0.300187  0  2.840359  0
Cu  Cu5  1  0.06894068  0.18705674  0.57736170  1  0.711893  0  0.522139  0.300195  0  2.840399  0
Cu  Cu6  1  0.56894660  0.31294012  0.42263969  1  0.711866  0  0.522091  0.300186  0  2.840269  0
Cu  Cu7  1  0.93105960  0.68705886  0.92263414  1  0.711887  0  0.522139  0.300221  0  2.840266  0
H  H8  1  0.12748560  0.33024576  0.01248699  1  0.091553  0  0.090017  0.141284  0  1.057998  0
H  H9  1  0.37251926  0.66974797  0.51248421  1  0.091262  0  0.090018  0.141268  0  1.057963  0
H  H10  1  0.87251573  0.83024577  0.48751163  1  0.091628  0  0.090003  0.141254  0  1.05804  0
H  H11  1  0.62748522  0.16975952  0.98751024  1  0.091648  0  0.089994  0.141178  0  1.058138  0
H  H12  1  0.25663797  0.19359473  0.00404317  1  0.081695  0  0.095886  0.147982  0  1.010967  0
H  H13  1  0.24336689  0.80640004  0.50404109  1  0.08178  0  0.095916  0.148057  0  1.010957  0
H  H14  1  0.74336546  0.69359580  0.49595613  1  0.08168  0  0.095889  0.147963  0  1.010989  0
H  H15  1  0.75663443  0.30640949  0.99595405  1  0.081623  0  0.095871  0.147978  0  1.011086  0
H  H16  1  0.17904924  0.25875694  0.90222531  1  0.091142  0  0.094996  0.14585  0  1.008556  0
H  H17  1  0.32095143  0.74123678  0.40222322  1  0.091119  0  0.095011  0.145855  0  1.008623  0
H  H18  1  0.82095735  0.75875485  0.59777261  1  0.091161  0  0.094993  0.145867  0  1.008467  0
H  H19  1  0.67904780  0.24124939  0.09776983  1  0.091221  0  0.095001  0.145868  0  1.008512  0
H  H20  1  0.23464842  0.54881672  0.05492747  1  0.090592  0  0.115905  0.099564  0  1.027692  0
H  H21  1  0.26534804  0.45117700  0.55493024  1  0.090644  0  0.11591  0.09952  0  1.02777  0
H  H22  1  0.76534450  0.04881671  0.44506837  1  0.0907  0  0.115899  0.09955  0  1.027736  0
H  H23  1  0.73465014  0.95118858  0.94506837  1  0.090606  0  0.115887  0.099564  0  1.027642  0
H  H24  1  0.63089862  0.65611462  0.95521552  1  0.122516  0  0.113456  0.084528  0  1.057344  0
H  H25  1  0.86909496  0.34388961  0.45521830  1  0.122261  0  0.113488  0.084525  0  1.057456  0
H  H26  1  0.36909535  0.15609883  0.54478448  1  0.122277  0  0.113481  0.084482  0  1.05741  0
H  H27  1  0.13090216  0.84389699  0.04478309  1  0.122179  0  0.113443  0.084496  0  1.05729  0
H  H28  1  0.63612802  0.43790226  0.86169015  1  0.104665  0  0.117876  0.090744  0  1.022154  0
H  H29  1  0.86387502  0.56209672  0.36168599  1  0.104667  0  0.117878  0.090724  0  1.022131  0
H  H30  1  0.36387541  0.93788966  0.63831332  1  0.104687  0  0.117863  0.090737  0  1.022116  0
H  H31  1  0.13612210  0.06210617  0.13831401  1  0.104654  0  0.117868  0.09075  0  1.022159  0
H  H32  1  0.91542289  0.87212697  0.75405844  1  0.084566  0  0.090996  0.143487  0  1.054894  0
H  H33  1  0.58457700  0.12788042  0.25406469  1  0.084441  0  0.091032  0.143481  0  1.054738  0
H  H34  1  0.08457949  0.37212696  0.74593947  1  0.084529  0  0.09095  0.143437  0  1.054861  0
H  H35  1  0.41542222  0.62787413  0.24594156  1  0.084568  0  0.090979  0.143429  0  1.054949  0
H  H36  1  0.04737570  0.00385002  0.76764073  1  0.066186  0  0.097105  0.14882  0  1.001214  0
H  H37  1  0.45262076  0.99615737  0.26764698  1  0.066131  0  0.097082  0.148808  0  1.001221  0
H  H38  1  0.95262668  0.50385214  0.73235649  1  0.066154  0  0.097099  0.148807  0  1.001232  0
H  H39  1  0.54737636  0.49614894  0.23235719  1  0.066163  0  0.097103  0.148812  0  1.001212  0
H  H40  1  0.00788929  0.94352219  0.65538766  1  0.05255  0  0.09228  0.140744  0  1.019203  0
H  H41  1  0.49210927  0.05648520  0.15539460  1  0.052654  0  0.092293  0.140702  0  1.019237  0
H  H42  1  0.99211309  0.44352533  0.84461026  1  0.052601  0  0.092266  0.140704  0  1.019304  0
H  H43  1  0.50788996  0.55647470  0.34460956  1  0.05257  0  0.092275  0.14073  0  1.019268  0
H  H44  1  0.70027753  0.98388799  0.80414868  1  0.106353  0  0.11628  0.099865  0  1.026812  0
H  H45  1  0.79972236  0.01611204  0.30415492  1  0.106295  0  0.116238  0.099828  0  1.026811  0
H  H46  1  0.29972380  0.48389113  0.69584716  1  0.106306  0  0.116261  0.099853  0  1.026822  0
H  H47  1  0.20027792  0.51611100  0.19584924  1  0.106347  0  0.116275  0.099857  0  1.026789  0
H  H48  1  0.59323032  0.38092700  0.70530159  1  0.119204  0  0.113594  0.084862  0  1.057255  0
H  H49  1  0.90677062  0.61907829  0.20530020  1  0.119244  0  0.113594  0.084898  0  1.057205  0
H  H50  1  0.40678047  0.88092281  0.79469910  1  0.120699  0  0.113556  0.084806  0  1.057283  0
H  H51  1  0.09322335  0.11907617  0.29470258  1  0.120731  0  0.113563  0.084836  0  1.057162  0
H  H52  1  0.81078755  0.38599271  0.61126536  1  0.100648  0  0.117461  0.089544  0  1.024863  0
H  H53  1  0.68921129  0.61401258  0.11126536  1  0.100723  0  0.117455  0.089568  0  1.024864  0
H  H54  1  0.18922114  0.88599483  0.88873256  1  0.100578  0  0.117486  0.089542  0  1.024886  0
H  H55  1  0.31078058  0.11400836  0.38873742  1  0.100638  0  0.117467  0.08952  0  1.024881  0
C  C56  1  0.43847216  0.95141784  0.98447283  1  0.702819  0  -0.058746  -0.153084  0  3.876006  0
C  C57  1  0.06152325  0.04858324  0.48447144  1  0.702457  0  -0.058764  -0.153133  0  3.875835  0
C  C58  1  0.56152917  0.45141677  0.51553412  1  0.702677  0  -0.058679  -0.152984  0  3.876125  0
C  C59  1  0.93847493  0.54858221  0.01552787  1  0.70257  0  -0.058742  -0.153051  0  3.87622  0
C  C60  1  0.29774070  0.18774135  0.73474145  1  0.678348  0  -0.058996  -0.154899  0  3.879732  0
C  C61  1  0.20226522  0.81224816  0.23474630  1  0.678487  0  -0.059014  -0.154967  0  3.879773  0
C  C62  1  0.70225748  0.68774452  0.76525578  1  0.678266  0  -0.059003  -0.154857  0  3.879697  0
C  C63  1  0.79772980  0.31225551  0.26525439  1  0.678641  0  -0.058943  -0.154872  0  3.879709  0
C  C64  1  0.33030466  0.39532698  0.96409523  1  0.499341  0  0.123042  0.280505  0  3.911439  0
C  C65  1  0.16969706  0.60466989  0.46409454  1  0.499381  0  0.123071  0.280585  0  3.911337  0
C  C66  1  0.66969877  0.89532279  0.53590407  1  0.49931  0  0.123033  0.280618  0  3.911403  0
C  C67  1  0.83030217  0.10468249  0.03590130  1  0.499289  0  0.12305  0.280713  0  3.911253  0
C  C68  1  0.21549321  0.28983684  0.97167072  1  -0.119543  0  -0.25034  -0.465916  0  3.937777  0
C  C69  1  0.28450955  0.71015899  0.47166863  1  -0.119311  0  -0.25039  -0.465971  0  3.937776  0
C  C70  1  0.78450917  0.78983475  0.52832790  1  -0.119651  0  -0.250332  -0.465913  0  3.937831  0
C  C71  1  0.71549282  0.21017159  0.02832443  1  -0.119744  0  -0.250306  -0.465872  0  3.937933  0
C  C72  1  0.32694170  0.52161313  0.01399806  1  0.472922  0  0.042897  -0.020116  0  3.86772  0
C  C73  1  0.17305686  0.47838164  0.51399528  1  0.472659  0  0.042849  -0.02018  0  3.867673  0
C  C74  1  0.67305332  0.02161312  0.48600333  1  0.472667  0  0.042872  -0.020163  0  3.867859  0
C  C75  1  0.82694236  0.97839322  0.98600194  1  0.472926  0  0.042916  -0.02012  0  3.867551  0
C  C76  1  0.54386942  0.58216289  0.95875338  1  0.482114  0  0.038515  0.027334  0  3.930746  0
C  C77  1  0.95612731  0.41783820  0.45875338  1  0.48173  0  0.038486  0.027329  0  3.930819  0
C  C78  1  0.45612455  0.08215235  0.54124870  1  0.481737  0  0.038521  0.027462  0  3.93081  0
C  C79  1  0.04386981  0.91784452  0.04124592  1  0.481911  0  0.038528  0.027385  0  3.930787  0
C  C80  1  0.54657661  0.45967628  0.90640869  1  0.477534  0  0.048822  0.055844  0  3.937075  0
C  C81  1  0.95342644  0.54032270  0.40640591  1  0.478247  0  0.048838  0.055931  0  3.937119  0
C  C82  1  0.45342577  0.95966578  0.59359339  1  0.478151  0  0.048823  0.055844  0  3.937309  0
C  C83  1  0.04657384  0.04033215  0.09359270  1  0.478223  0  0.048832  0.055864  0  3.937303  0
C  C84  1  0.85438832  0.08065378  0.71428125  1  0.483797  0  0.123926  0.281468  0  3.910711  0
C  C85  1  0.64560842  0.91935046  0.21428542  1  0.484066  0  0.123875  0.281502  0  3.910528  0
C  C86  1  0.14561721  0.58065695  0.78571805  1  0.483954  0  0.12392  0.281533  0  3.910599  0
C  C87  1  0.35438661  0.41934308  0.28571944  1  0.48404  0  0.123906  0.281518  0  3.910613  0
C  C88  1  0.96083546  0.96692098  0.72329770  1  -0.059729  0  -0.250305  -0.46559  0  3.941399  0
C  C89  1  0.53916338  0.03308326  0.22330256  1  -0.059782  0  -0.250314  -0.465543  0  3.941204  0
C  C90  1  0.03916587  0.46692202  0.77670091  1  -0.059677  0  -0.250233  -0.465518  0  3.941336  0
C  C91  1  0.46083584  0.53307801  0.27670299  1  -0.059694  0  -0.250266  -0.465511  0  3.941406  0
C  C92  1  0.72764152  0.07659764  0.76361838  1  0.474443  0  0.042536  -0.021025  0  3.868436  0
C  C93  1  0.77235312  0.92340239  0.26362254  1  0.474318  0  0.042619  -0.020972  0  3.868273  0
C  C94  1  0.27236086  0.57659871  0.73637884  1  0.474443  0  0.042561  -0.021032  0  3.868422  0
C  C95  1  0.22764190  0.42340132  0.23638093  1  0.474462  0  0.042565  -0.020993  0  3.868351  0
C  C96  1  0.66709668  0.29380464  0.70866176  1  0.49689  0  0.038468  0.027206  0  3.930133  0
C  C97  1  0.83290321  0.70619960  0.20866037  1  0.49717  0  0.038493  0.027222  0  3.930139  0
C  C98  1  0.33291201  0.79380255  0.79133963  1  0.495288  0  0.038536  0.027324  0  3.930029  0
C  C99  1  0.16709286  0.20619748  0.29134240  1  0.495317  0  0.038541  0.027301  0  3.929916  0
C  C100  1  0.78946533  0.29662827  0.65628167  1  0.46689  0  0.048654  0.055395  0  3.937573  0
C  C101  1  0.71053246  0.70337912  0.15628167  1  0.466684  0  0.048604  0.05526  0  3.937849  0
C  C102  1  0.21054336  0.79662723  0.84371903  1  0.466978  0  0.048577  0.055189  0  3.937732  0
C  C103  1  0.28946046  0.20337385  0.34372180  1  0.46687  0  0.048593  0.0553  0  3.93769  0
N  N104  1  0.44677762  0.03418747  0.92356910  1  -1.429361  0  -0.433479  -0.337386  0  3.627854  0
N  N105  1  0.05321779  0.96580835  0.42356493  1  -1.428984  0  -0.433448  -0.337384  0  3.627653  0
N  N106  1  0.55321740  0.53418328  0.57643645  1  -1.42919  0  -0.433499  -0.337529  0  3.628196  0
N  N107  1  0.94677723  0.46581149  0.07642743  1  -1.42908  0  -0.433483  -0.337502  0  3.628239  0
N  N108  1  0.21505708  0.19623958  0.67384049  1  -1.404734  0  -0.433917  -0.336668  0  3.62711  0
N  N109  1  0.28494884  0.80375203  0.17384327  1  -1.404818  0  -0.433878  -0.336585  0  3.627209  0
N  N110  1  0.78494635  0.69624591  0.82615673  1  -1.404645  0  -0.433897  -0.336727  0  3.627215  0
N  N111  1  0.71505249  0.30375517  0.32615881  1  -1.404989  0  -0.433968  -0.336699  0  3.627368  0
N  N112  1  0.44158080  0.36504632  0.90847921  1  -1.18093  0  -0.327688  -0.22744  0  3.509789  0
N  N113  1  0.05842197  0.63494740  0.40847644  1  -1.181074  0  -0.327736  -0.227548  0  3.5101  0
N  N114  1  0.55842263  0.86504424  0.59152287  1  -1.181102  0  -0.327659  -0.227427  0  3.510103  0
N  N115  1  0.94157936  0.13495685  0.09152079  1  -1.181053  0  -0.327693  -0.227532  0  3.510118  0
N  N116  1  0.88440799  0.19191002  0.65858819  1  -1.173737  0  -0.326762  -0.22739  0  3.504661  0
N  N117  1  0.61559190  0.80809527  0.15859166  1  -1.173976  0  -0.326712  -0.227346  0  3.504719  0
N  N118  1  0.11559649  0.69191319  0.84140973  1  -1.173763  0  -0.326708  -0.227267  0  3.504559  0
N  N119  1  0.38440312  0.30809000  0.34141112  1  -1.173964  0  -0.326727  -0.227392  0  3.504654  0
N  N120  1  0.43348237  0.61476134  0.01320192  1  -1.200338  0  -0.333914  -0.168456  0  3.599777  0
N  N121  1  0.06651409  0.38523659  0.51320192  1  -1.200128  0  -0.33389  -0.16839  0  3.599647  0
N  N122  1  0.56651160  0.11475291  0.48680017  1  -1.199928  0  -0.333939  -0.168569  0  3.60007  0
N  N123  1  0.93348619  0.88524607  0.98679808  1  -1.200187  0  -0.333944  -0.168581  0  3.599954  0
N  N124  1  0.63445916  0.18308473  0.76286597  1  -1.204089  0  -0.333346  -0.167483  0  3.597595  0
N  N125  1  0.86554284  0.81691635  0.26286666  1  -1.204066  0  -0.333381  -0.167511  0  3.597593  0
N  N126  1  0.36554638  0.68308370  0.73713403  1  -1.204203  0  -0.333405  -0.167524  0  3.597567  0
N  N127  1  0.13445324  0.31691633  0.23713542  1  -1.204093  0  -0.333362  -0.167517  0  3.597527  0
