# generated using pymatgen
data_Al6H70C87(IO7)4
_symmetry_space_group_name_H-M   'P 1'
_cell_length_a   12.77830556
_cell_length_b   12.92738268
_cell_length_c   28.32849914
_cell_angle_alpha   89.86435279
_cell_angle_beta   90.46787366
_cell_angle_gamma   117.29295801
_symmetry_Int_Tables_number   1
_chemical_formula_structural   Al6H70C87(IO7)4
_chemical_formula_sum   'Al6 H70 C87 I4 O28'
_cell_volume   4158.48094245
_cell_formula_units_Z   1
loop_
 _symmetry_equiv_pos_site_id
 _symmetry_equiv_pos_as_xyz
  1  'x, y, z'
loop_
 _atom_site_type_symbol
 _atom_site_label
 _atom_site_symmetry_multiplicity
 _atom_site_fract_x
 _atom_site_fract_y
 _atom_site_fract_z
 _atom_site_occupancy
 _atom_site_pbe_bader_charge
 _atom_site_pbe_bader_spin_density
 _atom_site_pbe_cm5_charge
 _atom_site_pbe_ddec_charge
 _atom_site_pbe_ddec_spin_density
 _atom_site_pbe_ddec_sum_bond_order
 _atom_site_pbe_magmom
Al  Al0  1  0.40754220  0.58784832  0.50287186  1  2.492321  0  0.402308  1.68446  0  2.543117  0
Al  Al1  1  0.65132656  0.57280741  0.50112926  1  2.478008  0  0.506167  1.659521  0  2.508264  0
Al  Al2  1  0.42584197  0.34890768  0.50038649  1  2.478311  0  0.503867  1.658496  0  2.513869  0
Al  Al3  1  0.92720218  0.07774796  0.00035094  1  2.49561  0  0.397852  1.681071  0  2.556547  0
Al  Al4  1  0.91362217  0.31994823  0.99945828  1  2.478426  0  0.507463  1.661301  0  2.510645  0
Al  Al5  1  0.68599604  0.09845181  0.99944491  1  2.480897  0  0.506525  1.659845  0  2.514185  0
H  H6  1  0.88615922  0.40346520  0.77074227  1  0.100889  0  0.102754  0.093936  0  1.014224  0
H  H7  1  0.07340866  0.45176475  0.78137637  1  -0.000289  0  0.090504  0.086895  0  0.999807  0
H  H8  1  0.49167047  0.80678662  0.78873077  1  0.05981  0  0.104939  0.103552  0  0.966081  0
H  H9  1  0.76031027  0.21067808  0.70957657  1  0.069054  0  0.102164  0.095632  0  1.001625  0
H  H10  1  0.47490892  0.75534321  0.71183994  1  0.047306  0  0.103588  0.084782  0  0.951493  0
H  H11  1  0.76802345  0.00038651  0.69574212  1  0.048963  0  0.096801  0.100214  0  0.986734  0
H  H12  1  0.61585707  0.95559838  0.70229235  1  0.038222  0  0.096415  0.095521  0  0.979477  0
H  H13  1  0.65725532  0.00712094  0.78256393  1  0.030272  0  0.095543  0.095996  0  0.995056  0
H  H14  1  0.80163250  0.02432233  0.77725431  1  0.061073  0  0.092452  0.098848  0  1.029629  0
H  H15  1  0.75541198  0.70948532  0.71648713  1  0.023378  0  0.096527  0.103792  0  0.995763  0
H  H16  1  0.84595709  0.86095308  0.71515999  1  0.059904  0  0.094471  0.106293  0  0.99228  0
H  H17  1  0.02563582  0.12521408  0.70222484  1  0.043162  0  0.092096  0.092175  0  0.982417  0
H  H18  1  0.71932479  0.70907152  0.79773371  1  0.104409  0  0.089895  0.083199  0  1.013232  0
H  H19  1  0.79228188  0.53203241  0.72052238  1  0.051076  0  0.103418  0.09554  0  0.990979  0
H  H20  1  0.49084439  0.21649535  0.20431185  1  0.047076  0  0.094352  0.096559  0  0.977878  0
H  H21  1  0.47121215  0.24457682  0.28481216  1  0.033024  0  0.095525  0.094815  0  0.984234  0
H  H22  1  0.76668281  0.25441911  0.30444569  1  0.039362  0  0.095207  0.094924  0  0.981793  0
H  H23  1  0.61411266  0.16069620  0.29918455  1  0.055725  0  0.0962  0.095812  0  0.977192  0
H  H24  1  0.63724697  0.14373866  0.21813242  1  0.034483  0  0.094325  0.091336  0  0.992656  0
H  H25  1  0.78901615  0.24119804  0.22314356  1  0.031649  0  0.092169  0.08908  0  1.011669  0
H  H26  1  0.74326261  0.53022914  0.28356287  1  0.022967  0  0.091803  0.090946  0  1.001689  0
H  H27  1  0.84353346  0.47379997  0.29387146  1  0.001843  0  0.095183  0.094978  0  0.976053  0
H  H28  1  0.98119651  0.12876590  0.78180114  1  0.083257  0  0.07901  0.070573  0  1.069797  0
H  H29  1  0.75733900  0.51164016  0.20218047  1  0.042223  0  0.082683  0.080941  0  1.030665  0
H  H30  1  0.59832692  0.44812734  0.78382518  1  0.070589  0  0.095933  0.083551  0  1.02694  0
H  H31  1  0.52661199  0.39612288  0.27559968  1  0.020995  0  0.088361  0.0821  0  1.00462  0
H  H32  1  0.53563961  0.36639012  0.19525510  1  0.041483  0  0.078022  0.075334  0  1.051929  0
H  H33  1  0.86011297  0.45786520  0.21207073  1  0.00539  0  0.093253  0.093102  0  0.979864  0
H  H34  1  0.19963749  0.51055934  0.20878329  1  0.062915  0  0.099971  0.106833  0  0.960639  0
H  H35  1  0.25163512  0.52946970  0.28925326  1  0.066639  0  0.099298  0.101943  0  0.970891  0
H  H36  1  0.00158644  0.22763239  0.30387965  1  0.030039  0  0.095879  0.098412  0  0.97561  0
H  H37  1  0.03684283  0.37640382  0.29916403  1  0.030364  0  0.096373  0.096003  0  0.977336  0
H  H38  1  0.99551466  0.34788968  0.21795875  1  0.004964  0  0.094649  0.093946  0  0.992388  0
H  H39  1  0.92944351  0.23243558  0.77094639  1  0.026254  0  0.089678  0.086974  0  1.000593  0
H  H40  1  0.97286526  0.20258929  0.22217498  1  0.036997  0  0.087195  0.088981  0  1.021451  0
H  H41  1  0.30552256  0.26494681  0.28517807  1  0.046427  0  0.097032  0.104789  0  1.002902  0
H  H42  1  0.47285835  0.25596967  0.72268873  1  0.05157  0  0.105176  0.098859  0  0.993801  0
H  H43  1  0.15531001  0.16394378  0.28926700  1  0.043978  0  0.093809  0.105484  0  0.993387  0
H  H44  1  0.29293151  0.28032684  0.20336938  1  0.077249  0  0.100521  0.097144  0  0.970448  0
H  H45  1  0.35956530  0.48312208  0.27853965  1  0.024607  0  0.08914  0.084664  0  1.0013  0
H  H46  1  0.32014023  0.48275455  0.19801476  1  0.026653  0  0.078822  0.072504  0  1.056793  0
H  H47  1  0.78227086  0.78101650  0.20132293  1  0.093098  0  0.104337  0.098437  0  0.965893  0
H  H48  1  0.77601883  0.74281529  0.28181890  1  0.026117  0  0.102258  0.112897  0  0.963989  0
H  H49  1  0.72225269  0.99995596  0.30733000  1  0.031192  0  0.09604  0.096643  0  0.979965  0
H  H50  1  0.22351334  0.49964577  0.70178904  1  0.023973  0  0.095314  0.10053  0  1.0009  0
H  H51  1  0.83310498  0.95452511  0.30442182  1  0.056286  0  0.096055  0.097189  0  0.977117  0
H  H52  1  0.84934555  0.98408497  0.22274555  1  0.02795  0  0.080166  0.074231  0  1.05274  0
H  H53  1  0.56675574  0.12731775  0.77285258  1  0.06894  0  0.102924  0.092741  0  0.995028  0
H  H54  1  0.74969763  0.04312542  0.22652451  1  0.013899  0  0.094906  0.096242  0  1.0094  0
H  H55  1  0.46931121  0.70701816  0.28315839  1  0.054786  0  0.093656  0.095095  0  0.995603  0
H  H56  1  0.50559888  0.85086257  0.29987956  1  0.057029  0  0.098916  0.101531  0  0.96994  0
H  H57  1  0.47692256  0.76317384  0.20419602  1  0.038848  0  0.088396  0.092787  0  1.004274  0
H  H58  1  0.62548710  0.64164795  0.27660587  1  0.051527  0  0.091699  0.095991  0  1.015777  0
H  H59  1  0.53020697  0.91048286  0.22045846  1  0.029744  0  0.095675  0.099084  0  0.976469  0
H  H60  1  0.19770206  0.19455443  0.79226209  1  0.035445  0  0.093922  0.097074  0  0.977051  0
H  H61  1  0.06881665  0.42811510  0.69882626  1  0.024584  0  0.093732  0.093272  0  0.976196  0
H  H62  1  0.24436886  0.21390132  0.71174862  1  0.031202  0  0.09394  0.090954  0  0.983672  0
H  H63  1  0.95617646  0.21353585  0.69011981  1  0.020001  0  0.09009  0.083122  0  0.99946  0
H  H64  1  0.60773484  0.54613727  0.64497430  1  0.051165  0  0.081879  0.107386  0  1.02147  0
H  H65  1  0.48288283  0.47167780  0.60804614  1  0.027176  0  0.092287  0.116078  0  1.036265  0
H  H66  1  0.48887923  0.41367390  0.66390886  1  0.003818  0  0.079971  0.10407  0  1.028985  0
H  H67  1  0.35788869  0.50704104  0.66727395  1  0.01227  0  0.082256  0.069234  0  1.056085  0
H  H68  1  0.46587273  0.63651949  0.64458618  1  0.016529  0  0.089569  0.087981  0  1.02535  0
H  H69  1  0.56945826  0.58014710  0.72650602  1  0.015738  0  0.084355  0.081074  0  1.012983  0
H  H70  1  0.42787247  0.55283714  0.74266343  1  0.004568  0  0.073766  0.069107  0  1.075419  0
H  H71  1  0.22517148  0.49303829  0.78442629  1  0.050355  0  0.079491  0.075917  0  1.042279  0
H  H72  1  0.32887312  0.36594224  0.71791158  1  0.001118  0  0.093433  0.095335  0  1.022471  0
H  H73  1  0.29702254  0.34412921  0.79899025  1  0.035973  0  0.085688  0.083474  0  1.013623  0
H  H74  1  0.31951804  0.69585891  0.53480607  1  0.583023  0  0.293326  0.383785  0  0.921588  0
H  H75  1  0.03790228  0.98995375  0.03055745  1  0.578202  0  0.292191  0.382394  0  0.92483  0
C  C76  1  0.62340294  0.71450021  0.56801922  1  1.634927  0  0.278735  0.717879  0  4.14892  0
C  C77  1  0.66267927  0.34158799  0.64870820  1  -0.566669  0  -0.008818  -0.009722  0  4.043871  0
C  C78  1  0.24298670  0.29252051  0.72567541  1  0.0153  0  -0.153872  -0.189318  0  3.833098  0
C  C79  1  0.61676739  0.38356706  0.56241699  1  1.642315  0  0.284042  0.72084  0  4.153981  0
C  C80  1  0.02552696  0.20773477  0.71149178  1  -0.028273  0  -0.155016  -0.187591  0  3.851718  0
C  C81  1  0.00335119  0.21280031  0.76493651  1  -0.08457  0  -0.158592  -0.190031  0  3.832961  0
C  C82  1  0.07837160  0.29501374  0.88270286  1  -0.008573  0  -0.050502  -0.222935  0  3.970473  0
C  C83  1  0.14585427  0.31004666  0.69858759  1  0.120995  0  0.002747  0.168991  0  3.883132  0
C  C84  1  0.21918880  0.28210295  0.77922224  1  -0.03444  0  -0.155618  -0.183278  0  3.837908  0
C  C85  1  0.11446639  0.30736494  0.78993062  1  0.146443  0  0.000231  0.173157  0  3.890921  0
C  C86  1  0.14105531  0.42778531  0.76952638  1  -0.040342  0  -0.159074  -0.188638  0  3.857323  0
C  C87  1  0.65000966  0.35191134  0.60650599  1  0.276567  0  -0.042946  -0.211359  0  3.948367  0
C  C88  1  0.14535782  0.42432285  0.71517812  1  0.006536  0  -0.154629  -0.186806  0  3.835922  0
C  C89  1  0.09537831  0.30262459  0.84041037  1  -0.266815  0  -0.014085  -0.014309  0  4.005828  0
C  C90  1  0.17272088  0.31722546  0.64854423  1  -0.416213  0  -0.010499  -0.016864  0  3.983915  0
C  C91  1  0.27892351  0.37437386  0.56607157  1  1.611349  0  0.275115  0.715579  0  4.156295  0
C  C92  1  0.20999564  0.33440183  0.60838210  1  0.191036  0  -0.048397  -0.218214  0  3.950533  0
C  C93  1  0.53982844  0.73191066  0.72806156  1  -0.0083  0  -0.076557  -0.036391  0  3.748949  0
C  C94  1  0.68950802  0.94172167  0.71558728  1  -0.040184  0  -0.15454  -0.195722  0  3.870018  0
C  C95  1  0.70914414  0.96575720  0.76896547  1  -0.036316  0  -0.156479  -0.185109  0  3.834309  0
C  C96  1  0.69249155  0.90885896  0.88781527  1  0.311473  0  -0.035217  -0.181518  0  3.943273  0
C  C97  1  0.66230218  0.81423149  0.70529234  1  0.124563  0  0.006597  0.148733  0  3.84431  0
C  C98  1  0.61699070  0.21708348  0.76070229  1  -0.032872  0  -0.068948  -0.077606  0  3.626733  0
C  C99  1  0.54780220  0.76535901  0.78139479  1  -0.134984  0  -0.080813  -0.060034  0  3.580454  0
C  C100  1  0.67525998  0.85125419  0.79690044  1  0.170417  0  -0.008265  0.128261  0  3.9135  0
C  C101  1  0.75525916  0.79633517  0.78220498  1  -0.214719  0  -0.096711  -0.031866  0  3.673821  0
C  C102  1  0.76165532  0.79302466  0.72818740  1  0.023725  0  -0.161957  -0.2284  0  3.871944  0
C  C103  1  0.60850910  0.70746712  0.43499189  1  1.677894  0  0.277642  0.715312  0  4.161335  0
C  C104  1  0.68232415  0.87810219  0.84686278  1  -0.59288  0  -0.035202  -0.043923  0  4.076393  0
C  C105  1  0.66086149  0.79607085  0.65460085  1  -0.503445  0  -0.006497  0.000744  0  3.967595  0
C  C106  1  0.65858861  0.77584492  0.61254014  1  0.270246  0  -0.044479  -0.218673  0  3.913809  0
C  C107  1  0.54406543  0.32154161  0.26922918  1  -0.027606  0  -0.154009  -0.184823  0  3.838904  0
C  C108  1  0.68638682  0.24055507  0.28509906  1  -0.047908  0  -0.151398  -0.18567  0  3.838475  0
C  C109  1  0.68718966  0.32380746  0.79501857  1  0.101828  0  0.0104  0.117823  0  3.786011  0
C  C110  1  0.70059471  0.22998691  0.23132135  1  -0.031736  0  -0.152777  -0.188541  0  3.837721  0
C  C111  1  0.70360166  0.30244835  0.11183864  1  0.293282  0  -0.048353  -0.226365  0  3.958575  0
C  C112  1  0.66003610  0.34410110  0.29523109  1  0.124053  0  0.00258  0.166527  0  3.892907  0
C  C113  1  0.55412025  0.30447563  0.21580274  1  -0.041143  0  -0.158607  -0.190998  0  3.847742  0
C  C114  1  0.67996740  0.32352476  0.20422443  1  0.145836  0  0.001959  0.168475  0  3.889975  0
C  C115  1  0.60865538  0.39280430  0.43389583  1  1.645264  0  0.283736  0.730894  0  4.143368  0
C  C116  1  0.77186551  0.44553257  0.22150497  1  -0.009873  0  -0.157313  -0.185847  0  3.839622  0
C  C117  1  0.76137575  0.45701591  0.27534403  1  0.023018  0  -0.154207  -0.185311  0  3.839577  0
C  C118  1  0.69179580  0.31184831  0.15391402  1  -0.568544  0  -0.003518  0.003704  0  3.984829  0
C  C119  1  0.64692038  0.35570362  0.34549437  1  -0.444612  0  -0.00311  -0.00023  0  3.990057  0
C  C120  1  0.56469435  0.28859912  0.73380804  1  0.009492  0  -0.066295  -0.073609  0  3.610648  0
C  C121  1  0.63413246  0.36779730  0.38727665  1  0.19382  0  -0.050098  -0.228877  0  3.963649  0
C  C122  1  0.26673291  0.46138725  0.27213544  1  -0.060342  0  -0.15382  -0.189174  0  3.848895  0
C  C123  1  0.05721161  0.30865471  0.28502722  1  -0.018159  0  -0.152217  -0.185516  0  3.840027  0
C  C124  1  0.03427656  0.29308662  0.23120223  1  0.002893  0  -0.156942  -0.188971  0  3.840238  0
C  C125  1  0.10520152  0.31470167  0.11216767  1  -0.305304  0  -0.044754  -0.203978  0  3.950412  0
C  C126  1  0.18806484  0.34293792  0.29586478  1  0.164247  0  0.002527  0.176772  0  3.895139  0
C  C127  1  0.28687737  0.38986955  0.43466052  1  1.672271  0  0.27971  0.714344  0  4.162062  0
C  C128  1  0.23938837  0.45413408  0.21876442  1  -0.024931  0  -0.155141  -0.185027  0  3.840253  0
C  C129  1  0.15090263  0.32747272  0.20440093  1  0.151959  0  -0.002803  0.14593  0  3.90114  0
C  C130  1  0.20697544  0.24928822  0.22029562  1  -0.180793  0  -0.08479  -0.011863  0  3.629783  0
C  C131  1  0.67213422  0.33525773  0.69827951  1  0.148495  0  0.009003  0.109419  0  3.796193  0
C  C132  1  0.21655864  0.24852329  0.27443341  1  0.003422  0  -0.161121  -0.22909  0  3.851368  0
C  C133  1  0.12850457  0.32108023  0.15404210  1  0.045006  0  -0.024027  -0.026886  0  4.036129  0
C  C134  1  0.21104474  0.35202661  0.34623423  1  -0.597249  0  -0.014697  -0.021306  0  4.009469  0
C  C135  1  0.23619180  0.36372802  0.38798925  1  0.299544  0  -0.045413  -0.212141  0  3.966981  0
C  C136  1  0.68990661  0.73188271  0.26921966  1  0.00184  0  -0.157036  -0.2291  0  3.854246  0
C  C137  1  0.74892741  0.94138061  0.28875470  1  -0.036091  0  -0.153304  -0.185976  0  3.840082  0
C  C138  1  0.76151278  0.96643468  0.23522736  1  -0.001406  0  -0.155216  -0.182633  0  3.819263  0
C  C139  1  0.72458570  0.26335181  0.72664770  1  -0.014093  0  -0.066915  -0.07579  0  3.616042  0
C  C140  1  0.69495356  0.92116579  0.11590145  1  0.228592  0  -0.042511  -0.197619  0  3.959998  0
C  C141  1  0.65496097  0.81423770  0.29724851  1  0.137877  0  0.002512  0.17682  0  3.893745  0
C  C142  1  0.63450005  0.39582961  0.76671543  1  -0.019702  0  -0.065885  -0.067006  0  3.600993  0
C  C143  1  0.69579855  0.75951324  0.21610457  1  -0.163179  0  -0.080998  -0.014663  0  3.629642  0
C  C144  1  0.66711858  0.86147112  0.20674065  1  0.139864  0  -0.003545  0.14726  0  3.907533  0
C  C145  1  0.54387939  0.83329906  0.22566559  1  -0.018343  0  -0.159195  -0.190733  0  3.855397  0
C  C146  1  0.53438345  0.79841356  0.27823725  1  -0.065796  0  -0.153868  -0.187718  0  3.836767  0
C  C147  1  0.67917047  0.89184206  0.15704443  1  -0.508202  0  -0.026653  -0.040116  0  4.044774  0
C  C148  1  0.64641597  0.78490118  0.34700977  1  -0.508979  0  -0.015214  -0.023969  0  4.008477  0
C  C149  1  0.63513049  0.75710538  0.38837879  1  0.226516  0  -0.045533  -0.21204  0  3.965811  0
C  C150  1  0.03857745  0.27132597  0.93066671  1  1.638596  0  0.278899  0.720108  0  4.156512  0
C  C151  1  0.79439559  0.37065515  0.75952048  1  -0.058656  0  -0.06728  -0.076403  0  3.620119  0
C  C152  1  0.73104290  0.28408772  0.93412183  1  1.642664  0  0.284422  0.723748  0  4.150445  0
C  C153  1  0.74211386  0.44217227  0.73259908  1  -0.00487  0  -0.067133  -0.074828  0  3.617507  0
C  C154  1  0.71848073  0.95871757  0.93439551  1  1.677556  0  0.282151  0.712352  0  4.155602  0
C  C155  1  0.05430950  0.28759430  0.06551074  1  1.637984  0  0.279258  0.720957  0  4.152365  0
C  C156  1  0.72785808  0.27850572  0.06488508  1  1.667148  0  0.285136  0.73145  0  4.143522  0
C  C157  1  0.72574950  0.96839478  0.06903958  1  1.678649  0  0.277439  0.718722  0  4.1513  0
C  C158  1  0.70641348  0.30865598  0.88708372  1  -0.416875  0  -0.039369  -0.203939  0  3.959232  0
C  C159  1  0.49823331  0.60259692  0.71758947  1  0.005814  0  -0.175135  -0.17942  0  3.905474  0
C  C160  1  0.45333276  0.56269442  0.66698636  1  0.015548  0  -0.179504  -0.115025  0  3.945491  0
C  C161  1  0.51133684  0.49512048  0.64476868  1  -0.091174  0  -0.252181  -0.354988  0  3.95896  0
C  C162  1  0.69626034  0.31727479  0.84460176  1  0.187194  0  -0.01386  -0.016176  0  4.052466  0
I  I163  1  0.47443184  0.61976230  0.83214770  1  0.027881  0  0.08148  -0.053715  0  1.414424  0
I  I164  1  0.93009459  0.88277472  0.81390027  1  0.035846  0  0.060969  -0.047904  0  1.305579  0
I  I165  1  0.11311115  0.07202708  0.19231562  1  -0.004346  0  0.032361  -0.095423  0  1.280788  0
I  I166  1  0.58137759  0.60701356  0.17361353  1  0.002324  0  0.082054  -0.057669  0  1.41418  0
O  O167  1  0.30843872  0.47775111  0.55317328  1  -1.2197  0  -0.212544  -0.566798  0  2.282113  0
O  O168  1  0.65667043  0.18854315  0.95268915  1  -1.247034  0  -0.226036  -0.587656  0  2.251409  0
O  O169  1  0.64247971  0.98725314  0.95211054  1  -1.250825  0  -0.240803  -0.602536  0  2.231581  0
O  O170  1  0.52044746  0.68824962  0.55350453  1  -1.221716  0  -0.211102  -0.56532  0  2.280968  0
O  O171  1  0.82805251  0.99290091  0.05513347  1  -1.219954  0  -0.209941  -0.560741  0  2.292685  0
O  O172  1  0.03413592  0.19020110  0.04837411  1  -1.21431  0  -0.208517  -0.564992  0  2.29618  0
O  O173  1  0.02833058  0.36361129  0.04625174  1  -1.246292  0  -0.240673  -0.600641  0  2.224592  0
O  O174  1  0.82517383  0.35059696  0.04647659  1  -1.250191  0  -0.226352  -0.588194  0  2.246524  0
O  O175  1  0.65248982  0.18312346  0.04596179  1  -1.254103  0  -0.227967  -0.59044  0  2.244561  0
O  O176  1  0.64729242  0.98504652  0.04597781  1  -1.258512  0  -0.242462  -0.605752  0  2.230114  0
O  O177  1  0.84124925  0.16641633  0.99995517  1  -1.608879  0  -0.391211  -1.273673  0  2.294813  0
O  O178  1  0.68192249  0.48934815  0.45254442  1  -1.251717  0  -0.227078  -0.588323  0  2.246858  0
O  O179  1  0.69686276  0.68531438  0.54849356  1  -1.25287  0  -0.241184  -0.602109  0  2.227259  0
O  O180  1  0.68709035  0.48296485  0.54527370  1  -1.248361  0  -0.227313  -0.589572  0  2.251538  0
O  O181  1  0.51589115  0.31371013  0.54518524  1  -1.24946  0  -0.227058  -0.589059  0  2.251477  0
O  O182  1  0.31023151  0.30299197  0.54626184  1  -1.254096  0  -0.243466  -0.608726  0  2.233538  0
O  O183  1  0.30747128  0.48686678  0.45235426  1  -1.214182  0  -0.201412  -0.536277  0  2.279681  0
O  O184  1  0.50873117  0.68408651  0.45144056  1  -1.214554  0  -0.201937  -0.540098  0  2.283637  0
O  O185  1  0.68801960  0.68711747  0.45531430  1  -1.252093  0  -0.243864  -0.608765  0  2.237695  0
O  O186  1  0.51187308  0.31942336  0.45241230  1  -1.248632  0  -0.227308  -0.588479  0  2.248786  0
O  O187  1  0.31162340  0.31271028  0.45354427  1  -1.252918  0  -0.242336  -0.60592  0  2.241285  0
O  O188  1  0.49586985  0.50258126  0.50228411  1  -1.609857  0  -0.389789  -1.273575  0  2.300862  0
O  O189  1  0.81448360  0.97456411  0.95308253  1  -1.212983  0  -0.196788  -0.529541  0  2.281611  0
O  O190  1  0.01588444  0.17230145  0.94686836  1  -1.213822  0  -0.204605  -0.544695  0  2.287168  0
O  O191  1  0.02502202  0.35187662  0.95252689  1  -1.253291  0  -0.245509  -0.613706  0  2.235186  0
O  O192  1  0.82886077  0.35646489  0.95291704  1  -1.23813  0  -0.226064  -0.586384  0  2.242817  0
O  O193  1  0.32848314  0.66793116  0.50425740  1  -1.365292  0  -0.574491  -0.990525  0  1.798016  0
O  O194  1  0.00365264  0.99502248  0.00064040  1  -1.360905  0  -0.57599  -0.992237  0  1.796362  0
