# generated using pymatgen
data_ZnH10(C2N)4
_symmetry_space_group_name_H-M   'P 1'
_cell_length_a   14.72373998
_cell_length_b   14.72340585
_cell_length_c   14.72352098
_cell_angle_alpha   109.47105834
_cell_angle_beta   109.47123438
_cell_angle_gamma   109.47088173
_symmetry_Int_Tables_number   1
_chemical_formula_structural   ZnH10(C2N)4
_chemical_formula_sum   'Zn6 H60 C48 N24'
_cell_volume   2457.07732635
_cell_formula_units_Z   6
loop_
 _symmetry_equiv_pos_site_id
 _symmetry_equiv_pos_as_xyz
  1  'x, y, z'
loop_
 _atom_site_type_symbol
 _atom_site_label
 _atom_site_symmetry_multiplicity
 _atom_site_fract_x
 _atom_site_fract_y
 _atom_site_fract_z
 _atom_site_occupancy
 _atom_site_pbe_bader_charge
 _atom_site_pbe_bader_spin_density
 _atom_site_pbe_cm5_charge
 _atom_site_pbe_ddec_charge
 _atom_site_pbe_ddec_spin_density
 _atom_site_pbe_ddec_sum_bond_order
 _atom_site_pbe_magmom
Zn  Zn0  1  0.75000798  0.49999943  0.24999865  1  1.177093  0  0.718716  0.654088  0  2.542123  0
Zn  Zn1  1  0.75000309  0.24999663  0.50000034  1  1.176838  0  0.718758  0.654087  0  2.542155  0
Zn  Zn2  1  0.49999902  0.24999125  0.74999622  1  1.176831  0  0.718716  0.654069  0  2.542188  0
Zn  Zn3  1  0.49999884  0.74999603  0.24999751  1  1.176829  0  0.718805  0.654133  0  2.542189  0
Zn  Zn4  1  0.24999847  0.49999396  0.74999668  1  1.176933  0  0.718761  0.654118  0  2.542107  0
Zn  Zn5  1  0.24999963  0.74999635  0.49999506  1  1.176941  0  0.718714  0.654042  0  2.542243  0
H  H6  1  0.85151787  0.59060411  0.11562540  1  0.096892  0  0.110515  0.102979  0  1.014787  0
H  H7  1  0.73909118  0.14848538  0.26411424  1  0.069479  0  0.110511  0.102988  0  1.014813  0
H  H8  1  0.40939814  0.26091170  0.52502341  1  0.073208  0  0.110502  0.102954  0  1.014806  0
H  H9  1  0.73909350  0.26411483  0.14848430  1  0.069846  0  0.110504  0.102968  0  1.014816  0
H  H10  1  0.40939429  0.52501695  0.26090787  1  0.073208  0  0.110498  0.102949  0  1.0148  0
H  H11  1  0.85151624  0.11562650  0.59060526  1  0.09685  0  0.110493  0.102928  0  1.014782  0
H  H12  1  0.52503204  0.40939665  0.26090519  1  0.073321  0  0.110502  0.102969  0  1.014817  0
H  H13  1  0.73587869  0.88436803  0.47497127  1  0.076424  0  0.110499  0.102954  0  1.014839  0
H  H14  1  0.47496951  0.73588160  0.88436798  1  0.076381  0  0.110481  0.102965  0  1.0148  0
H  H15  1  0.11562593  0.85151705  0.59059947  1  0.096821  0  0.110502  0.102958  0  1.014877  0
H  H16  1  0.26411330  0.73908341  0.14848277  1  0.06893  0  0.110513  0.102977  0  1.014844  0
H  H17  1  0.88437070  0.73589094  0.47497446  1  0.07652  0  0.110519  0.102958  0  1.014819  0
H  H18  1  0.73588078  0.47497245  0.88436844  1  0.076644  0  0.110512  0.102983  0  1.014782  0
H  H19  1  0.47497210  0.88436535  0.73587993  1  0.076598  0  0.110498  0.102965  0  1.014805  0
H  H20  1  0.88437130  0.47497751  0.73588723  1  0.076606  0  0.110494  0.102907  0  1.01479  0
H  H21  1  0.59060205  0.85151454  0.11562619  1  0.096801  0  0.110514  0.102996  0  1.014814  0
H  H22  1  0.14848138  0.73908076  0.26410687  1  0.06857  0  0.110544  0.103012  0  1.014816  0
H  H23  1  0.26090414  0.40939014  0.52502494  1  0.073347  0  0.110495  0.102965  0  1.014759  0
H  H24  1  0.26090426  0.52501821  0.40939248  1  0.073225  0  0.110527  0.103005  0  1.014782  0
H  H25  1  0.11562910  0.59060369  0.85151571  1  0.096776  0  0.110521  0.103008  0  1.014728  0
H  H26  1  0.26411981  0.14848683  0.73908792  1  0.069408  0  0.110493  0.102966  0  1.014857  0
H  H27  1  0.52503026  0.26090873  0.40939660  1  0.073387  0  0.110507  0.103009  0  1.014757  0
H  H28  1  0.14848475  0.26410733  0.73908772  1  0.06945  0  0.110504  0.103001  0  1.014812  0
H  H29  1  0.59060545  0.11562378  0.85151612  1  0.096862  0  0.110498  0.102974  0  1.014794  0
H  H30  1  0.46995579  0.30422429  0.00000230  1  0.043982  0  0.095925  0.14354  0  0.986697  0
H  H31  1  0.83427544  0.53004747  0.53004964  1  0.057227  0  0.09595  0.143546  0  0.986857  0
H  H32  1  0.69577964  0.16572843  0.69578266  1  0.045887  0  0.095915  0.143534  0  0.986715  0
H  H33  1  0.69577415  0.69577700  0.16572559  1  0.045849  0  0.095929  0.143503  0  0.986794  0
H  H34  1  0.46995524  0.00000537  0.30422712  1  0.04395  0  0.09594  0.143528  0  0.986727  0
H  H35  1  0.30422520  0.46995122  0.00000152  1  0.043901  0  0.095907  0.143463  0  0.986798  0
H  H36  1  0.99999792  0.46995194  0.30422439  1  0.043911  0  0.095931  0.143498  0  0.986757  0
H  H37  1  0.53004518  0.83427165  0.53005067  1  0.050719  0  0.095932  0.143528  0  0.98676  0
H  H38  1  0.30422844  0.00000358  0.46995272  1  0.043911  0  0.095924  0.143503  0  0.986799  0
H  H39  1  0.00000047  0.30421923  0.46994775  1  0.043957  0  0.0959  0.143465  0  0.986764  0
H  H40  1  0.16572705  0.69577857  0.69577454  1  0.045873  0  0.095922  0.143494  0  0.986765  0
H  H41  1  0.53004382  0.53004859  0.83427229  1  0.05075  0  0.095923  0.143506  0  0.986775  0
H  H42  1  0.48900848  0.19590238  0.92608234  1  0.060896  0  0.093556  0.137628  0  1.032771  0
H  H43  1  0.70689726  0.51099701  0.43707619  1  0.060475  0  0.09354  0.137611  0  1.032684  0
H  H44  1  0.80410013  0.29310601  0.73018161  1  0.057151  0  0.093526  0.137601  0  1.032773  0
H  H45  1  0.70689700  0.43707269  0.51099757  1  0.060393  0  0.093553  0.137643  0  1.032641  0
H  H46  1  0.80409529  0.73017806  0.29310097  1  0.057207  0  0.093547  0.137646  0  1.032731  0
H  H47  1  0.48900637  0.92608558  0.19590470  1  0.060784  0  0.093573  0.137667  0  1.032732  0
H  H48  1  0.73017383  0.80410231  0.29310235  1  0.057141  0  0.093527  0.137602  0  1.032729  0
H  H49  1  0.56292798  0.07392823  0.26982755  1  0.060625  0  0.093529  0.137584  0  1.032755  0
H  H50  1  0.26982828  0.56292797  0.07392666  1  0.06062  0  0.093546  0.137824  0  1.032517  0
H  H51  1  0.92607960  0.48900366  0.19590323  1  0.060282  0  0.093561  0.137615  0  1.032806  0
H  H52  1  0.43707064  0.70689947  0.51099532  1  0.060327  0  0.093562  0.137632  0  1.032709  0
H  H53  1  0.07392226  0.56292385  0.26982363  1  0.060636  0  0.093554  0.137811  0  1.032574  0
H  H54  1  0.56293218  0.26982716  0.07392752  1  0.060668  0  0.093545  0.137602  0  1.032769  0
H  H55  1  0.26982985  0.07392888  0.56293272  1  0.060681  0  0.093571  0.137846  0  1.032543  0
H  H56  1  0.07392192  0.26982340  0.56292791  1  0.060585  0  0.093539  0.137814  0  1.032562  0
H  H57  1  0.19590202  0.48900479  0.92608244  1  0.060345  0  0.093554  0.137637  0  1.03276  0
H  H58  1  0.51099420  0.70689890  0.43707749  1  0.056497  0  0.093566  0.137688  0  1.032682  0
H  H59  1  0.29310353  0.80410195  0.73017621  1  0.057152  0  0.093524  0.137575  0  1.032742  0
H  H60  1  0.29310254  0.73018107  0.80409895  1  0.057213  0  0.093551  0.137636  0  1.032699  0
H  H61  1  0.92607457  0.19589520  0.48900188  1  0.060409  0  0.093526  0.13757  0  1.032742  0
H  H62  1  0.43707276  0.51099772  0.70689999  1  0.060257  0  0.093561  0.137632  0  1.032664  0
H  H63  1  0.73017735  0.29310739  0.80410600  1  0.057107  0  0.093551  0.137613  0  1.032653  0
H  H64  1  0.51099510  0.43707851  0.70690085  1  0.056506  0  0.093582  0.137672  0  1.032683  0
H  H65  1  0.19590392  0.92608192  0.48900628  1  0.060572  0  0.093567  0.137679  0  1.032713  0
C  C66  1  0.62416151  0.36069018  0.99999447  1  0.942049  0  0.195564  0.382357  0  3.982115  0
C  C67  1  0.73652469  0.37583664  0.37583596  1  0.949661  0  0.195545  0.38238  0  3.98207  0
C  C68  1  0.63931165  0.26346821  0.63930784  1  0.951347  0  0.195533  0.382379  0  3.982004  0
C  C69  1  0.63931036  0.63930684  0.26346832  1  0.995113  0  0.195614  0.38252  0  3.982134  0
C  C70  1  0.62416452  0.00000340  0.36069411  1  0.942475  0  0.195547  0.382353  0  3.982104  0
C  C71  1  0.36069527  0.62416092  0.00000309  1  0.942586  0  0.195575  0.382412  0  3.982253  0
C  C72  1  0.99999672  0.62416287  0.36069169  1  0.941954  0  0.195529  0.382343  0  3.98227  0
C  C73  1  0.37583597  0.73653460  0.37584065  1  0.949321  0  0.195564  0.382465  0  3.982178  0
C  C74  1  0.36069295  0.99999853  0.62416032  1  0.942308  0  0.195569  0.382428  0  3.982082  0
C  C75  1  0.00000546  0.36069611  0.62416175  1  0.942579  0  0.195585  0.382452  0  3.98208  0
C  C76  1  0.26347132  0.63930972  0.63930964  1  0.99709  0  0.195581  0.382575  0  3.981926  0
C  C77  1  0.37583672  0.37583726  0.73652949  1  0.949274  0  0.195517  0.38241  0  3.982203  0
C  C78  1  0.77437201  0.51208695  0.05718656  1  0.372086  0  -0.028764  -0.07234  0  4.092912  0
C  C79  1  0.73771491  0.22562722  0.28281174  1  0.263272  0  -0.028715  -0.072288  0  4.093048  0
C  C80  1  0.48791424  0.26228352  0.54510358  1  0.408242  0  -0.028705  -0.072275  0  4.092899  0
C  C81  1  0.73771478  0.28281386  0.22562615  1  0.409516  0  -0.028759  -0.07237  0  4.093032  0
C  C82  1  0.48791162  0.54510039  0.26227956  1  0.40838  0  -0.028759  -0.072347  0  4.092928  0
C  C83  1  0.77437300  0.05718657  0.51208689  1  0.372116  0  -0.028715  -0.07221  0  4.092897  0
C  C84  1  0.54509721  0.48791467  0.26228711  1  0.262286  0  -0.028702  -0.072208  0  4.092944  0
C  C85  1  0.71718589  0.94281494  0.45490228  1  0.302965  0  -0.028778  -0.072367  0  4.092999  0
C  C86  1  0.45489667  0.71718355  0.94281065  1  0.30318  0  -0.028742  -0.072429  0  4.092896  0
C  C87  1  0.05718682  0.77437562  0.51208710  1  0.377138  0  -0.028775  -0.072317  0  4.092885  0
C  C88  1  0.28281253  0.73771141  0.22562416  1  0.410361  0  -0.028779  -0.072322  0  4.09294  0
C  C89  1  0.94281569  0.71719241  0.45490462  1  0.303139  0  -0.028731  -0.072234  0  4.09273  0
C  C90  1  0.71719066  0.45490293  0.94281604  1  0.302676  0  -0.02872  -0.072299  0  4.092823  0
C  C91  1  0.45490222  0.94281516  0.71719134  1  0.302678  0  -0.028755  -0.072288  0  4.092944  0
C  C92  1  0.94280966  0.45489816  0.71718036  1  0.302925  0  -0.028725  -0.072189  0  4.092899  0
C  C93  1  0.51208721  0.77437261  0.05718324  1  0.371841  0  -0.02875  -0.072267  0  4.09294  0
C  C94  1  0.22562582  0.73771421  0.28280992  1  0.264261  0  -0.028771  -0.072356  0  4.09285  0
C  C95  1  0.26228323  0.48791149  0.54509904  1  0.408005  0  -0.028773  -0.072333  0  4.093083  0
C  C96  1  0.26228081  0.54509585  0.48791189  1  0.261542  0  -0.028745  -0.072374  0  4.093142  0
C  C97  1  0.05717848  0.51208654  0.77437220  1  0.377498  0  -0.028731  -0.072336  0  4.092839  0
C  C98  1  0.28281081  0.22562403  0.73770921  1  0.309336  0  -0.028775  -0.072397  0  4.093035  0
C  C99  1  0.54509648  0.26228622  0.48791474  1  0.262318  0  -0.028799  -0.07241  0  4.092948  0
C  C100  1  0.22562843  0.28281379  0.73771681  1  0.363939  0  -0.028701  -0.072285  0  4.093001  0
C  C101  1  0.51208737  0.05718483  0.77436966  1  0.372171  0  -0.028749  -0.072389  0  4.093034  0
C  C102  1  0.53189589  0.27808977  0.00000444  1  -0.045439  0  -0.239146  -0.473171  0  3.96694  0
C  C103  1  0.74620158  0.46811338  0.46811453  1  -0.053665  0  -0.239159  -0.473198  0  3.966925  0
C  C104  1  0.72191639  0.25380508  0.72191877  1  -0.034409  0  -0.239092  -0.473153  0  3.966722  0
C  C105  1  0.72191193  0.72191565  0.25380175  1  -0.07816  0  -0.239122  -0.473177  0  3.96692  0
C  C106  1  0.53189413  0.00000580  0.27809185  1  -0.045221  0  -0.239129  -0.473135  0  3.966914  0
C  C107  1  0.27808730  0.53188983  0.00000164  1  -0.0449  0  -0.239115  -0.4733  0  3.966752  0
C  C108  1  0.00000087  0.53189194  0.27808857  1  -0.044742  0  -0.239121  -0.473265  0  3.96686  0
C  C109  1  0.46810597  0.74619767  0.46810841  1  -0.042745  0  -0.239151  -0.473249  0  3.967032  0
C  C110  1  0.27809028  0.00000374  0.53189057  1  -0.045069  0  -0.239151  -0.473421  0  3.966792  0
C  C111  1  0.99999872  0.27808319  0.53188736  1  -0.044925  0  -0.239088  -0.473263  0  3.966641  0
C  C112  1  0.25380059  0.72191541  0.72191254  1  -0.080169  0  -0.239112  -0.473152  0  3.966823  0
C  C113  1  0.46810543  0.46810825  0.74619803  1  -0.042633  0  -0.239136  -0.473179  0  3.967006  0
N  N114  1  0.71581151  0.45178414  0.09286502  1  -1.234453  0  -0.381143  -0.358132  0  3.565095  0
N  N115  1  0.73597553  0.28418706  0.37705372  1  -1.237276  0  -0.381192  -0.358207  0  3.565162  0
N  N116  1  0.54821868  0.26402402  0.64108444  1  -1.240241  0  -0.381153  -0.358146  0  3.56513  0
N  N117  1  0.73597887  0.37705777  0.28419134  1  -1.237353  0  -0.381156  -0.358117  0  3.565237  0
N  N118  1  0.54821995  0.64108468  0.26402238  1  -1.240399  0  -0.381192  -0.358209  0  3.565368  0
N  N119  1  0.71581012  0.09286645  0.45178654  1  -1.234512  0  -0.381178  -0.358174  0  3.565392  0
N  N120  1  0.64107631  0.54820808  0.26402058  1  -1.241145  0  -0.381218  -0.358314  0  3.564991  0
N  N121  1  0.62294589  0.90713365  0.35892195  1  -1.265561  0  -0.381137  -0.358103  0  3.565006  0
N  N122  1  0.35891743  0.62294140  0.90713369  1  -1.265543  0  -0.38117  -0.358092  0  3.565028  0
N  N123  1  0.09286373  0.71581064  0.45178392  1  -1.239853  0  -0.381148  -0.358174  0  3.565098  0
N  N124  1  0.37705479  0.73597595  0.28419066  1  -1.237298  0  -0.381146  -0.358233  0  3.565204  0
N  N125  1  0.90713437  0.62294847  0.35892131  1  -1.265002  0  -0.381206  -0.358266  0  3.565203  0
N  N126  1  0.62294652  0.35892300  0.90713345  1  -1.265132  0  -0.381218  -0.358194  0  3.565094  0
N  N127  1  0.35892383  0.90713399  0.62294532  1  -1.265449  0  -0.381178  -0.358224  0  3.565084  0
N  N128  1  0.90713615  0.35892017  0.62293957  1  -1.265516  0  -0.381189  -0.358222  0  3.5652  0
N  N129  1  0.45178767  0.71581111  0.09286568  1  -1.234449  0  -0.381225  -0.358299  0  3.565242  0
N  N130  1  0.28418480  0.73597239  0.37705217  1  -1.237331  0  -0.381163  -0.358155  0  3.565289  0
N  N131  1  0.26402108  0.54821256  0.64107861  1  -1.240209  0  -0.381175  -0.358231  0  3.565273  0
N  N132  1  0.26402006  0.64107725  0.54821031  1  -1.240065  0  -0.381174  -0.358205  0  3.565196  0
N  N133  1  0.09286466  0.45179148  0.71581426  1  -1.240059  0  -0.381282  -0.358347  0  3.565125  0
N  N134  1  0.37705383  0.28418883  0.73597564  1  -1.237317  0  -0.381128  -0.358165  0  3.565136  0
N  N135  1  0.64107661  0.26402302  0.54821101  1  -1.240984  0  -0.381142  -0.35817  0  3.565074  0
N  N136  1  0.28418887  0.37705517  0.73597593  1  -1.237369  0  -0.381145  -0.358164  0  3.565345  0
N  N137  1  0.45178631  0.09286670  0.71580971  1  -1.234484  0  -0.381146  -0.358051  0  3.565275  0
