# generated using pymatgen
data_CuH8(C5N2)2
_symmetry_space_group_name_H-M   'P 1'
_cell_length_a   4.76452875
_cell_length_b   7.55237657
_cell_length_c   13.98156780
_cell_angle_alpha   83.30894692
_cell_angle_beta   80.56683231
_cell_angle_gamma   74.94624914
_symmetry_Int_Tables_number   1
_chemical_formula_structural   CuH8(C5N2)2
_chemical_formula_sum   'Cu2 H16 C20 N8'
_cell_volume   477.82472363
_cell_formula_units_Z   2
loop_
 _symmetry_equiv_pos_site_id
 _symmetry_equiv_pos_as_xyz
  1  'x, y, z'
loop_
 _atom_site_type_symbol
 _atom_site_label
 _atom_site_symmetry_multiplicity
 _atom_site_fract_x
 _atom_site_fract_y
 _atom_site_fract_z
 _atom_site_occupancy
 _atom_site_pbe_bader_spin_density
 _atom_site_pbe_cm5_charge
 _atom_site_pbe_ddec_charge
 _atom_site_pbe_ddec_spin_density
 _atom_site_pbe_ddec_sum_bond_order
 _atom_site_pbe_magmom
Cu  Cu0  1  0.36657416  0.31441641  0.95659238  1  0  0.494766  0.340128  0  2.680588  0
Cu  Cu1  1  0.63341799  0.68557018  0.04340556  1  0  0.494751  0.340102  0  2.680727  0
H  H2  1  0.94050213  0.33143798  0.16591562  1  0  0.129894  0.09386  0  1.011333  0
H  H3  1  0.05947205  0.66856662  0.83409499  1  0  0.1299  0.09385  0  1.011445  0
H  H4  1  0.79781474  0.00532160  0.10089234  1  0  0.138499  0.120265  0  1.00682  0
H  H5  1  0.20214880  0.99467883  0.89910407  1  0  0.138494  0.120262  0  1.006869  0
H  H6  1  0.71471039  0.97491760  0.34975780  1  0  0.114502  0.104393  0  0.987219  0
H  H7  1  0.28529722  0.02508954  0.65024091  1  0  0.114501  0.104439  0  0.987272  0
H  H8  1  0.83426258  0.81250469  0.26053312  1  0  0.116461  0.111294  0  0.993684  0
H  H9  1  0.16574248  0.18750381  0.73946277  1  0  0.116498  0.111372  0  0.993596  0
H  H10  1  0.32922433  0.94409769  0.48274408  1  0  0.095288  0.090169  0  1.043125  0
H  H11  1  0.67078956  0.05590394  0.51725680  1  0  0.095278  0.09009  0  1.043204  0
H  H12  1  0.51994139  0.58729098  0.25001334  1  0  0.088526  0.079527  0  1.064536  0
H  H13  1  0.48007159  0.41271337  0.74998383  1  0  0.088564  0.079571  0  1.064525  0
H  H14  1  0.21470041  0.39571630  0.34552414  1  0  0.094145  0.091428  0  1.056411  0
H  H15  1  0.78531511  0.60428670  0.65447585  1  0  0.094126  0.091419  0  1.056355  0
H  H16  1  0.02616729  0.75513851  0.57960373  1  0  0.093968  0.085974  0  1.07484  0
H  H17  1  0.97384773  0.24486036  0.42039512  1  0  0.093959  0.085981  0  1.074796  0
C  C18  1  0.99913508  0.33487580  0.92506886  1  0  -0.063371  -0.154593  0  3.953384  0
C  C19  1  0.00085662  0.66511215  0.07492688  1  0  -0.063412  -0.154591  0  3.952819  0
C  C20  1  0.14625004  0.23030284  0.17278689  1  0  0.141823  0.138814  0  3.984489  0
C  C21  1  0.85372858  0.76969621  0.82721812  1  0  0.141806  0.13874  0  3.984622  0
C  C22  1  0.58136823  0.06819152  0.13698141  1  0  0.153963  0.063211  0  3.925794  0
C  C23  1  0.41860264  0.93180615  0.86301765  1  0  0.153991  0.063161  0  3.926058  0
C  C24  1  0.63930031  0.89605895  0.30222256  1  0  -0.042173  -0.139041  0  3.887669  0
C  C25  1  0.36070350  0.10394134  0.69777749  1  0  -0.042189  -0.139205  0  3.887958  0
C  C26  1  0.30670998  0.82216305  0.45289385  1  0  -0.093226  -0.130382  0  3.996946  0
C  C27  1  0.69329757  0.17783860  0.54710592  1  0  -0.093184  -0.130304  0  3.996924  0
C  C28  1  0.45077964  0.77819342  0.36021602  1  0  -0.016372  0.083384  0  3.997597  0
C  C29  1  0.54922522  0.22180412  0.63978415  1  0  -0.016323  0.083434  0  3.99756  0
C  C30  1  0.41331784  0.62298185  0.32290272  1  0  -0.095288  -0.122747  0  3.977583  0
C  C31  1  0.58668813  0.37701843  0.67709651  1  0  -0.095335  -0.122809  0  3.977513  0
C  C32  1  0.23781022  0.51535998  0.37721139  1  0  -0.090362  -0.111618  0  3.944698  0
C  C33  1  0.76220042  0.48463892  0.62279054  1  0  -0.090386  -0.111646  0  3.944465  0
C  C34  1  0.09283200  0.55780663  0.47105466  1  0  -0.005288  0.068059  0  3.963927  0
C  C35  1  0.90718299  0.44219224  0.52894490  1  0  -0.005205  0.068245  0  3.96377  0
C  C36  1  0.13172243  0.71456604  0.50753594  1  0  -0.091339  -0.120668  0  3.966177  0
C  C37  1  0.86829674  0.28543282  0.49246555  1  0  -0.091389  -0.120687  0  3.965969  0
N  N38  1  0.75603267  0.32998102  0.92080798  1  0  -0.45333  -0.324519  0  3.688091  0
N  N39  1  0.24397594  0.67000139  0.07919009  1  0  -0.45327  -0.324505  0  3.687629  0
N  N40  1  0.37177407  0.19709741  0.09797956  1  0  -0.367002  -0.284  0  3.586153  0
N  N41  1  0.62819413  0.80290715  0.90202064  1  0  -0.366969  -0.283842  0  3.586223  0
N  N42  1  0.48320810  0.02702680  0.23068693  1  0  -0.127695  0.174312  0  3.71834  0
N  N43  1  0.51678082  0.97297905  0.76931354  1  0  -0.127739  0.174358  0  3.718485  0
N  N44  1  0.20500297  0.13010618  0.25501870  1  0  -0.216435  -0.257348  0  3.11444  0
N  N45  1  0.79499645  0.86989965  0.74498552  1  0  -0.216423  -0.257338  0  3.114453  0
