# generated using pymatgen
data_MnH30C28(NO5)2
_symmetry_space_group_name_H-M   'P 1'
_cell_length_a   10.71168706
_cell_length_b   12.24895508
_cell_length_c   23.89350698
_cell_angle_alpha   90.39438526
_cell_angle_beta   89.99983196
_cell_angle_gamma   90.00030564
_symmetry_Int_Tables_number   1
_chemical_formula_structural   MnH30C28(NO5)2
_chemical_formula_sum   'Mn4 H120 C112 N8 O40'
_cell_volume   3134.92047257
_cell_formula_units_Z   4
loop_
 _symmetry_equiv_pos_site_id
 _symmetry_equiv_pos_as_xyz
  1  'x, y, z'
loop_
 _atom_site_type_symbol
 _atom_site_label
 _atom_site_symmetry_multiplicity
 _atom_site_fract_x
 _atom_site_fract_y
 _atom_site_fract_z
 _atom_site_occupancy
 _atom_site_pbe_bader_charge
 _atom_site_pbe_bader_spin_density
 _atom_site_pbe_cm5_charge
 _atom_site_pbe_ddec_charge
 _atom_site_pbe_ddec_spin_density
 _atom_site_pbe_ddec_sum_bond_order
 _atom_site_pbe_magmom
Mn  Mn0  1  0.78791096  0.32782968  0.72577941  1  1.516631  -4.569328  0.58288  1.020996  -4.692191  2.249616  -4.5
Mn  Mn1  1  0.28793493  0.17216280  0.77421334  1  1.516391  -4.569259  0.582813  1.020797  -4.691835  2.250188  -4.5
Mn  Mn2  1  0.21209288  0.67217566  0.27421333  1  1.516407  -4.569302  0.58285  1.020996  -4.691903  2.249609  -4.5
Mn  Mn3  1  0.71206984  0.82784405  0.22578653  1  1.516524  4.569168  0.582803  1.02085  4.699076  2.249993  4.5
H  H4  1  0.93939915  0.55530329  0.53345016  1  0.081621  -6.2e-05  0.104953  0.106188  -1.4e-05  1.023395  0.0
H  H5  1  0.43939834  0.94469281  0.96655087  1  0.08152  -5.6e-05  0.104918  0.106185  -1.3e-05  1.023415  0.0
H  H6  1  0.06060095  0.44469949  0.46654884  1  0.081485  -6.1e-05  0.104961  0.106229  -1.5e-05  1.023335  0.0
H  H7  1  0.56060736  0.05530015  0.03345015  1  0.081625  5.4e-05  0.104934  0.106169  1.3e-05  1.023275  0.0
H  H8  1  0.94371932  0.65034000  0.44130241  1  0.1119  -3.8e-05  0.099263  0.11  -3e-06  1.062252  0.0
H  H9  1  0.44371123  0.84966191  0.05870286  1  0.111073  4.2e-05  0.099283  0.109949  9e-06  1.062257  0.0
H  H10  1  0.05627985  0.34966521  0.55869787  1  0.111947  -4.3e-05  0.099268  0.109921  -8e-06  1.062294  0.0
H  H11  1  0.55628701  0.15033256  0.94130528  1  0.110723  -4.5e-05  0.099287  0.109968  -1.3e-05  1.062163  0.0
H  H12  1  0.85697824  0.78899138  0.37754075  1  0.038949  -0.000197  0.093162  0.085385  -0.000231  1.042892  0.0
H  H13  1  0.35696889  0.71100770  0.12246294  1  0.038874  0.00019  0.093188  0.085408  0.000234  1.042895  0.0
H  H14  1  0.14302372  0.21101706  0.62246165  1  0.038908  -0.000397  0.093154  0.085357  0.000124  1.042908  0.0
H  H15  1  0.64302001  0.28898847  0.87754103  1  0.038686  -0.000389  0.093151  0.085384  0.000121  1.042905  0.0
H  H16  1  0.67565505  0.90297986  0.40742128  1  0.060358  0.000125  0.091542  0.0891  -0.000104  1.061931  0.0
H  H17  1  0.17564706  0.59701677  0.09258180  1  0.060253  -0.000153  0.091539  0.089059  8e-05  1.061949  0.0
H  H18  1  0.32434598  0.09702287  0.59258107  1  0.06035  -0.000158  0.091576  0.089123  7.7e-05  1.061916  0.0
H  H19  1  0.82434184  0.40298352  0.90741969  1  0.060313  -0.00013  0.091559  0.08913  0.000101  1.061954  0.0
H  H20  1  0.57647141  0.87392206  0.49971833  1  0.05882  -9e-06  0.095027  0.094032  0.0  1.040335  0.0
H  H21  1  0.07646793  0.62607574  0.00028489  1  0.058682  4e-06  0.095044  0.09405  6e-06  1.040396  0.0
H  H22  1  0.42352869  0.12607905  0.50028275  1  0.058768  -1.4e-05  0.095036  0.094052  -1.1e-05  1.040342  0.0
H  H23  1  0.92353217  0.37393109  0.99971624  1  0.058544  -2e-06  0.095089  0.094154  -6e-06  1.040386  0.0
H  H24  1  0.48719427  0.62503144  0.51709409  1  0.075689  3.1e-05  0.096495  0.094054  2.9e-05  1.042328  0.0
H  H25  1  0.98718667  0.87496320  0.98290937  1  0.075935  -4.2e-05  0.096514  0.094083  -2.8e-05  1.042257  0.0
H  H26  1  0.51281330  0.37495982  0.48291026  1  0.075939  -3e-05  0.096513  0.094055  -3.5e-05  1.042233  0.0
H  H27  1  0.01281530  0.12503870  0.01709339  1  0.075929  -4.4e-05  0.096523  0.094093  -3.4e-05  1.042224  0.0
H  H28  1  0.28333001  0.57669593  0.47504832  1  0.046024  -6.6e-05  0.094994  0.094102  -1.8e-05  1.031258  0.0
H  H29  1  0.78331913  0.92329629  0.02495541  1  0.046073  1.3e-05  0.094995  0.094048  -2e-05  1.031257  0.0
H  H30  1  0.71668222  0.42329047  0.52495431  1  0.046178  -2.6e-05  0.095005  0.094098  1.2e-05  1.031229  0.0
H  H31  1  0.21668004  0.07670319  0.97504607  1  0.046045  -8e-05  0.094967  0.094023  -2.8e-05  1.031281  0.0
H  H32  1  0.09065936  0.67608738  0.50353708  1  0.070198  -1.3e-05  0.095264  0.091244  6e-06  1.05968  0.0
H  H33  1  0.59064762  0.82390383  0.99646480  1  0.070084  5e-06  0.095228  0.091217  -1e-06  1.059711  0.0
H  H34  1  0.90935848  0.32390812  0.49645810  1  0.070302  -1.9e-05  0.095259  0.091228  -6e-06  1.059741  0.0
H  H35  1  0.40935621  0.17609157  0.00353623  1  0.070065  0.0  0.095212  0.091198  1.9e-05  1.059734  0.0
H  H36  1  0.10038726  0.82003682  0.57689830  1  0.047608  -1.8e-05  0.099977  0.100814  -9e-06  0.999764  0.0
H  H37  1  0.60038258  0.67995773  0.92310192  1  0.047526  -1e-05  0.099984  0.100822  -4e-06  0.999865  0.0
H  H38  1  0.89961751  0.17996610  0.42309275  1  0.047694  -7e-06  0.099933  0.100781  -8e-06  0.99984  0.0
H  H39  1  0.39962592  0.32004013  0.07689872  1  0.047839  -1e-06  0.099968  0.100841  3e-06  0.99984  0.0
H  H40  1  0.22634421  0.93461043  0.64216987  1  0.072371  -0.000263  0.102345  0.102042  6.9e-05  1.009774  0.0
H  H41  1  0.72634299  0.56538718  0.85782811  1  0.07273  -0.000259  0.102313  0.102018  7.1e-05  1.009784  0.0
H  H42  1  0.77365029  0.06538758  0.35782155  1  0.072873  0.000252  0.102367  0.102026  -7.1e-05  1.009748  0.0
H  H43  1  0.27365898  0.43461717  0.14217467  1  0.072676  -0.000255  0.102397  0.10206  6.9e-05  1.009752  0.0
H  H44  1  0.89926102  0.15316013  0.64577444  1  0.086195  -0.001984  0.126329  0.044173  -0.001188  1.002114  0.0
H  H45  1  0.39925380  0.34685819  0.85421711  1  0.085952  -0.001984  0.126328  0.044217  -0.001189  1.002137  0.0
H  H46  1  0.10075215  0.84685181  0.35421375  1  0.086051  -0.000963  0.126324  0.0443  -0.000484  1.00199  0.0
H  H47  1  0.60073883  0.65315609  0.14577780  1  0.085889  0.000964  0.126326  0.044144  0.000487  1.002172  0.0
H  H48  1  0.58826446  0.15784769  0.58867607  1  0.082114  -0.000411  0.109323  0.124941  6.7e-05  1.016604  0.0
H  H49  1  0.08826057  0.34214292  0.91132488  1  0.08243  -0.00041  0.10934  0.124974  6.7e-05  1.016589  0.0
H  H50  1  0.41173844  0.84214523  0.41132704  1  0.082512  -0.000353  0.109328  0.12498  8.5e-05  1.016601  0.0
H  H51  1  0.91174233  0.65785163  0.08867865  1  0.082374  0.000348  0.109324  0.124935  -8.8e-05  1.016638  0.0
H  H52  1  0.60562179  0.01911005  0.56577736  1  0.059791  -0.000269  0.102893  0.114779  -0.000157  1.025473  0.0
H  H53  1  0.10561767  0.48088958  0.93422574  1  0.05975  -0.000268  0.102898  0.114845  -0.000157  1.025479  0.0
H  H54  1  0.39437738  0.98089264  0.43422708  1  0.059731  -0.000257  0.102929  0.114848  -0.000157  1.02554  0.0
H  H55  1  0.89437963  0.51910903  0.06577867  1  0.059745  0.000256  0.102885  0.114764  0.000159  1.025512  0.0
H  H56  1  0.65145725  0.12853386  0.52087818  1  0.052482  -0.000259  0.100727  0.112228  -0.000152  1.040416  0.0
H  H57  1  0.15146524  0.37146597  0.97912569  1  0.052373  -0.000266  0.100715  0.11224  -0.00016  1.04046  0.0
H  H58  1  0.34852885  0.87146475  0.47912664  1  0.0523  -0.000266  0.100742  0.112286  -0.000159  1.040465  0.0
H  H59  1  0.84854326  0.62853101  0.02087871  1  0.052449  0.000256  0.100746  0.112279  0.000153  1.040429  0.0
H  H60  1  0.95029856  0.03189870  0.58489608  1  0.083168  -0.000239  0.106294  0.111324  -0.000107  1.007434  0.0
H  H61  1  0.45030102  0.46810831  0.91510242  1  0.082904  -0.000233  0.106283  0.11135  -0.000101  1.007422  0.0
H  H62  1  0.04969687  0.96809430  0.41510200  1  0.083111  -9.1e-05  0.106264  0.111273  -0.0  1.007514  0.0
H  H63  1  0.54970094  0.53189856  0.08489661  1  0.083048  8.4e-05  0.10628  0.111271  -4e-06  1.007475  0.0
H  H64  1  0.86675451  0.03166771  0.52016309  1  0.096349  -0.000334  0.103964  0.118681  -0.000203  0.994814  0.0
H  H65  1  0.36675282  0.46833155  0.97983672  1  0.096354  -0.000325  0.103953  0.118661  -0.000198  0.994759  0.0
H  H66  1  0.13323719  0.96831957  0.47983537  1  0.096361  -0.000341  0.103968  0.118587  -0.000214  0.994988  0.0
H  H67  1  0.63324822  0.53167285  0.02016354  1  0.096351  0.000315  0.103968  0.118642  0.000196  0.994867  0.0
H  H68  1  0.82529678  0.93652624  0.57363503  1  0.088471  -0.000424  0.107188  0.129742  -0.000259  0.999827  0.0
H  H69  1  0.32529389  0.56348072  0.92636833  1  0.088629  -0.000425  0.107184  0.129728  -0.00026  0.99991  0.0
H  H70  1  0.17469212  0.06347157  0.42636811  1  0.088824  -0.000422  0.107174  0.129675  -0.000257  0.999847  0.0
H  H71  1  0.67470247  0.43652610  0.07363322  1  0.08851  0.00042  0.107176  0.12969  0.000257  0.999817  0.0
H  H72  1  0.94847049  0.23222326  0.82491550  1  0.099861  -0.001479  0.128609  0.05427  -0.000618  0.988426  0.0
H  H73  1  0.44848821  0.26777725  0.67508086  1  0.100025  -0.001485  0.128575  0.054309  -0.000624  0.988422  0.0
H  H74  1  0.05150347  0.76777960  0.17507889  1  0.100035  -0.001456  0.128584  0.054309  -0.000919  0.988452  0.0
H  H75  1  0.55152309  0.73221990  0.32491349  1  0.100102  0.001451  0.128669  0.054398  0.000916  0.988357  0.0
H  H76  1  0.72969855  0.01121748  0.80478147  1  0.115861  -0.000535  0.114816  0.140231  4e-06  0.992501  0.0
H  H77  1  0.22970163  0.48877711  0.69521556  1  0.115755  -0.000535  0.114838  0.140255  4e-06  0.992608  0.0
H  H78  1  0.27028755  0.98877884  0.19521329  1  0.115892  -0.000171  0.114862  0.140283  0.000126  0.992655  0.0
H  H79  1  0.77029754  0.51121996  0.30478340  1  0.115915  0.000172  0.114853  0.140272  -0.000125  0.992556  0.0
H  H80  1  0.71818213  0.99834146  0.87925852  1  0.07819  -0.000396  0.105056  0.123656  -0.000235  0.99518  0.0
H  H81  1  0.21818271  0.50165203  0.62073986  1  0.078183  -0.000401  0.105053  0.123682  -0.00024  0.995167  0.0
H  H82  1  0.28181237  0.00165648  0.12073709  1  0.078074  -0.000291  0.105084  0.12374  -0.000177  0.995224  0.0
H  H83  1  0.78181272  0.49834504  0.37925910  1  0.078244  0.000287  0.105029  0.123649  0.000173  0.995171  0.0
H  H84  1  0.83258323  0.92063574  0.84163858  1  0.085382  -0.000393  0.109672  0.129776  -0.000236  0.978957  0.0
H  H85  1  0.33258124  0.57936319  0.65835926  1  0.085364  -0.000396  0.109668  0.129785  -0.000237  0.978921  0.0
H  H86  1  0.16740940  0.07936547  0.15835706  1  0.085282  -0.000293  0.109687  0.129812  -0.000181  0.978885  0.0
H  H87  1  0.66741512  0.42063388  0.34164011  1  0.085348  0.000291  0.109671  0.129788  0.00018  0.978947  0.0
H  H88  1  0.02135181  0.15195116  0.89629870  1  0.074764  -0.000168  0.108366  0.119785  0.000123  1.019882  0.0
H  H89  1  0.52135116  0.34804651  0.60370073  1  0.074665  -0.000165  0.108325  0.119745  0.000125  1.019955  0.0
H  H90  1  0.97864362  0.84804844  0.10369525  1  0.074643  -8.2e-05  0.108318  0.119667  -0.000194  1.020026  0.0
H  H91  1  0.47864240  0.65195384  0.39629700  1  0.074638  7.5e-05  0.108331  0.119714  0.000189  1.019846  0.0
H  H92  1  0.00482082  0.00705009  0.89907894  1  0.078568  -0.000311  0.103132  0.119444  -0.000163  1.026554  0.0
H  H93  1  0.50482761  0.49295001  0.60091718  1  0.078588  -0.000312  0.103101  0.119428  -0.000164  1.02648  0.0
H  H94  1  0.99516995  0.99295119  0.10091251  1  0.078454  -0.000306  0.10313  0.119397  -0.000197  1.026718  0.0
H  H95  1  0.49516969  0.50704953  0.39908012  1  0.078593  0.000306  0.10313  0.119444  0.000198  1.026535  0.0
H  H96  1  0.89828153  0.09282974  0.93686072  1  0.06206  -0.000553  0.099154  0.11115  -0.000339  1.019254  0.0
H  H97  1  0.39828403  0.40716236  0.56313606  1  0.062017  -0.000557  0.099103  0.111127  -0.000343  1.019163  0.0
H  H98  1  0.10171391  0.90716580  0.06313195  1  0.061821  -0.000554  0.099166  0.111179  -0.00033  1.019088  0.0
H  H99  1  0.60171327  0.59283717  0.43686249  1  0.061984  0.00055  0.099089  0.111084  0.000329  1.01926  0.0
H  H100  1  0.68183330  0.56178623  0.67803347  1  0.645198  -0.000385  0.303455  0.351791  0.000397  0.978324  0.0
H  H101  1  0.18183525  0.93821112  0.82196833  1  0.645236  -0.000385  0.30337  0.351594  0.000397  0.978533  0.0
H  H102  1  0.31816960  0.43821570  0.32196803  1  0.6452  -0.000384  0.303392  0.351661  0.000397  0.978478  0.0
H  H103  1  0.81818352  0.06178105  0.17803058  1  0.645287  0.000384  0.303402  0.351626  -0.000397  0.978587  0.0
H  H104  1  0.62666482  0.95240886  0.68578167  1  0.637945  -0.0  0.300194  0.34817  1.3e-05  0.982582  0.0
H  H105  1  0.12666630  0.54759394  0.81422067  1  0.638045  -1e-06  0.300232  0.348217  1.3e-05  0.982507  0.0
H  H106  1  0.37332314  0.04759468  0.31422111  1  0.638045  -7e-06  0.300209  0.348182  7e-06  0.982523  0.0
H  H107  1  0.87333100  0.45240472  0.18578080  1  0.63803  7e-06  0.300217  0.348208  -7e-06  0.982558  0.0
H  H108  1  0.98976648  0.36484884  0.66879449  1  0.651758  -0.000475  0.290549  0.37566  -0.000898  0.972749  -0.001
H  H109  1  0.48976465  0.13514850  0.83120765  1  0.65159  -0.000476  0.290584  0.375643  -0.000898  0.972789  -0.001
H  H110  1  0.01023082  0.63514901  0.33120656  1  0.651681  -0.00046  0.290547  0.375653  -0.000855  0.972754  -0.001
H  H111  1  0.51023732  0.86484852  0.16879465  1  0.651759  0.00046  0.290605  0.375687  0.000858  0.972713  0.001
H  H112  1  0.02423865  0.37509568  0.73461469  1  0.652362  -0.000538  0.293813  0.381627  -0.000882  0.9631  -0.001
H  H113  1  0.52423186  0.12490603  0.76538811  1  0.652428  -0.000538  0.293813  0.381549  -0.000883  0.963197  -0.001
H  H114  1  0.97575585  0.62490624  0.26538723  1  0.65238  -0.0005  0.293794  0.381541  -0.0009  0.963201  -0.001
H  H115  1  0.47575797  0.87509507  0.23461381  1  0.652366  0.0005  0.293866  0.381604  0.000903  0.963116  0.001
H  H116  1  0.63074807  0.40901309  0.79271535  1  0.60945  -0.001385  0.315496  0.391541  -0.000771  0.908402  -0.001
H  H117  1  0.13075144  0.09099233  0.70729027  1  0.609659  -0.001386  0.315461  0.391488  -0.000772  0.908554  -0.001
H  H118  1  0.36925390  0.59099049  0.20728533  1  0.609497  -0.001365  0.315507  0.391487  -0.000713  0.908545  -0.001
H  H119  1  0.86925240  0.90901197  0.29271544  1  0.609455  0.001365  0.315459  0.391437  0.000715  0.908596  0.001
H  H120  1  0.56321872  0.29515962  0.77919548  1  0.649004  -0.001375  0.292227  0.391732  -0.000584  0.949702  -0.002
H  H121  1  0.06322643  0.20484225  0.72080810  1  0.649067  -0.001376  0.292255  0.391848  -0.000584  0.949566  -0.002
H  H122  1  0.43678511  0.70484478  0.22080436  1  0.64892  -0.000739  0.292226  0.391789  -0.001265  0.949622  -0.001
H  H123  1  0.93677740  0.79515718  0.27919589  1  0.649011  0.00074  0.292224  0.391784  0.001266  0.949644  0.001
C  C124  1  0.85096813  0.49446605  0.63242606  1  1.546381  -0.008811  0.218746  0.593554  -0.00801  4.171646  -0.007
C  C125  1  0.35096527  0.00553399  0.86757127  1  1.546588  -0.008813  0.218853  0.593761  -0.008011  4.171592  -0.007
C  C126  1  0.14903571  0.50553182  0.36757416  1  1.547094  -0.008794  0.218699  0.593512  -0.007998  4.171665  -0.007
C  C127  1  0.64904603  0.99446551  0.13242855  1  1.547103  0.008798  0.218824  0.593584  0.008015  4.171762  0.007
C  C128  1  0.80177739  0.58320617  0.59617975  1  -0.003481  -0.001031  -0.036563  -0.179314  -0.000667  4.018849  0.0
C  C129  1  0.30178148  0.91678767  0.90382102  1  -0.003249  -0.001046  -0.036545  -0.17935  -0.000675  4.018844  0.0
C  C130  1  0.19822458  0.41679414  0.40382090  1  -0.003469  -0.001032  -0.036547  -0.179228  -0.000663  4.018813  0.0
C  C131  1  0.69823076  0.08320608  0.09618125  1  -0.003413  0.001025  -0.03653  -0.179177  0.000663  4.018632  0.0
C  C132  1  0.85803953  0.60383420  0.54517117  1  -0.084627  -0.002939  -0.07973  -0.120924  -0.002288  3.989271  -0.002
C  C133  1  0.35803476  0.89616309  0.95483375  1  -0.084493  -0.002939  -0.079654  -0.120886  -0.00229  3.98914  -0.002
C  C134  1  0.14196244  0.39616608  0.45483074  1  -0.08462  -0.002856  -0.079703  -0.121039  -0.002225  3.989252  -0.002
C  C135  1  0.64196347  0.10383466  0.04517358  1  -0.084718  0.002814  -0.079687  -0.12091  0.002197  3.988918  0.002
C  C136  1  0.81143565  0.68353619  0.50825918  1  -0.062883  9.3e-05  -0.021357  0.045937  7.6e-05  4.039035  0.0
C  C137  1  0.31142736  0.81646007  0.99174537  1  -0.06352  6.7e-05  -0.021263  0.046068  4.4e-05  4.039266  0.0
C  C138  1  0.18856911  0.31646492  0.49174190  1  -0.063212  5e-05  -0.021291  0.046112  3.3e-05  4.038902  0.0
C  C139  1  0.68857461  0.18353278  0.00826150  1  -0.062943  -8.8e-05  -0.021278  0.046043  -7e-05  4.039159  0.0
C  C140  1  0.86552540  0.70116675  0.45475211  1  -0.050524  -0.000843  -0.09417  -0.132686  -0.000619  3.974078  -0.001
C  C141  1  0.36551522  0.79883480  0.04525326  1  -0.049572  -0.000701  -0.094205  -0.132626  -0.00058  3.974244  0.0
C  C142  1  0.13447657  0.29884007  0.54524985  1  -0.050691  -0.000851  -0.094163  -0.132648  -0.000652  3.973986  -0.001
C  C143  1  0.63448208  0.20116294  0.95475490  1  -0.049324  0.000677  -0.094268  -0.132765  0.000539  3.974202  0.0
C  C144  1  0.81718229  0.77856708  0.41916504  1  -0.031714  0.000131  -0.1085  -0.103293  2.4e-05  4.045114  0.0
C  C145  1  0.31716860  0.72143345  0.08083955  1  -0.031818  0.000338  -0.108591  -0.103508  0.00034  4.045651  0.0
C  C146  1  0.18282061  0.22143893  0.58083692  1  -0.031734  4e-05  -0.108502  -0.103243  0.000118  4.045101  0.0
C  C147  1  0.68282309  0.27856028  0.91916398  1  -0.031678  -0.000404  -0.108498  -0.103318  -0.000224  4.045236  0.0
C  C148  1  0.71297102  0.84200920  0.43586972  1  -0.081181  -0.000905  -0.100389  -0.08527  -0.000791  4.032115  -0.001
C  C149  1  0.21296079  0.65799003  0.06413417  1  -0.081131  -0.000938  -0.100298  -0.085017  -0.000655  4.032232  -0.001
C  C150  1  0.28703374  0.15799760  0.56413308  1  -0.081087  -0.000987  -0.10048  -0.085391  -0.000701  4.032071  -0.001
C  C151  1  0.78703278  0.34201025  0.93586774  1  -0.081141  0.000829  -0.100445  -0.085306  0.000726  4.032161  0.0
C  C152  1  0.65765739  0.82595371  0.48726054  1  -0.073845  0.000318  -0.101515  -0.148627  0.000256  4.000365  0.0
C  C153  1  0.15765599  0.67403878  0.01274086  1  -0.073865  0.000259  -0.101545  -0.148634  0.00019  4.000583  0.0
C  C154  1  0.34233991  0.17404417  0.51273843  1  -0.073833  0.000217  -0.101503  -0.148652  0.000142  4.000387  0.0
C  C155  1  0.84233944  0.32596557  0.98726234  1  -0.073659  -0.000323  -0.101479  -0.148697  -0.000261  4.000598  0.0
C  C156  1  0.70377114  0.74601094  0.52495329  1  0.018881  -0.000781  -0.006904  0.039977  -0.000589  4.005933  0.0
C  C157  1  0.20376818  0.75398402  0.97505056  1  0.019395  -0.00078  -0.007023  0.039611  -0.000599  4.006399  0.0
C  C158  1  0.29623082  0.25398855  0.47504736  1  0.019407  -0.000809  -0.006912  0.039938  -0.000627  4.005947  0.0
C  C159  1  0.79623659  0.24601053  0.02495256  1  0.018971  0.000737  -0.006894  0.039937  0.000563  4.006071  0.0
C  C160  1  0.64549624  0.72511408  0.57720198  1  0.073225  0.000232  -0.027194  -0.089288  0.00017  3.992606  0.0
C  C161  1  0.14549094  0.77488305  0.92280238  1  0.073114  0.000212  -0.027178  -0.088974  0.000156  3.992227  0.0
C  C162  1  0.35451132  0.27489028  0.42279996  1  0.073151  0.00032  -0.027158  -0.089121  0.000225  3.992128  0.0
C  C163  1  0.85451383  0.22511152  0.07719948  1  0.073528  -0.00034  -0.027204  -0.089006  -0.000237  3.992252  0.0
C  C164  1  0.69324000  0.64473173  0.61235869  1  0.509136  -0.000792  0.090117  0.258317  -0.000554  4.056834  0.0
C  C165  1  0.19324102  0.85526238  0.88764475  1  0.509592  -0.000775  0.090067  0.258254  -0.000539  4.056893  0.0
C  C166  1  0.30676104  0.35526693  0.38764321  1  0.509203  -0.000746  0.090093  0.258256  -0.000516  4.056847  0.0
C  C167  1  0.80677215  0.14472976  0.11235626  1  0.509348  0.000712  0.090009  0.258122  0.000492  4.056743  0.0
C  C168  1  0.52997675  0.78295047  0.59442744  1  0.037853  0.000448  -0.025984  -0.085933  0.000326  3.987901  0.0
C  C169  1  0.02997400  0.71704536  0.90557414  1  0.03781  0.000483  -0.026062  -0.086228  0.000355  3.987935  0.0
C  C170  1  0.47002709  0.21704251  0.40557190  1  0.037893  -0.000532  -0.026022  -0.086011  -0.000394  3.987834  0.0
C  C171  1  0.97002890  0.28295497  0.09442526  1  0.037723  0.000495  -0.026014  -0.08636  0.000369  3.988297  0.0
C  C172  1  0.41313052  0.75256825  0.57075742  1  0.006606  -0.001073  -0.004782  0.041247  -0.000835  3.999012  -0.001
C  C173  1  0.91312902  0.74742447  0.92924361  1  0.006266  -0.001057  -0.004779  0.041357  -0.000818  3.998899  -0.001
C  C174  1  0.58687051  0.24742883  0.42924111  1  0.006659  0.001053  -0.004815  0.041206  0.00082  3.999003  0.001
C  C175  1  0.08687388  0.25257341  0.07075618  1  0.006711  -0.001075  -0.004761  0.041416  -0.000836  3.998895  -0.001
C  C176  1  0.40281176  0.66808891  0.52987641  1  -0.091665  0.000381  -0.097451  -0.147198  0.000287  4.001639  0.0
C  C177  1  0.90280491  0.83190540  0.97012382  1  -0.091543  0.000446  -0.097435  -0.147232  0.000346  4.001539  0.0
C  C178  1  0.59719581  0.33190816  0.47012296  1  -0.091333  -0.000496  -0.09744  -0.147168  -0.000387  4.001447  0.0
C  C179  1  0.09719799  0.16809248  0.02987514  1  -0.091509  0.000339  -0.097416  -0.147225  0.000249  4.001556  0.0
C  C180  1  0.28921620  0.64146579  0.50645413  1  -0.032357  -0.001318  -0.093519  -0.069033  -0.000996  4.004111  -0.001
C  C181  1  0.78920843  0.85852307  0.99354788  1  -0.032443  -0.00127  -0.093491  -0.068902  -0.001038  4.004237  -0.001
C  C182  1  0.71079510  0.35852394  0.49354435  1  -0.032706  0.001261  -0.093501  -0.068967  0.001038  4.004248  0.001
C  C183  1  0.21079540  0.14147559  0.00645360  1  -0.032408  -0.001324  -0.093488  -0.068873  -0.001003  4.004324  -0.001
C  C184  1  0.17930460  0.69720279  0.52290503  1  -0.025116  0.000346  -0.102728  -0.100506  0.000292  4.035744  0.0
C  C185  1  0.67929472  0.80279214  0.97709424  1  -0.025132  0.000373  -0.102711  -0.100501  0.000274  4.035925  0.0
C  C186  1  0.82070764  0.30279189  0.47709055  1  -0.024819  -0.0004  -0.102714  -0.100448  -0.000284  4.03606  0.0
C  C187  1  0.32070725  0.19721144  0.02290602  1  -0.025096  0.000369  -0.102705  -0.100467  0.000309  4.035905  0.0
C  C188  1  0.18508438  0.77782098  0.56334038  1  -0.119677  -0.001077  -0.090534  -0.127209  -0.000837  3.996765  -0.001
C  C189  1  0.68507801  0.72217231  0.93666097  1  -0.119805  -0.001065  -0.090567  -0.127274  -0.000822  3.996835  -0.001
C  C190  1  0.81492505  0.22218107  0.43665360  1  -0.120578  0.001041  -0.090577  -0.127348  0.000809  3.996768  0.001
C  C191  1  0.31492583  0.27782962  0.06334053  1  -0.12027  -0.001058  -0.09059  -0.127398  -0.000824  3.996778  -0.001
C  C192  1  0.30089902  0.80774473  0.58811716  1  0.046336  0.000312  -0.020097  0.043709  0.00022  4.055035  0.0
C  C193  1  0.80089355  0.69225073  0.91188405  1  0.046564  0.000341  -0.02012  0.043659  0.000245  4.054908  0.0
C  C194  1  0.69910295  0.19225649  0.41187806  1  0.046212  -0.000356  -0.020016  0.043862  -0.000251  4.055005  0.0
C  C195  1  0.19910841  0.30775036  0.08811870  1  0.046367  0.000322  -0.020129  0.04364  0.000224  4.054826  0.0
C  C196  1  0.31027862  0.89142142  0.62870513  1  -0.071592  -0.00344  -0.080176  -0.113253  -0.002554  3.989584  -0.002
C  C197  1  0.81027757  0.60857901  0.87129401  1  -0.071887  -0.003427  -0.080105  -0.113209  -0.002543  3.989518  -0.002
C  C198  1  0.68971868  0.10858470  0.37128971  1  -0.071263  0.003414  -0.080179  -0.113264  0.002542  3.98976  0.002
C  C199  1  0.18972626  0.39142375  0.12870666  1  -0.071485  -0.00342  -0.080147  -0.113118  -0.002543  3.989551  -0.002
C  C200  1  0.42373415  0.92163999  0.65185613  1  -0.050672  -0.001166  -0.036705  -0.178655  -0.00083  4.015575  0.0
C  C201  1  0.92373587  0.57836258  0.84814414  1  -0.050674  -0.001137  -0.036715  -0.178711  -0.000809  4.01556  0.0
C  C202  1  0.57626315  0.07836283  0.34814120  1  -0.051191  0.001113  -0.036723  -0.178702  0.00078  4.015369  0.0
C  C203  1  0.07626516  0.42163528  0.15185608  1  -0.051171  -0.001141  -0.036695  -0.178716  -0.000796  4.015571  0.0
C  C204  1  0.43006918  0.01451266  0.69236888  1  1.530864  -0.008886  0.216297  0.594895  -0.008416  4.176076  -0.007
C  C205  1  0.93007086  0.48549014  0.80763171  1  1.530859  -0.00887  0.216302  0.594898  -0.0084  4.176127  -0.007
C  C206  1  0.56991598  0.98548848  0.30763095  1  1.532443  0.00886  0.216341  0.59496  0.008396  4.176047  0.007
C  C207  1  0.06992551  0.51450774  0.19236725  1  1.531745  -0.008858  0.216289  0.594825  -0.008375  4.17618  -0.007
C  C208  1  0.53537564  0.86519290  0.63504511  1  0.530214  -0.001433  0.090016  0.258519  -0.001092  4.056609  -0.001
C  C209  1  0.03537826  0.63480950  0.86495567  1  0.530184  -0.001429  0.090132  0.258785  -0.00109  4.05644  -0.001
C  C210  1  0.46461886  0.13480577  0.36495553  1  0.530149  0.001415  0.090063  0.258589  0.001066  4.056373  0.001
C  C211  1  0.96462371  0.36518838  0.13504370  1  0.53017  -0.001417  0.090105  0.258831  -0.001064  4.056484  -0.001
C  C212  1  0.80267688  0.16478891  0.63085458  1  1.377746  -0.006389  0.189053  0.314907  -0.006558  4.07211  -0.006
C  C213  1  0.30267323  0.33521829  0.86914078  1  1.378467  -0.00639  0.188915  0.314568  -0.006561  4.072265  -0.006
C  C214  1  0.19733816  0.83522622  0.36913824  1  1.378226  -0.006045  0.189064  0.314679  -0.006291  4.072291  -0.006
C  C215  1  0.69732687  0.66478526  0.13086158  1  1.378167  0.006042  0.189092  0.314878  0.006298  4.072303  0.006
C  C216  1  0.64628604  0.10127895  0.56448696  1  0.285544  -0.000419  -0.13509  -0.271961  -0.000272  3.875548  0.0
C  C217  1  0.14627767  0.39871842  0.93551606  1  0.285604  -0.000427  -0.13517  -0.272254  -0.000282  3.875625  0.0
C  C218  1  0.35371780  0.89871966  0.43551786  1  0.285846  -0.000383  -0.135182  -0.272213  -0.000263  3.875776  0.0
C  C219  1  0.85372056  0.60128100  0.06448836  1  0.285349  0.000373  -0.135134  -0.272115  0.000257  3.875536  0.0
C  C220  1  0.85838496  0.01987499  0.56557354  1  0.205711  -0.000795  -0.127396  -0.274038  -0.000789  3.903713  0.0
C  C221  1  0.35838457  0.48012914  0.93442548  1  0.205811  -0.000786  -0.12743  -0.274118  -0.000777  3.90357  0.0
C  C222  1  0.14161141  0.98011799  0.43442580  1  0.205466  -0.000756  -0.12738  -0.273812  -0.000741  3.903787  0.0
C  C223  1  0.64161740  0.51987771  0.06557481  1  0.205783  0.000739  -0.127402  -0.27394  0.000724  3.903497  0.0
C  C224  1  0.87675427  0.17069247  0.81452965  1  1.380884  -0.006925  0.184323  0.313525  -0.006978  4.088008  -0.006
C  C225  1  0.37675644  0.32929039  0.68547672  1  1.380237  -0.00694  0.184287  0.313547  -0.006993  4.087704  -0.006
C  C226  1  0.12323276  0.82929890  0.18546801  1  1.380188  -0.006694  0.184259  0.31367  -0.007257  4.088038  -0.006
C  C227  1  0.62323806  0.67069438  0.31452507  1  1.380418  0.006691  0.184116  0.313415  0.00727  4.08801  0.006
C  C228  1  0.78257734  0.99891685  0.84341014  1  0.219922  -0.000524  -0.127253  -0.264614  -0.000408  3.848672  0.0
C  C229  1  0.28258141  0.50107774  0.65658942  1  0.219994  -0.000528  -0.127318  -0.264706  -0.000411  3.84857  0.0
C  C230  1  0.21741343  0.00108271  0.15658632  1  0.220092  -0.000156  -0.127388  -0.264833  -9.7e-05  3.848688  0.0
C  C231  1  0.71741682  0.49891851  0.34340995  1  0.219922  0.000152  -0.127312  -0.264709  9.5e-05  3.848615  0.0
C  C232  1  0.95399274  0.08474935  0.89841477  1  0.243142  -0.000756  -0.131589  -0.281276  -0.00075  3.905675  0.0
C  C233  1  0.45399597  0.41524625  0.60158364  1  0.243074  -0.000762  -0.131557  -0.281291  -0.000757  3.905464  0.0
C  C234  1  0.04599803  0.91524947  0.10157708  1  0.243419  -0.000733  -0.131578  -0.281102  -0.000798  3.905361  0.0
C  C235  1  0.54600039  0.58475325  0.39841659  1  0.243228  0.000725  -0.13151  -0.281151  0.000794  3.905284  0.0
N  N236  1  0.77071360  0.09885334  0.58866933  1  -1.204255  -0.007352  -0.2743  0.043623  -0.005276  3.72379  -0.006
N  N237  1  0.27070634  0.40114878  0.91132813  1  -1.204534  -0.007344  -0.274131  0.043999  -0.005271  3.723565  -0.006
N  N238  1  0.22929117  0.90114533  0.41133173  1  -1.204797  -0.007287  -0.274261  0.043697  -0.005256  3.723855  -0.006
N  N239  1  0.72929096  0.59885725  0.08867174  1  -1.204206  0.007288  -0.274297  0.043783  0.005267  3.723581  0.006
N  N240  1  0.87231669  0.08741661  0.84991634  1  -1.201542  -0.008743  -0.27485  0.043776  -0.0064  3.719959  -0.007
N  N241  1  0.37232426  0.41257279  0.65008882  1  -1.200755  -0.008754  -0.274683  0.043799  -0.006408  3.719441  -0.007
N  N242  1  0.12766474  0.91258210  0.15008221  1  -1.201072  -0.008626  -0.274737  0.043684  -0.006371  3.719468  -0.007
N  N243  1  0.62767584  0.58742178  0.34991304  1  -1.201285  0.00862  -0.274701  0.043807  0.006377  3.719533  0.007
O  O244  1  0.78764550  0.47432558  0.67762793  1  -1.189845  -0.054828  -0.313899  -0.568902  -0.039145  2.329094  -0.022
O  O245  1  0.28764025  0.02568473  0.82237292  1  -1.189989  -0.054821  -0.313935  -0.568939  -0.039154  2.329329  -0.022
O  O246  1  0.21235927  0.52567718  0.32237275  1  -1.190556  -0.054782  -0.313931  -0.568957  -0.039129  2.329144  -0.022
O  O247  1  0.71236638  0.97431803  0.17762776  1  -1.190186  0.054791  -0.313923  -0.568906  0.039201  2.329584  0.022
O  O248  1  0.94816466  0.44279348  0.61848375  1  -1.185745  -0.006748  -0.306343  -0.534967  -0.004349  2.196207  -0.005
O  O249  1  0.44816669  0.05719970  0.88151130  1  -1.185556  -0.006755  -0.306445  -0.535045  -0.004355  2.196114  -0.005
O  O250  1  0.05183638  0.55720606  0.38151397  1  -1.185654  -0.006704  -0.306336  -0.53495  -0.004315  2.19612  -0.005
O  O251  1  0.55184648  0.94279406  0.11849014  1  -1.185975  0.006705  -0.306461  -0.535006  0.004327  2.196014  0.005
O  O252  1  0.63311480  0.62425826  0.66069780  1  -1.159243  -0.001423  -0.349809  -0.43745  -0.000794  2.298989  -0.001
O  O253  1  0.13311719  0.87573884  0.83930491  1  -1.159712  -0.001415  -0.349694  -0.43729  -0.000788  2.299059  -0.001
O  O254  1  0.36688904  0.37574284  0.33930412  1  -1.15928  -0.001381  -0.349769  -0.437398  -0.000778  2.299048  -0.001
O  O255  1  0.86690252  0.12425493  0.16069570  1  -1.159495  0.001367  -0.349699  -0.437305  0.000769  2.298986  0.001
O  O256  1  0.64687070  0.89295722  0.65715633  1  -1.153445  -0.000491  -0.350763  -0.442518  -0.000323  2.305457  0.0
O  O257  1  0.14687049  0.60704486  0.84284598  1  -1.153531  -0.000489  -0.350892  -0.442682  -0.000323  2.305364  0.0
O  O258  1  0.35312287  0.10704551  0.34284601  1  -1.153633  0.000483  -0.350834  -0.442559  0.000344  2.305349  0.0
O  O259  1  0.85313055  0.39295299  0.15715508  1  -1.153489  -0.000484  -0.350872  -0.442667  -0.000344  2.305375  0.0
O  O260  1  0.53584896  0.03489361  0.71574607  1  -1.164474  -0.005721  -0.303659  -0.537433  -0.003426  2.189617  -0.004
O  O261  1  0.03585132  0.46510575  0.78425419  1  -1.164533  -0.00571  -0.303675  -0.537459  -0.003418  2.18953  -0.004
O  O262  1  0.46413900  0.96511246  0.28425212  1  -1.164558  0.005646  -0.303772  -0.537603  0.003733  2.189638  0.004
O  O263  1  0.96414225  0.53489295  0.21574478  1  -1.16429  -0.005643  -0.303695  -0.537456  -0.003725  2.189523  -0.004
O  O264  1  0.33198487  0.07104778  0.70103330  1  -1.209684  -0.051584  -0.318083  -0.593547  -0.037282  2.323465  -0.023
O  O265  1  0.83199186  0.42895124  0.79897116  1  -1.20959  -0.051548  -0.318071  -0.593566  -0.03726  2.323405  -0.023
O  O266  1  0.66799376  0.92894513  0.29897064  1  -1.211492  0.051583  -0.318001  -0.593439  0.037303  2.323337  0.023
O  O267  1  0.16800451  0.57105650  0.20102453  1  -1.210681  -0.051559  -0.318076  -0.593516  -0.037236  2.32323  -0.023
O  O268  1  0.73200375  0.23498591  0.65282044  1  -1.179255  -0.057405  -0.294238  -0.466117  -0.039704  2.352131  -0.023
O  O269  1  0.23200541  0.26501696  0.84717037  1  -1.179633  -0.057388  -0.294154  -0.465941  -0.039702  2.351983  -0.023
O  O270  1  0.26801689  0.76502920  0.34717363  1  -1.17956  -0.057037  -0.294206  -0.466018  -0.039525  2.352134  -0.022
O  O271  1  0.76798816  0.73499326  0.15282367  1  -1.179378  0.057012  -0.294255  -0.466091  0.039583  2.352104  0.022
O  O272  1  0.80625667  0.18100368  0.77271912  1  -1.186646  -0.058556  -0.305416  -0.487551  -0.040543  2.384795  -0.025
O  O273  1  0.30626691  0.31898862  0.72728950  1  -1.186597  -0.058543  -0.305312  -0.487404  -0.040538  2.384742  -0.025
O  O274  1  0.19371915  0.81900476  0.22728327  1  -1.186295  -0.056805  -0.30534  -0.487593  -0.039711  2.38487  -0.024
O  O275  1  0.69373879  0.68101246  0.27271367  1  -1.186614  0.056814  -0.305288  -0.487463  0.039771  2.384642  0.024
O  O276  1  0.99565793  0.32093224  0.70485688  1  -1.315408  -0.057274  -0.559969  -0.78683  -0.04288  2.170548  -0.029
O  O277  1  0.49564072  0.17906187  0.79514438  1  -1.315456  -0.057307  -0.559997  -0.786699  -0.042898  2.170969  -0.029
O  O278  1  0.00434498  0.67906643  0.29514376  1  -1.31532  -0.056007  -0.559938  -0.786735  -0.04291  2.170709  -0.028
O  O279  1  0.50435564  0.82093594  0.20485918  1  -1.315435  0.056049  -0.560042  -0.786781  0.042999  2.170683  0.028
O  O280  1  0.60138851  0.36246824  0.76213734  1  -1.252568  -0.058994  -0.564734  -0.746191  -0.042385  2.057555  -0.026
O  O281  1  0.10141157  0.13754279  0.73786669  1  -1.252844  -0.058997  -0.564729  -0.746237  -0.042392  2.057644  -0.026
O  O282  1  0.39859946  0.63753945  0.23786170  1  -1.252512  -0.057407  -0.56473  -0.746185  -0.041902  2.057623  -0.025
O  O283  1  0.89858853  0.86245827  0.26213816  1  -1.252595  0.057402  -0.564721  -0.746186  0.041964  2.05764  0.025
