# generated using pymatgen
data_ZnSiH28C28(N2F3)2
_symmetry_space_group_name_H-M   'P 1'
_cell_length_a   7.70059774
_cell_length_b   13.99161393
_cell_length_c   13.99167885
_cell_angle_alpha   89.68504531
_cell_angle_beta   85.81951887
_cell_angle_gamma   85.81992335
_symmetry_Int_Tables_number   1
_chemical_formula_structural   ZnSiH28C28(N2F3)2
_chemical_formula_sum   'Zn1 Si1 H28 C28 N4 F6'
_cell_volume   1499.50604742
_cell_formula_units_Z   1
loop_
 _symmetry_equiv_pos_site_id
 _symmetry_equiv_pos_as_xyz
  1  'x, y, z'
loop_
 _atom_site_type_symbol
 _atom_site_label
 _atom_site_symmetry_multiplicity
 _atom_site_fract_x
 _atom_site_fract_y
 _atom_site_fract_z
 _atom_site_occupancy
 _atom_site_pbe_bader_charge
 _atom_site_pbe_bader_spin_density
 _atom_site_pbe_cm5_charge
 _atom_site_pbe_ddec_charge
 _atom_site_pbe_ddec_spin_density
 _atom_site_pbe_ddec_sum_bond_order
 _atom_site_pbe_magmom
Zn  Zn0  1  0.49998828  0.49999908  0.49999975  1  1.378352  0  0.706537  0.739171  0  2.358885  0
Si  Si1  1  0.99999216  0.49999427  0.49999393  1  3.161715  0  0.258853  1.723983  0  3.945566  0
H  H2  1  0.25290029  0.50008882  0.33635517  1  0.160352  0  0.115241  0.099452  0  1.043594  0
H  H3  1  0.25890087  0.50000385  0.16662401  1  0.07719  0  0.103501  0.106289  0  1.070143  0
H  H4  1  0.82370313  0.50015777  0.16260695  1  0.070013  0  0.105204  0.110113  0  1.033093  0
H  H5  1  0.79212398  0.49998735  0.33337697  1  0.172831  0  0.115573  0.099935  0  1.041775  0
H  H6  1  0.17626704  0.49987048  0.83739264  1  0.069705  0  0.105194  0.110004  0  1.033143  0
H  H7  1  0.74105403  0.50018707  0.83337251  1  0.076477  0  0.103705  0.106333  0  1.070481  0
H  H8  1  0.74705736  0.50000824  0.66363741  1  0.160386  0  0.115108  0.09936  0  1.043471  0
H  H9  1  0.20783939  0.50001226  0.66662087  1  0.172427  0  0.115547  0.099938  0  1.041861  0
H  H10  1  0.25291644  0.33636046  0.49999301  1  0.160174  0  0.115159  0.099451  0  1.04349  0
H  H11  1  0.25892732  0.16662517  0.49981882  1  0.076329  0  0.103703  0.106233  0  1.07052  0
H  H12  1  0.82371181  0.16261011  0.50012969  1  0.069662  0  0.105159  0.109956  0  1.033282  0
H  H13  1  0.79213423  0.33338291  0.49998730  1  0.172725  0  0.115534  0.09986  0  1.041686  0
H  H14  1  0.17627081  0.83739306  0.49984310  1  0.069779  0  0.105186  0.110057  0  1.033102  0
H  H15  1  0.74107498  0.83337515  0.49999672  1  0.076897  0  0.103526  0.106293  0  1.069916  0
H  H16  1  0.74707198  0.66364200  0.49990810  1  0.160326  0  0.115243  0.099439  0  1.043591  0
H  H17  1  0.20784423  0.66662098  0.50001067  1  0.172448  0  0.115534  0.099835  0  1.041954  0
H  H18  1  0.77674032  0.56364686  0.94658735  1  0.07001  0  0.099528  0.136945  0  0.988795  0
H  H19  1  0.84744082  0.49943520  0.04558017  1  0.034892  0  0.090065  0.122641  0  1.062057  0
H  H20  1  0.79302167  0.43602522  0.94625130  1  0.058631  0  0.099836  0.137187  0  0.988906  0
H  H21  1  0.20675141  0.56396479  0.05358086  1  0.059461  0  0.099627  0.136901  0  0.9887  0
H  H22  1  0.15259532  0.50018313  0.95441748  1  0.035316  0  0.089969  0.122645  0  1.062151  0
H  H23  1  0.22346482  0.43633575  0.05358221  1  0.068237  0  0.099629  0.13688  0  0.98913  0
H  H24  1  0.79322456  0.94641918  0.43603636  1  0.05959  0  0.099614  0.136905  0  0.988859  0
H  H25  1  0.84738859  0.04558513  0.49981729  1  0.03492  0  0.08999  0.122684  0  1.062175  0
H  H26  1  0.77651672  0.94641718  0.56366520  1  0.068201  0  0.099601  0.136912  0  0.989155  0
H  H27  1  0.22324282  0.05341160  0.43635481  1  0.070156  0  0.09955  0.136968  0  0.988823  0
H  H28  1  0.15253409  0.95441658  0.50056446  1  0.034653  0  0.090077  0.122667  0  1.062049  0
H  H29  1  0.20695448  0.05374837  0.56397462  1  0.058317  0  0.099835  0.137231  0  0.988956  0
C  C30  1  0.37847206  0.50003732  0.29518250  1  0.424225  0  0.048078  0.099053  0  3.927393  0
C  C31  1  0.38451147  0.50001256  0.19565252  1  0.06333  0  -0.090827  -0.183205  0  3.940533  0
C  C32  1  0.54399994  0.50000263  0.13814527  1  -0.004114  0  0.010266  0.103898  0  3.914244  0
C  C33  1  0.69074575  0.50005304  0.19402660  1  -0.063546  0  -0.089029  -0.178581  0  3.930919  0
C  C34  1  0.67571693  0.50000516  0.29352565  1  0.448026  0  0.04824  0.097232  0  3.931737  0
C  C35  1  0.56700518  0.49992440  0.03071609  1  -0.076879  0  0.001177  0.060562  0  3.806556  0
C  C36  1  0.43297192  0.50003864  0.96928069  1  0.00297  0  0.001259  0.060619  0  3.806757  0
C  C37  1  0.30922766  0.49996017  0.80596651  1  -0.063487  0  -0.088995  -0.178365  0  3.930764  0
C  C38  1  0.45597040  0.50001417  0.86184937  1  -0.003848  0  0.010539  0.10422  0  3.913767  0
C  C39  1  0.61546196  0.50008304  0.80434233  1  0.064151  0  -0.091309  -0.183572  0  3.941232  0
C  C40  1  0.62148794  0.50003037  0.70481514  1  0.424454  0  0.048275  0.09937  0  3.927398  0
C  C41  1  0.32424787  0.50000376  0.70647281  1  0.447976  0  0.048201  0.096988  0  3.931953  0
C  C42  1  0.37848616  0.29518192  0.49997255  1  0.424391  0  0.048148  0.099192  0  3.927315  0
C  C43  1  0.38451940  0.19565608  0.49992025  1  0.063927  0  -0.091202  -0.183267  0  3.941412  0
C  C44  1  0.54400669  0.13814784  0.49998863  1  -0.003433  0  0.010413  0.103983  0  3.913998  0
C  C45  1  0.69075036  0.19403526  0.50004005  1  -0.063567  0  -0.088994  -0.178454  0  3.931133  0
C  C46  1  0.67572105  0.29352433  0.49999432  1  0.447915  0  0.04832  0.097371  0  3.93193  0
C  C47  1  0.56700363  0.03071864  0.49996464  1  -0.076731  0  0.001292  0.060725  0  3.806718  0
C  C48  1  0.43297079  0.96928380  0.50007852  1  0.002864  0  0.001223  0.0606  0  3.806209  0
C  C49  1  0.30922649  0.80597150  0.49994866  1  -0.063414  0  -0.088984  -0.178353  0  3.930653  0
C  C50  1  0.45597637  0.86185102  0.50000061  1  -0.003858  0  0.010263  0.103738  0  3.914009  0
C  C51  1  0.61547205  0.80434279  0.49998504  1  0.063622  0  -0.090823  -0.182984  0  3.940287  0
C  C52  1  0.62149747  0.70481552  0.49995950  1  0.424494  0  0.048023  0.098875  0  3.927899  0
C  C53  1  0.32425057  0.70647241  0.49999250  1  0.448007  0  0.048304  0.097269  0  3.931819  0
C  C54  1  0.75488159  0.49974243  0.99056811  1  -0.10894  0  -0.242048  -0.415532  0  3.990163  0
C  C55  1  0.24511231  0.50014894  0.00943410  1  -0.108651  0  -0.24182  -0.415165  0  3.990302  0
C  C56  1  0.75486537  0.99056772  0.49985312  1  -0.108148  0  -0.241848  -0.415315  0  3.990627  0
C  C57  1  0.24509360  0.00942971  0.50025640  1  -0.108772  0  -0.242073  -0.415603  0  3.990127  0
N  N58  1  0.52113915  0.50000181  0.34501417  1  -1.263981  0  -0.317657  -0.222924  0  3.514098  0
N  N59  1  0.47883079  0.50000782  0.65498194  1  -1.264071  0  -0.317591  -0.222843  0  3.514011  0
N  N60  1  0.52114850  0.34501987  0.49999289  1  -1.26389  0  -0.317626  -0.223011  0  3.513844  0
N  N61  1  0.47883254  0.65498473  0.49999497  1  -1.264043  0  -0.317651  -0.222893  0  3.5143  0
F  F62  1  0.22719763  0.50017436  0.50017003  1  -0.823249  0  -0.191296  -0.492814  0  1.364887  0
F  F63  1  0.77278736  0.49981949  0.49981773  1  -0.823081  0  -0.191298  -0.492778  0  1.36481  0
F  F64  1  0.99998898  0.58632055  0.41366388  1  -0.825475  0  -0.24294  -0.542716  0  1.087639  0
F  F65  1  0.99998950  0.41367302  0.58632489  1  -0.825468  0  -0.242966  -0.542744  0  1.087719  0
F  F66  1  0.02296487  0.41370363  0.41370562  1  -0.825038  0  -0.242932  -0.542445  0  1.088112  0
F  F67  1  0.97701640  0.58628879  0.58628229  1  -0.824837  0  -0.242938  -0.542397  0  1.088098  0
