# generated using pymatgen
data_AlH6C13(BrO3)2
_symmetry_space_group_name_H-M   'P 1'
_cell_length_a   6.65103625
_cell_length_b   11.16656195
_cell_length_c   15.26183969
_cell_angle_alpha   84.50866768
_cell_angle_beta   77.87251541
_cell_angle_gamma   71.79166413
_symmetry_Int_Tables_number   1
_chemical_formula_structural   AlH6C13(BrO3)2
_chemical_formula_sum   'Al2 H12 C26 Br4 O12'
_cell_volume   1052.14639840
_cell_formula_units_Z   2
loop_
 _symmetry_equiv_pos_site_id
 _symmetry_equiv_pos_as_xyz
  1  'x, y, z'
loop_
 _atom_site_type_symbol
 _atom_site_label
 _atom_site_symmetry_multiplicity
 _atom_site_fract_x
 _atom_site_fract_y
 _atom_site_fract_z
 _atom_site_occupancy
 _atom_site_pbe_bader_charge
 _atom_site_pbe_bader_spin_density
 _atom_site_pbe_cm5_charge
 _atom_site_pbe_ddec_charge
 _atom_site_pbe_ddec_spin_density
 _atom_site_pbe_ddec_sum_bond_order
 _atom_site_pbe_magmom
Al  Al0  1  0.50247759  0.49910651  0.50007538  1  2.502724  0  0.392844  1.645086  0  2.561148  0
Al  Al1  1  0.00681791  0.49248239  0.50059855  1  2.504119  0  0.39045  1.645937  0  2.5631  0
H  H2  1  0.31328327  0.34722306  0.55667859  1  0.609454  0  0.326007  0.401911  0  0.915994  0
H  H3  1  0.71529362  0.64432403  0.44552254  1  0.63094  0  0.341121  0.418313  0  0.883727  0
H  H4  1  0.85553978  0.49208798  0.94302647  1  0.083664  0  0.105326  0.120967  0  1.018013  0
H  H5  1  0.18508173  0.44633172  0.05976766  1  0.062096  0  0.107791  0.126888  0  1.000858  0
H  H6  1  0.63753479  0.57509157  0.23057126  1  0.112533  0  0.099456  0.102011  0  1.03518  0
H  H7  1  0.72032701  0.58653726  0.06534015  1  0.058012  0  0.099869  0.103435  0  1.018057  0
H  H8  1  0.29100967  0.52692421  0.76737977  1  0.134352  0  0.106438  0.117423  0  1.045002  0
H  H9  1  0.19125852  0.53734319  0.93112714  1  0.036332  0  0.097971  0.09916  0  1.032018  0
H  H10  1  0.21049832  0.22618171  0.37223936  1  0.135361  0  0.111372  0.131124  0  1.022974  0
H  H11  1  0.43005877  0.75785710  0.38186090  1  0.082105  0  0.111369  0.125304  0  1.037389  0
H  H12  1  0.99479223  0.49737182  0.70722637  1  0.657498  0  0.314068  0.359285  0  0.956818  0
H  H13  1  0.04205806  0.44725733  0.29414864  1  0.638946  0  0.313214  0.359083  0  0.954965  0
C  C14  1  0.86307177  0.27078896  0.49105543  1  1.612644  0  0.27118  0.658656  0  4.089002  0
C  C15  1  0.67879968  0.50026264  0.66309451  1  1.497831  0  0.257678  0.647059  0  4.091158  0
C  C16  1  0.13751800  0.72144778  0.50801138  1  1.578149  0  0.269536  0.658835  0  4.090942  0
C  C17  1  0.32072882  0.50227129  0.33716272  1  1.457231  0  0.257685  0.644563  0  4.091074  0
C  C18  1  0.62474199  0.50900576  0.76090859  1  -0.024882  0  -0.044447  -0.213212  0  4.016184  0
C  C19  1  0.36216926  0.50977507  0.23907236  1  0.005525  0  -0.046252  -0.221019  0  4.017582  0
C  C20  1  0.78331511  0.50220143  0.81209275  1  0.521279  0  0.094833  0.326128  0  4.066811  0
C  C21  1  0.72766311  0.50319234  0.90578258  1  -0.004388  0  -0.103331  -0.256224  0  3.922735  0
C  C22  1  0.23042272  0.47649538  0.18915228  1  0.535267  0  0.090831  0.318571  0  4.071606  0
C  C23  1  0.28378523  0.47832008  0.09535897  1  0.018608  0  -0.104599  -0.258585  0  3.924193  0
C  C24  1  0.53847729  0.54859325  0.19206430  1  -0.076806  0  -0.082796  -0.046722  0  4.006364  0
C  C25  1  0.58640290  0.55278112  0.09947766  1  0.035424  0  -0.103495  -0.163112  0  3.991603  0
C  C26  1  0.41309588  0.52072305  0.80629856  1  -0.000125  0  -0.083267  -0.05265  0  4.006546  0
C  C27  1  0.35832204  0.52474921  0.89867514  1  -0.014203  0  -0.102573  -0.16068  0  3.991206  0
C  C28  1  0.51629905  0.51470852  0.95033600  1  -0.075217  0  0.002883  0.103394  0  3.999328  0
C  C29  1  0.46095302  0.51554812  0.04935814  1  0.008582  0  0.002916  0.107015  0  3.996924  0
C  C30  1  0.93076614  0.12928172  0.49386164  1  0.031701  0  -0.008327  -0.113705  0  3.917107  0
C  C31  1  0.12557393  0.06162782  0.43692022  1  0.089784  0  0.002677  0.078718  0  3.962013  0
C  C32  1  0.80972112  0.06466299  0.55358504  1  -0.05864  0  -0.013144  0.040402  0  3.941993  0
C  C33  1  0.25722064  0.12377438  0.37665176  1  0.053949  0  -0.091149  -0.166518  0  3.931307  0
C  C34  1  0.44878289  0.05689422  0.32466073  1  -0.169056  0  -0.019387  0.065405  0  3.982393  0
C  C35  1  0.06302519  0.86284408  0.50312569  1  0.089989  0  -0.009548  -0.111949  0  3.916614  0
C  C36  1  0.87691134  0.93056813  0.55888528  1  -0.029576  0  -0.015625  0.036244  0  3.958954  0
C  C37  1  0.19103003  0.92661886  0.44098048  1  -0.026784  0  0.002956  0.081011  0  3.958739  0
C  C38  1  0.38258496  0.86021577  0.38309177  1  0.011376  0  -0.093886  -0.176929  0  3.949144  0
C  C39  1  0.51206781  0.92297578  0.32792316  1  -0.001933  0  -0.019868  0.065493  0  3.984493  0
Br  Br40  1  0.72035830  0.84457484  0.64657494  1  0.01096  0  0.062652  -0.002375  0  1.511956  0
Br  Br41  1  0.56307272  0.15391292  0.63596346  1  -0.017719  0  0.080397  -0.0003  0  1.542702  0
Br  Br42  1  0.62079532  0.14757790  0.25045823  1  -0.013793  0  0.050351  -0.019194  0  1.432025  0
Br  Br43  1  0.77468257  0.82583250  0.25896599  1  -0.028455  0  0.049969  -0.02628  0  1.439097  0
O  O44  1  0.67777406  0.32869823  0.47423242  1  -1.254985  0  -0.229317  -0.582435  0  2.364263  0
O  O45  1  0.86736811  0.50871287  0.62381946  1  -1.26541  0  -0.243656  -0.621909  0  2.413956  0
O  O46  1  0.01136137  0.66472193  0.49209627  1  -1.259802  0  -0.230629  -0.596033  0  2.390689  0
O  O47  1  0.44909355  0.52690802  0.37909576  1  -1.26616  0  -0.238038  -0.588421  0  2.359084  0
O  O48  1  0.32536566  0.66925750  0.52447551  1  -1.250919  0  -0.227039  -0.573165  0  2.336509  0
O  O49  1  0.15025196  0.47137626  0.37712238  1  -1.26137  0  -0.243379  -0.616447  0  2.394823  0
O  O50  1  0.99839426  0.32176699  0.50611973  1  -1.255165  0  -0.226858  -0.577951  0  2.341882  0
O  O51  1  0.54421718  0.48253627  0.62164515  1  -1.265218  0  -0.235686  -0.591812  0  2.385012  0
O  O52  1  0.26896141  0.43613973  0.53851318  1  -1.422275  0  -0.45237  -0.983582  0  2.209941  0
O  O53  1  0.74405774  0.55517765  0.46178723  1  -1.437579  0  -0.451446  -0.987207  0  2.190361  0
O  O54  1  0.98995503  0.49152632  0.77351741  1  -1.171015  0  -0.343558  -0.438256  0  2.320969  0
O  O55  1  0.05513637  0.44087228  0.22819442  1  -1.15496  0  -0.350172  -0.440749  0  2.280482  0
