# generated using pymatgen
data_Zr6H26C50NO32F5
_symmetry_space_group_name_H-M   'P 1'
_cell_length_a   14.77531919
_cell_length_b   14.79356213
_cell_length_c   14.80742094
_cell_angle_alpha   60.11482056
_cell_angle_beta   59.97726180
_cell_angle_gamma   60.07631975
_symmetry_Int_Tables_number   1
_chemical_formula_structural   Zr6H26C50NO32F5
_chemical_formula_sum   'Zr6 H26 C50 N1 O32 F5'
_cell_volume   2291.52661618
_cell_formula_units_Z   1
loop_
 _symmetry_equiv_pos_site_id
 _symmetry_equiv_pos_as_xyz
  1  'x, y, z'
loop_
 _atom_site_type_symbol
 _atom_site_label
 _atom_site_symmetry_multiplicity
 _atom_site_fract_x
 _atom_site_fract_y
 _atom_site_fract_z
 _atom_site_occupancy
 _atom_site_pbe_bader_charge
 _atom_site_pbe_bader_spin_density
 _atom_site_pbe_cm5_charge
 _atom_site_pbe_ddec_charge
 _atom_site_pbe_ddec_spin_density
 _atom_site_pbe_ddec_sum_bond_order
 _atom_site_pbe_magmom
Zr  Zr0  1  0.87847874  0.88284525  0.61761128  1  2.631761  0  1.626788  2.370655  0  2.759855  0
Zr  Zr1  1  0.12129961  0.11675084  0.38256627  1  2.632943  0  1.63356  2.371141  0  2.779831  0
Zr  Zr2  1  0.11680026  0.87925135  0.62119117  1  2.637822  0  1.62774  2.374935  0  2.750568  0
Zr  Zr3  1  0.88182868  0.12174235  0.37825723  1  2.633923  0  1.62675  2.372363  0  2.754818  0
Zr  Zr4  1  0.11898010  0.88131061  0.37947224  1  2.638611  0  1.628837  2.376225  0  2.754426  0
Zr  Zr5  1  0.87993110  0.12123868  0.61815503  1  2.636885  0  1.629258  2.376603  0  2.751797  0
H  H6  1  0.09038351  0.71861201  0.59413643  1  0.604643  0  0.331981  0.423679  0  0.856036  0
H  H7  1  0.09631135  0.09439732  0.21770037  1  0.630694  0  0.332564  0.425031  0  0.853839  0
H  H8  1  0.09405230  0.09205853  0.59575149  1  0.605228  0  0.331943  0.423903  0  0.855103  0
H  H9  1  0.71674890  0.09754414  0.59113593  1  0.590682  0  0.331496  0.423772  0  0.857011  0
H  H10  1  0.84741384  0.59015463  0.63640171  1  0.118581  0  0.110553  0.118526  0  0.995791  0
H  H11  1  0.14045897  0.59456110  0.34731727  1  0.132574  0  0.119673  0.148716  0  0.981375  0
H  H12  1  0.85415564  0.41859702  0.63261904  1  0.093908  0  0.113875  0.121665  0  0.98748  0
H  H13  1  0.59096683  0.84789458  0.92460892  1  0.115845  0  0.109656  0.116671  0  0.999896  0
H  H14  1  0.59316397  0.14104063  0.91813393  1  0.161079  0  0.119398  0.14861  0  0.981184  0
H  H15  1  0.42291191  0.84984086  0.09690674  1  0.089297  0  0.113565  0.122082  0  0.98761  0
H  H16  1  0.13715561  0.85012019  0.08786707  1  0.095922  0  0.111056  0.119926  0  0.991283  0
H  H17  1  0.84687077  0.14135051  0.09336158  1  0.113039  0  0.11718  0.143826  0  0.990223  0
H  H18  1  0.13105029  0.85387462  0.91908215  1  0.093886  0  0.113435  0.121021  0  0.988067  0
H  H19  1  0.59199364  0.42905944  0.63330002  1  0.091614  0  0.111462  0.120406  0  0.990234  0
H  H20  1  0.59368411  0.41967928  0.34651851  1  0.158122  0  0.116728  0.142256  0  0.99384  0
H  H21  1  0.42053140  0.59755007  0.63016595  1  0.095186  0  0.113871  0.121933  0  0.987554  0
H  H22  1  0.13599938  0.59632377  0.91281762  1  0.100593  0  0.105164  0.120636  0  1.008003  0
H  H23  1  0.73509375  0.62211669  0.97228684  1  0.032252  0  0.091638  0.098569  0  0.99489  0
H  H24  1  0.82131476  0.53740436  0.88631777  1  0.039141  0  0.091343  0.097501  0  0.992344  0
H  H25  1  0.83148106  0.36747126  0.05527871  1  0.042676  0  0.094259  0.103234  0  0.98925  0
H  H26  1  0.74600757  0.45211261  0.14112914  1  0.060472  0  0.094425  0.104384  0  0.992269  0
H  H27  1  0.58713843  0.13775927  0.34606234  1  0.093645  0  0.111172  0.120415  0  0.989578  0
H  H28  1  0.59656143  0.84937970  0.63804836  1  0.084389  0  0.118154  0.146239  0  0.983537  0
H  H29  1  0.41730033  0.12891323  0.35447879  1  0.129424  0  0.114733  0.123563  0  0.987841  0
H  H30  1  0.16936128  0.35589728  0.15489582  1  0.489372  0  0.305886  0.319237  0  0.978895  0
H  H31  1  0.21655733  0.46590937  0.05030156  1  0.431942  0  0.315907  0.311338  0  0.929923  0
C  C32  1  0.99305542  0.70293522  0.49407673  1  1.549808  0  0.236823  0.636722  0  4.09745  0
C  C33  1  0.31002648  0.99579282  0.20235354  1  1.551277  0  0.236537  0.657458  0  4.103558  0
C  C34  1  0.00056641  0.30688180  0.49336172  1  1.57812  0  0.236266  0.656828  0  4.102682  0
C  C35  1  0.69874954  0.99788572  0.80572928  1  1.558392  0  0.239516  0.639449  0  4.094147  0
C  C36  1  0.99113791  0.70192132  0.80672740  1  1.529797  0  0.238293  0.651034  0  4.091809  0
C  C37  1  0.70041392  0.99925402  0.49189059  1  1.566836  0  0.237888  0.639222  0  4.095332  0
C  C38  1  0.00053598  0.30689310  0.19915082  1  1.484342  0  0.229156  0.651601  0  4.097366  0
C  C39  1  0.30774969  0.98873745  0.50197199  1  1.584063  0  0.236668  0.655964  0  4.102579  0
C  C40  1  0.30599584  0.70019728  0.49376682  1  1.581921  0  0.236606  0.657227  0  4.099725  0
C  C41  1  0.99033645  0.99823843  0.80882218  1  1.599121  0  0.236561  0.656277  0  4.099894  0
C  C42  1  0.70207942  0.31096375  0.49318602  1  1.557725  0  0.238638  0.639087  0  4.095927  0
C  C43  1  0.99654871  0.99714159  0.19881708  1  1.57905  0  0.237666  0.637844  0  4.097637  0
C  C44  1  0.99952311  0.41042426  0.48925030  1  0.0452  0  -0.019546  -0.149015  0  3.938719  0
C  C45  1  0.99326479  0.60262936  0.49221987  1  0.025746  0  -0.0077  0.000444  0  3.966812  0
C  C46  1  0.07914185  0.46242714  0.40916274  1  0.389851  0  0.110939  0.286593  0  4.025747  0
C  C47  1  0.91202954  0.55345450  0.57280862  1  -0.031169  0  -0.08583  -0.114269  0  3.983266  0
C  C48  1  0.07700335  0.55689725  0.40983628  1  0.008914  0  -0.090604  -0.224535  0  3.963123  0
C  C49  1  0.91578592  0.45887679  0.57063741  1  -0.005191  0  -0.075429  -0.065364  0  3.974783  0
C  C50  1  0.41291952  0.99591897  0.10324826  1  0.026459  0  -0.02008  -0.150853  0  3.940659  0
C  C51  1  0.60142090  0.99476093  0.91044065  1  0.000965  0  -0.007904  -0.000503  0  3.968114  0
C  C52  1  0.46362417  0.07666551  0.05146083  1  0.411768  0  0.111394  0.288373  0  4.025142  0
C  C53  1  0.55427458  0.91174878  0.96122682  1  -0.047929  0  -0.085877  -0.113599  0  3.982708  0
C  C54  1  0.55636194  0.07696504  0.95656296  1  0.041761  0  -0.089819  -0.222959  0  3.960295  0
C  C55  1  0.46151954  0.91296517  0.05616620  1  -0.002349  0  -0.075379  -0.065718  0  3.975045  0
C  C56  1  0.98707938  0.99832541  0.91143635  1  0.052673  0  -0.019983  -0.149734  0  3.936125  0
C  C57  1  0.99290744  0.99555740  0.10043433  1  -0.0389  0  -0.008068  -0.000579  0  3.970974  0
C  C58  1  0.90734691  0.07833449  0.96297924  1  0.423939  0  0.111078  0.288081  0  4.026257  0
C  C59  1  0.07290802  0.91377960  0.05191434  1  0.019515  0  -0.08526  -0.111738  0  3.98028  0
C  C60  1  0.90942875  0.07782567  0.05588956  1  0.059613  0  -0.090732  -0.22592  0  3.969596  0
C  C61  1  0.06934608  0.91585240  0.95893308  1  -0.069273  0  -0.075621  -0.065325  0  3.973964  0
C  C62  1  0.41039766  0.60268024  0.48854712  1  -0.053207  0  -0.019554  -0.149318  0  3.936352  0
C  C63  1  0.60288182  0.41391586  0.49059303  1  0.027808  0  -0.007874  0.000601  0  3.968568  0
C  C64  1  0.46204376  0.55123030  0.40851342  1  0.477342  0  0.111642  0.287719  0  4.024714  0
C  C65  1  0.55466431  0.46433755  0.57043047  1  -0.009714  0  -0.08538  -0.112772  0  3.979592  0
C  C66  1  0.55658006  0.45832300  0.40882010  1  -0.060952  0  -0.091061  -0.225969  0  3.970541  0
C  C67  1  0.45996183  0.55719311  0.56873650  1  0.036876  0  -0.074931  -0.064156  0  3.971612  0
C  C68  1  0.99088809  0.60254095  0.90770391  1  -0.102245  0  -0.01638  -0.062879  0  4.026784  0
C  C69  1  0.00023665  0.40668803  0.10104260  1  0.015945  0  -0.031708  -0.220867  0  3.929682  0
C  C70  1  0.91221797  0.54962880  0.96023982  1  0.061841  0  -0.025447  0.017727  0  3.92274  0
C  C71  1  0.08171870  0.46017838  0.04754824  1  0.44288  0  0.114497  0.313157  0  4.069192  0
C  C72  1  0.91819834  0.45558068  0.05317502  1  -0.005871  0  -0.006277  0.081803  0  3.920258  0
C  C73  1  0.07386838  0.55638066  0.95313175  1  0.000452  0  -0.101332  -0.230959  0  3.936952  0
C  C74  1  0.80991511  0.55026329  0.95889129  1  -0.001978  0  -0.153878  -0.19168  0  3.899106  0
C  C75  1  0.81643532  0.44332724  0.06495997  1  -0.038849  0  -0.151819  -0.194406  0  3.881542  0
C  C76  1  0.41120179  0.98612420  0.49988758  1  0.050968  0  -0.019662  -0.149868  0  3.940473  0
C  C77  1  0.60168823  0.99457450  0.49173514  1  -0.063124  0  -0.0084  -0.001642  0  3.970163  0
C  C78  1  0.46418638  0.90748616  0.57858530  1  0.410018  0  0.110638  0.287149  0  4.033026  0
C  C79  1  0.55187496  0.07331785  0.41100923  1  0.022179  0  -0.084955  -0.112385  0  3.981669  0
C  C80  1  0.55788306  0.91085956  0.57544707  1  0.07057  0  -0.092008  -0.225175  0  3.967229  0
C  C81  1  0.45810971  0.06844781  0.41571282  1  -0.023566  0  -0.07365  -0.062542  0  3.967716  0
N  N82  1  0.16777582  0.42023525  0.08318168  1  -1.243198  0  -0.586341  -0.611085  0  3.356141  0
O  O83  1  0.91687979  0.74067712  0.57210670  1  -1.169626  0  -0.349819  -0.612515  0  2.278006  0
O  O84  1  0.26855656  0.07159000  0.24354855  1  -1.166708  0  -0.36058  -0.620852  0  2.326748  0
O  O85  1  0.07947816  0.26268682  0.42081800  1  -1.175264  0  -0.359207  -0.621124  0  2.316536  0
O  O86  1  0.73522995  0.92321556  0.76458471  1  -1.175186  0  -0.353409  -0.616578  0  2.281624  0
O  O87  1  0.06896652  0.74108221  0.76590053  1  -1.179009  0  -0.365182  -0.628764  0  2.298768  0
O  O88  1  0.73742594  0.07792705  0.41664551  1  -1.180938  0  -0.348761  -0.61288  0  2.264282  0
O  O89  1  0.92407483  0.26629444  0.23799302  1  -1.177991  0  -0.362332  -0.623289  0  2.281297  0
O  O90  1  0.26480727  0.91478101  0.57939463  1  -1.169791  0  -0.358068  -0.619765  0  2.306822  0
O  O91  1  0.26388261  0.74008439  0.41913583  1  -1.17233  0  -0.36038  -0.621101  0  2.319028  0
O  O92  1  0.91696629  0.07624502  0.76548929  1  -1.177128  0  -0.359536  -0.620201  0  2.315597  0
O  O93  1  0.73932496  0.27062205  0.57166623  1  -1.177713  0  -0.352819  -0.61702  0  2.275867  0
O  O94  1  0.07516189  0.92166077  0.23582669  1  -1.179493  0  -0.351407  -0.614377  0  2.27448  0
O  O95  1  0.06806626  0.92083836  0.77075660  1  -1.186055  0  -0.348347  -0.61296  0  2.264151  0
O  O96  1  0.74048878  0.27012517  0.41775591  1  -1.176196  0  -0.352293  -0.614504  0  2.284922  0
O  O97  1  0.92138692  0.07518057  0.23714164  1  -1.183036  0  -0.3532  -0.615677  0  2.287986  0
O  O98  1  0.26553742  0.73542233  0.57385944  1  -1.175039  0  -0.348079  -0.612793  0  2.261892  0
O  O99  1  0.91524331  0.74049677  0.76629973  1  -1.170153  0  -0.349723  -0.609346  0  2.255498  0
O  O100  1  0.26861329  0.06731750  0.42592825  1  -1.179317  0  -0.351033  -0.61175  0  2.283675  0
O  O101  1  0.07742720  0.26421759  0.24073405  1  -1.190285  0  -0.357011  -0.624159  0  2.303605  0
O  O102  1  0.73876579  0.92412628  0.56969851  1  -1.186829  0  -0.357512  -0.61766  0  2.300567  0
O  O103  1  0.73652643  0.07633357  0.76449036  1  -1.182151  0  -0.352358  -0.611767  0  2.281325  0
O  O104  1  0.07055294  0.74185768  0.41816944  1  -1.180782  0  -0.353245  -0.613481  0  2.285233  0
O  O105  1  0.26960203  0.92078052  0.23763253  1  -1.175331  0  -0.349679  -0.615096  0  2.263992  0
O  O106  1  0.92285424  0.26895810  0.57087689  1  -1.176185  0  -0.35017  -0.615791  0  2.267656  0
O  O107  1  0.79706083  0.07047210  0.56473424  1  -1.220088  0  -0.693931  -1.071171  0  2.356284  0
O  O108  1  0.06683175  0.06576880  0.56900363  1  -1.231162  0  -0.695542  -1.070161  0  2.364572  0
O  O109  1  0.06906760  0.06671537  0.29779069  1  -1.257672  0  -0.696014  -1.071122  0  2.366138  0
O  O110  1  0.06437634  0.79871324  0.56676860  1  -1.232504  0  -0.694353  -1.069559  0  2.36285  0
O  O111  1  0.14813150  0.94859258  0.45197068  1  -1.199487  0  -0.792771  -1.149109  0  2.133763  0
O  O112  1  0.94972258  0.95234995  0.44862539  1  -1.199851  0  -0.789973  -1.149927  0  2.123007  0
O  O113  1  0.95150652  0.14885058  0.45001451  1  -1.196337  0  -0.793858  -1.149528  0  2.136944  0
O  O114  1  0.94795876  0.95199740  0.64792756  1  -1.199498  0  -0.79125  -1.148084  0  2.131131  0
F  F115  1  0.16270784  0.42193939  0.32714517  1  -0.633069  0  -0.100644  -0.140837  0  1.351472  0
F  F116  1  0.42325880  0.15913930  0.09167182  1  -0.63243  0  -0.099693  -0.139145  0  1.352338  0
F  F117  1  0.82450290  0.16063857  0.92351952  1  -0.629951  0  -0.10056  -0.139499  0  1.345735  0
F  F118  1  0.42084998  0.58965933  0.32738097  1  -0.62733  0  -0.101455  -0.140161  0  1.344815  0
F  F119  1  0.42516639  0.82473331  0.66218189  1  -0.630454  0  -0.10218  -0.141855  0  1.342282  0
