# generated using pymatgen
data_FeH18C26(SN5)2
_symmetry_space_group_name_H-M   'P 1'
_cell_length_a   8.62036788
_cell_length_b   8.68479327
_cell_length_c   17.57360000
_cell_angle_alpha   97.06289589
_cell_angle_beta   103.83884939
_cell_angle_gamma   94.46941645
_symmetry_Int_Tables_number   1
_chemical_formula_structural   FeH18C26(SN5)2
_chemical_formula_sum   'Fe2 H36 C52 S4 N20'
_cell_volume   1259.89260647
_cell_formula_units_Z   2
loop_
 _symmetry_equiv_pos_site_id
 _symmetry_equiv_pos_as_xyz
  1  'x, y, z'
loop_
 _atom_site_type_symbol
 _atom_site_label
 _atom_site_symmetry_multiplicity
 _atom_site_fract_x
 _atom_site_fract_y
 _atom_site_fract_z
 _atom_site_occupancy
 _atom_site_hle17_bader_spin_density
 _atom_site_hle17_ddec_charge
 _atom_site_hle17_ddec_spin_density
 _atom_site_hle17_ddec_sum_bond_order
 _atom_site_hle17_magmom
 _atom_site_hse06_10hf_bader_spin_density
 _atom_site_hse06_10hf_ddec_charge
 _atom_site_hse06_10hf_ddec_spin_density
 _atom_site_hse06_10hf_ddec_sum_bond_order
 _atom_site_hse06_10hf_magmom
 _atom_site_hse06_bader_spin_density
 _atom_site_hse06_ddec_charge
 _atom_site_hse06_ddec_spin_density
 _atom_site_hse06_ddec_sum_bond_order
 _atom_site_hse06_magmom
 _atom_site_pbe_bader_charge
 _atom_site_pbe_bader_spin_density
 _atom_site_pbe_cm5_charge
 _atom_site_pbe_ddec_charge
 _atom_site_pbe_ddec_spin_density
 _atom_site_pbe_ddec_sum_bond_order
 _atom_site_pbe_magmom
Fe  Fe0  1  0.99128003  0.47880787  0.50074018  1  0  0.557221  0  3.020367  0  0  0.508652  0  3.520788  0  0  0.559877  0  3.459018  0  1.17171  0  0.735672  0.482269  0  3.554393  0
Fe  Fe1  1  0.50938377  0.02246986  0.00300875  1  0  0.566809  0  3.011512  0  0  0.520427  0  3.50916  0  0  0.570114  0  3.449231  0  1.170215  0  0.738408  0.494977  0  3.541391  0
H  H2  1  0.23025688  0.77644184  0.72981872  1  0  0.131378  0  0.976825  0  0  0.141931  0  1.032425  0  0  0.145696  0  1.032667  0  0.106289  0  0.107056  0.139265  0  1.032564  0
H  H3  1  0.76616763  0.22200281  0.27097626  1  0  0.129605  0  0.981141  0  0  0.139875  0  1.037691  0  0  0.14334  0  1.038069  0  0.085903  0  0.107168  0.137414  0  1.037801  0
H  H4  1  0.17385976  0.53903143  0.79629796  1  0  0.109622  0  1.000524  0  0  0.114226  0  1.070913  0  0  0.117093  0  1.070315  0  0.135663  0  0.097291  0.112168  0  1.071403  0
H  H5  1  0.83555774  0.45090676  0.20958401  1  0  0.113948  0  0.991963  0  0  0.117131  0  1.063111  0  0  0.120472  0  1.062082  0  0.142849  0  0.099653  0.114618  0  1.064059  0
H  H6  1  0.24100885  0.04875397  0.65378377  1  0  0.112836  0  0.98591  0  0  0.118237  0  1.054134  0  0  0.12118  0  1.053434  0  0.112156  0  0.099453  0.116169  0  1.054672  0
H  H7  1  0.76526732  0.94979460  0.34277158  1  0  0.1158  0  0.984915  0  0  0.119791  0  1.054696  0  0  0.123385  0  1.0532  0  0.132209  0  0.099052  0.117062  0  1.056108  0
H  H8  1  0.50055675  0.89201346  0.52320385  1  0  0.11129  0  0.97769  0  0  0.121091  0  1.040636  0  0  0.123668  0  1.039727  0  0.097107  0  0.109257  0.119359  0  1.041336  0
H  H9  1  0.49180761  0.11855110  0.48054163  1  0  0.113137  0  0.981475  0  0  0.121107  0  1.046728  0  0  0.124033  0  1.045418  0  0.119837  0  0.109617  0.119027  0  1.047853  0
H  H10  1  0.73823009  0.70571421  0.53511889  1  0  0.090894  0  0.936868  0  0  0.096044  0  1.003687  0  0  0.09772  0  1.002404  0  0.121797  0  0.120371  0.094958  0  1.004611  0
H  H11  1  0.25539729  0.30292512  0.47381154  1  0  0.096112  0  0.938413  0  0  0.100426  0  1.005371  0  0  0.102638  0  1.002719  0  0.115836  0  0.122736  0.098763  0  1.007608  0
H  H12  1  0.12890291  0.99640735  0.98072867  1  0  0.077506  0  0.953308  0  0  0.086789  0  1.016906  0  0  0.087421  0  1.016842  0  0.101121  0  0.119051  0.086512  0  1.017029  0
H  H13  1  0.84921499  0.01053793  0.00841593  1  0  0.086114  0  0.95769  0  0  0.092944  0  1.022757  0  0  0.095263  0  1.019896  0  0.082403  0  0.121688  0.091077  0  1.025267  0
H  H14  1  0.87477028  0.82336165  0.90677112  1  0  0.113763  0  0.962634  0  0  0.118742  0  1.030078  0  0  0.12138  0  1.02987  0  0.094874  0  0.108043  0.116895  0  1.03023  0
H  H15  1  0.11129589  0.16014590  0.08699861  1  0  0.11423  0  0.95455  0  0  0.11914  0  1.021042  0  0  0.122072  0  1.02065  0  0.125003  0  0.108514  0.117035  0  1.021463  0
H  H16  1  0.89805902  0.58680702  0.81706153  1  0  0.097819  0  0.944458  0  0  0.109127  0  1.004764  0  0  0.111579  0  1.003031  0  0.114131  0  0.108801  0.107397  0  1.006004  0
H  H17  1  0.10667225  0.39080462  0.18489775  1  0  0.101555  0  0.95224  0  0  0.111277  0  1.013685  0  0  0.11467  0  1.009638  0  0.103205  0  0.108696  0.108577  0  1.017099  0
H  H18  1  0.52814770  0.81618615  0.38352425  1  0  0.095382  0  0.950487  0  0  0.103631  0  1.013856  0  0  0.106222  0  1.012068  0  0.10119  0  0.102523  0.101795  0  1.01514  0
H  H19  1  0.47347378  0.20499572  0.62121109  1  0  0.095485  0  0.961476  0  0  0.10183  0  1.027745  0  0  0.105387  0  1.023824  0  0.110603  0  0.099154  0.098869  0  1.031236  0
H  H20  1  0.89333351  0.60021936  0.09930358  1  0  0.100362  0  0.973651  0  0  0.110957  0  1.034364  0  0  0.112781  0  1.034852  0  0.072282  0  0.102321  0.10979  0  1.03402  0
H  H21  1  0.11138308  0.38076405  0.89507787  1  0  0.101796  0  0.974258  0  0  0.109744  0  1.038322  0  0  0.112525  0  1.037869  0  0.091315  0  0.101102  0.107596  0  1.038977  0
H  H22  1  0.59389786  0.46655487  0.86081918  1  0  0.122333  0  0.96128  0  0  0.126266  0  1.03235  0  0  0.129407  0  1.030929  0  0.128458  0  0.104124  0.123944  0  1.033614  0
H  H23  1  0.38741396  0.53139476  0.13676759  1  0  0.12483  0  0.957277  0  0  0.127023  0  1.029629  0  0  0.130492  0  1.028029  0  0.145432  0  0.105558  0.12437  0  1.031142  0
H  H24  1  0.72530764  0.97031588  0.60642731  1  0  0.100955  0  0.980056  0  0  0.108295  0  1.046407  0  0  0.11038  0  1.046757  0  0.114599  0  0.102817  0.10688  0  1.046287  0
H  H25  1  0.28015639  0.04800443  0.39849736  1  0  0.101279  0  0.988123  0  0  0.10741  0  1.054925  0  0  0.110033  0  1.05474  0  0.092864  0  0.102933  0.105587  0  1.0551  0
H  H26  1  0.32922841  0.61081449  0.29345922  1  0  0.10647  0  0.970692  0  0  0.110988  0  1.040758  0  0  0.113584  0  1.040422  0  0.097316  0  0.099793  0.109163  0  1.041121  0
H  H27  1  0.68526011  0.40465827  0.70718954  1  0  0.107015  0  0.967357  0  0  0.111109  0  1.037928  0  0  0.114389  0  1.036739  0  0.127245  0  0.100343  0.108576  0  1.039171  0
H  H28  1  0.98423834  0.14627124  0.66642701  1  0  0.09798  0  0.944729  0  0  0.108083  0  1.004935  0  0  0.109878  0  1.004119  0  0.107365  0  0.105525  0.106716  0  1.005686  0
H  H29  1  0.02881806  0.86425712  0.33221631  1  0  0.100761  0  0.94052  0  0  0.109691  0  1.001995  0  0  0.112582  0  0.999097  0  0.115549  0  0.105347  0.10718  0  1.00471  0
H  H30  1  0.81255542  0.40803236  0.97146243  1  0  0.096993  0  0.943374  0  0  0.108501  0  1.002372  0  0  0.109948  0  1.002584  0  0.100527  0  0.105419  0.107549  0  1.002125  0
H  H31  1  0.16965609  0.57605428  0.02193631  1  0  0.098566  0  0.942158  0  0  0.108073  0  1.0035  0  0  0.110893  0  1.001297  0  0.101149  0  0.104074  0.105753  0  1.005557  0
H  H32  1  0.77262656  0.72717417  0.70736472  1  0  0.037263  0  0.946239  0  0  0.044685  0  1.01581  0  0  0.046237  0  1.013127  0  0.068068  0  0.112808  0.043603  0  1.017638  0
H  H33  1  0.22347067  0.27055246  0.29271376  1  0  0.035721  0  0.952808  0  0  0.042248  0  1.023849  0  0  0.04386  0  1.020803  0  0.056018  0  0.112641  0.041072  0  1.026072  0
H  H34  1  0.74435465  0.83340573  0.10961965  1  0  0.088493  0  0.927385  0  0  0.096662  0  0.98753  0  0  0.098299  0  0.985934  0  0.123355  0  0.121184  0.095634  0  0.988682  0
H  H35  1  0.28055982  0.16350249  0.88939672  1  0  0.094817  0  0.932737  0  0  0.100549  0  0.995951  0  0  0.103275  0  0.992469  0  0.144382  0  0.122327  0.098314  0  0.999008  0
H  H36  1  0.11071273  0.48261978  0.34653498  1  0  0.078335  0  0.939007  0  0  0.08765  0  1.001979  0  0  0.088377  0  1.001752  0  0.090222  0  0.118153  0.087331  0  1.002083  0
H  H37  1  0.90553652  0.51479980  0.65099843  1  0  0.08592  0  0.943879  0  0  0.093274  0  1.007794  0  0  0.095296  0  1.005457  0  0.097289  0  0.120037  0.091619  0  1.010006  0
C  C38  1  0.35168821  0.76376271  0.72495132  1  0  -0.365344  0  3.683488  0  0  -0.386862  0  3.937024  0  0  -0.404117  0  3.955565  0  0.009318  0  -0.111382  -0.3759  0  3.925067  0
C  C39  1  0.64484823  0.23524118  0.27577697  1  0  -0.357071  0  3.680238  0  0  -0.378916  0  3.933691  0  0  -0.395622  0  3.951812  0  0.063516  0  -0.107016  -0.368499  0  3.922278  0
C  C40  1  0.12466815  0.82390455  0.58987462  1  0  0.349696  0  3.752113  0  0  0.32682  0  4.010007  0  0  0.341137  0  4.027484  0  0.877837  0  0.224932  0.316973  0  3.998251  0
C  C41  1  0.87134077  0.17312509  0.41092332  1  0  0.342894  0  3.725807  0  0  0.321393  0  3.980104  0  0  0.33923  0  3.994094  0  0.794247  0  0.219118  0.30899  0  3.971323  0
C  C42  1  0.28802309  0.74727866  0.87497036  1  0  0.358016  0  3.729258  0  0  0.335483  0  3.985882  0  0  0.349385  0  4.002938  0  0.871916  0  0.229371  0.325856  0  3.974481  0
C  C43  1  0.70870931  0.25612090  0.12570888  1  0  0.349024  0  3.694414  0  0  0.328276  0  3.945859  0  0  0.346648  0  3.958661  0  0.830006  0  0.222781  0.315431  0  3.937984  0
C  C44  1  0.56469624  0.68593195  0.92556147  1  0  0.364116  0  3.723515  0  0  0.338651  0  3.985699  0  0  0.354081  0  4.001085  0  0.796652  0  0.230919  0.327929  0  3.975597  0
C  C45  1  0.43632351  0.31748395  0.07541524  1  0  0.35931  0  3.693868  0  0  0.334614  0  3.952498  0  0  0.352909  0  3.965785  0  0.832147  0  0.226428  0.321735  0  3.944344  0
C  C46  1  0.39137721  0.76073419  0.65229526  1  0  0.435229  0  3.79389  0  0  0.405677  0  4.059207  0  0  0.427284  0  4.070462  0  0.926611  0  0.234093  0.391306  0  4.051206  0
C  C47  1  0.60358911  0.23350743  0.34774319  1  0  0.437816  0  3.787013  0  0  0.408648  0  4.051754  0  0  0.430545  0  4.061999  0  0.934249  0  0.236505  0.393952  0  4.044772  0
C  C48  1  0.15495678  0.64092919  0.83470713  1  0  -0.193845  0  3.721459  0  0  -0.206718  0  3.963294  0  0  -0.214897  0  3.984125  0  0.009633  0  -0.083008  -0.201103  0  3.949154  0
C  C49  1  0.84810169  0.35108600  0.16799713  1  0  -0.189374  0  3.730207  0  0  -0.204696  0  3.976895  0  0  -0.212562  0  3.992046  0  -0.062916  0  -0.084966  -0.199934  0  3.967895  0
C  C50  1  0.29625440  0.72307972  0.50675331  1  0  0.37317  0  3.722869  0  0  0.346098  0  3.984991  0  0  0.361608  0  4.000378  0  0.922581  0  0.231616  0.335363  0  3.974658  0
C  C51  1  0.70289241  0.27436087  0.49318305  1  0  0.364079  0  3.693051  0  0  0.339185  0  3.95102  0  0  0.358074  0  3.963372  0  0.844336  0  0.225454  0.325996  0  3.94338  0
C  C52  1  0.12750044  0.97532683  0.62815873  1  0  -0.187955  0  3.7146  0  0  -0.203402  0  3.957773  0  0  -0.212347  0  3.978926  0  -0.029033  0  -0.08307  -0.197437  0  3.943554  0
C  C53  1  0.87628016  0.02595253  0.37044802  1  0  -0.184001  0  3.720332  0  0  -0.201727  0  3.96797  0  0  -0.210581  0  3.984465  0  0.05249  0  -0.083893  -0.196288  0  3.958088  0
C  C54  1  0.21710873  0.39528201  0.65106534  1  0  0.260984  0  4.011911  0  0  0.25306  0  4.320823  0  0  0.2762  0  4.333275  0  0.520547  0  0.132838  0.237885  0  4.310881  0
C  C55  1  0.78114360  0.58873575  0.35247255  1  0  0.263435  0  4.016391  0  0  0.256493  0  4.323286  0  0  0.279236  0  4.335731  0  0.51612  0  0.130345  0.241636  0  4.313597  0
C  C56  1  0.41944661  0.80054855  0.48189953  1  0  -0.188943  0  3.723103  0  0  -0.208745  0  3.975692  0  0  -0.216084  0  3.994745  0  0.033193  0  -0.081531  -0.203765  0  3.962651  0
C  C57  1  0.57801345  0.20783043  0.52055327  1  0  -0.185685  0  3.730682  0  0  -0.20784  0  3.986972  0  0  -0.215405  0  4.001775  0  -0.008373  0  -0.083528  -0.203188  0  3.97801  0
C  C58  1  0.84677193  0.78529155  0.56247090  1  0  0.126732  0  3.682864  0  0  0.097439  0  3.940938  0  0  0.104391  0  3.959584  0  0.408683  0  0.049663  0.09273  0  3.928272  0
C  C59  1  0.14987121  0.22190240  0.44352359  1  0  0.122842  0  3.641436  0  0  0.091746  0  3.901108  0  0  0.103055  0  3.915073  0  0.411283  0  0.043487  0.082838  0  3.894112  0
C  C60  1  0.47241468  0.73665784  0.78919564  1  0  0.435933  0  3.80623  0  0  0.405443  0  4.07295  0  0  0.427515  0  4.084189  0  0.951805  0  0.237938  0.390616  0  4.065252  0
C  C61  1  0.52582988  0.26824897  0.21241213  1  0  0.442763  0  3.795316  0  0  0.410367  0  4.064735  0  0  0.432624  0  4.075669  0  0.928199  0  0.240769  0.395297  0  4.057423  0
C  C62  1  0.13081243  0.89518908  0.93796618  1  0  0.126412  0  3.701821  0  0  0.098026  0  3.955671  0  0  0.104059  0  3.975742  0  0.444243  0  0.053649  0.093774  0  3.942121  0
C  C63  1  0.85400212  0.10614399  0.05520121  1  0  0.116941  0  3.659984  0  0  0.085813  0  3.916741  0  0  0.097852  0  3.929225  0  0.443519  0  0.043625  0.076043  0  3.911355  0
C  C64  1  0.99173895  0.79824272  0.89840837  1  0  -0.114157  0  3.734176  0  0  -0.129186  0  3.986224  0  0  -0.135913  0  4.009293  0  0.027566  0  -0.078199  -0.124628  0  3.970684  0
C  C65  1  0.99769204  0.19141293  0.09762415  1  0  -0.110571  0  3.740928  0  0  -0.12641  0  3.999197  0  0  -0.133464  0  4.016552  0  -0.039357  0  -0.081014  -0.122009  0  3.988743  0
C  C66  1  0.00471600  0.66763944  0.84646444  1  0  0.000242  0  3.721168  0  0  -0.015527  0  3.963015  0  0  -0.012809  0  3.982169  0  -0.093403  0  -0.066747  -0.017274  0  3.949931  0
C  C67  1  0.99517642  0.31837592  0.15414149  1  0  -0.006432  0  3.722781  0  0  -0.025342  0  3.971462  0  0  -0.015643  0  3.981924  0  -0.000602  0  -0.074655  -0.03269  0  3.965706  0
C  C68  1  0.43336844  0.75903897  0.40507229  1  0  0.010176  0  3.721001  0  0  -0.00563  0  3.964983  0  0  -0.002443  0  3.984153  0  -0.02553  0  -0.065655  -0.00766  0  3.951852  0
C  C69  1  0.56881173  0.25494171  0.59759529  1  0  0.007396  0  3.719817  0  0  -0.010396  0  3.967936  0  0  -0.001139  0  3.979098  0  -0.054491  0  -0.071538  -0.017681  0  3.962167  0
C  C70  1  0.79860040  0.61899989  0.04920246  1  0  -0.130804  0  3.763431  0  0  -0.146939  0  4.017142  0  0  -0.154956  0  4.041642  0  0.005282  0  -0.088028  -0.141385  0  4.000247  0
C  C71  1  0.20482023  0.36892318  0.94718021  1  0  -0.129828  0  3.768484  0  0  -0.146661  0  4.027528  0  0  -0.154017  0  4.046117  0  -0.03471  0  -0.090667  -0.142212  0  4.016554  0
C  C72  1  0.63379012  0.54642759  0.91631655  1  0  -0.169601  0  3.685889  0  0  -0.18987  0  3.940541  0  0  -0.197494  0  3.959886  0  0.097224  0  -0.076432  -0.18497  0  3.927888  0
C  C73  1  0.35588052  0.45006849  0.08166360  1  0  -0.167133  0  3.692015  0  0  -0.188305  0  3.948773  0  0  -0.196696  0  3.965217  0  0.003617  0  -0.07684  -0.183128  0  3.938886  0
C  C74  1  0.84020184  0.93336075  0.60105957  1  0  -0.125405  0  3.744669  0  0  -0.139939  0  3.996526  0  0  -0.147576  0  4.019657  0  0.004247  0  -0.08578  -0.134753  0  3.980752  0
C  C75  1  0.16235797  0.07821136  0.40266190  1  0  -0.123352  0  3.75576  0  0  -0.13927  0  4.01271  0  0  -0.147074  0  4.03116  0  -0.036551  0  -0.087828  -0.134338  0  4.001379  0
C  C76  1  0.32197097  0.64327472  0.35423670  1  0  -0.115199  0  3.736941  0  0  -0.127133  0  3.983154  0  0  -0.134915  0  4.00743  0  0.009329  0  -0.082674  -0.121876  0  3.96667  0
C  C77  1  0.68743004  0.36744512  0.64605212  1  0  -0.109313  0  3.74476  0  0  -0.123181  0  3.996529  0  0  -0.130252  0  4.014513  0  0.006607  0  -0.084099  -0.119005  0  3.986164  0
C  C78  1  0.98338104  0.02983683  0.63503078  1  0  0.015969  0  3.714137  0  0  -0.001319  0  3.95687  0  0  0.002789  0  3.976238  0  0.0007  0  -0.065395  -0.004007  0  3.943663  0
C  C79  1  0.02363463  0.97782530  0.36500689  1  0  0.014304  0  3.711181  0  0  -0.006537  0  3.959892  0  0  0.003487  0  3.971433  0  -0.026657  0  -0.07005  -0.014166  0  3.953623  0
C  C80  1  0.75473319  0.51436782  0.97856614  1  0  0.003912  0  3.714284  0  0  -0.013215  0  3.960177  0  0  -0.010243  0  3.981359  0  -0.072192  0  -0.069154  -0.015044  0  3.945609  0
C  C81  1  0.23578996  0.47470758  0.01718529  1  0  0.003234  0  3.712102  0  0  -0.016049  0  3.961984  0  0  -0.007676  0  3.975735  0  0.008111  0  -0.073447  -0.022549  0  3.9542  0
C  C82  1  0.64869975  0.73153365  0.71181674  1  0  0.318988  0  3.81512  0  0  0.27544  0  4.100185  0  0  0.29305  0  4.10973  0  1.11752  0  0.172305  0.264032  0  4.093042  0
C  C83  1  0.34770972  0.26740486  0.28862126  1  0  0.319285  0  3.810114  0  0  0.274997  0  4.095829  0  0  0.292908  0  4.10476  0  1.131344  0  0.173117  0.263144  0  4.089542  0
C  C84  1  0.71871592  0.75096448  0.05503255  1  0  0.125477  0  3.702305  0  0  0.095522  0  3.96056  0  0  0.102508  0  3.979281  0  0.450038  0  0.049362  0.090674  0  3.947827  0
C  C85  1  0.29558177  0.24481475  0.94355154  1  0  0.121002  0  3.665278  0  0  0.088762  0  3.926151  0  0  0.10034  0  3.939292  0  0.381814  0  0.042016  0.079755  0  3.919569  0
C  C86  1  0.20268645  0.57231358  0.38323288  1  0  0.122273  0  3.700953  0  0  0.093939  0  3.955155  0  0  0.099861  0  3.97609  0  0.426763  0  0.048336  0.089879  0  3.940779  0
C  C87  1  0.80879308  0.42869609  0.61559446  1  0  0.115436  0  3.658341  0  0  0.084637  0  3.915612  0  0  0.095814  0  3.929685  0  0.393589  0  0.040654  0.075259  0  3.90949  0
C  C88  1  0.65702826  0.10963484  0.86893790  1  0  0.286094  0  4.023835  0  0  0.279525  0  4.329751  0  0  0.30377  0  4.341668  0  0.525423  0  0.129551  0.263179  0  4.320194  0
C  C89  1  0.35068696  0.90741756  0.12904726  1  0  0.287544  0  4.025538  0  0  0.280975  0  4.329876  0  0  0.304698  0  4.341771  0  0.537211  0  0.12762  0.265276  0  4.320428  0
S  S90  1  0.32076550  0.33712143  0.73028725  1  0  -0.358645  0  2.0382  0  0  -0.343493  0  2.332497  0  0  -0.356992  0  2.325771  0  0.046253  0  -0.161448  -0.332535  0  2.336155  0
S  S91  1  0.68662041  0.65888430  0.27488118  1  0  -0.370873  0  2.021213  0  0  -0.353346  0  2.308998  0  0  -0.367201  0  2.302854  0  0.0447  0  -0.171232  -0.342081  0  2.312235  0
S  S92  1  0.76122608  0.16534949  0.80975332  1  0  -0.408364  0  1.928564  0  0  -0.396103  0  2.198401  0  0  -0.413229  0  2.193748  0  0.02298  0  -0.21885  -0.381236  0  2.200385  0
S  S93  1  0.24248566  0.83676698  0.18323318  1  0  -0.423011  0  1.91466  0  0  -0.406047  0  2.178834  0  0  -0.422986  0  2.174134  0  0.012974  0  -0.228451  -0.392032  0  2.180906  0
N  N94  1  0.98695130  0.72996335  0.55888856  1  0  -0.304682  0  3.187607  0  0  -0.255721  0  3.451213  0  0  -0.278606  0  3.46911  0  -1.209431  0  -0.288646  -0.240173  0  3.438564  0
N  N95  1  0.00576184  0.27256992  0.44660230  1  0  -0.277628  0  3.32643  0  0  -0.230945  0  3.606467  0  0  -0.256796  0  3.62216  0  -1.150421  0  -0.332293  -0.214868  0  3.595238  0
N  N96  1  0.44294114  0.72486951  0.86264612  1  0  -0.316731  0  3.409201  0  0  -0.246385  0  3.642648  0  0  -0.267285  0  3.656929  0  -1.187526  0  -0.237637  -0.231762  0  3.632428  0
N  N97  1  0.55782468  0.28612352  0.13989645  1  0  -0.311631  0  3.433985  0  0  -0.241347  0  3.664734  0  0  -0.262541  0  3.677036  0  -1.223467  0  -0.238767  -0.226647  0  3.656276  0
N  N98  1  0.19243321  0.60865343  0.45849378  1  0  -0.304473  0  3.178246  0  0  -0.255077  0  3.440945  0  0  -0.277631  0  3.458662  0  -1.238186  0  -0.286911  -0.239563  0  3.428378  0
N  N99  1  0.81666796  0.38632839  0.53945776  1  0  -0.274379  0  3.313088  0  0  -0.227806  0  3.592651  0  0  -0.253794  0  3.608205  0  -1.126137  0  -0.329852  -0.211469  0  3.581506  0
N  N100  1  0.27250205  0.76771122  0.58344535  1  0  -0.318848  0  3.399803  0  0  -0.245829  0  3.631281  0  0  -0.267344  0  3.646547  0  -1.224265  0  -0.239668  -0.230713  0  3.620206  0
N  N101  1  0.72100942  0.22155449  0.41662989  1  0  -0.314067  0  3.422896  0  0  -0.241884  0  3.651342  0  0  -0.263252  0  3.664215  0  -1.224818  0  -0.242727  -0.227209  0  3.642668  0
N  N102  1  0.27582932  0.87162994  0.92552794  1  0  -0.298005  0  3.171319  0  0  -0.250294  0  3.432033  0  0  -0.271677  0  3.449424  0  -1.209318  0  -0.28273  -0.235711  0  3.419961  0
N  N103  1  0.70910104  0.13545194  0.06873414  1  0  -0.271137  0  3.318785  0  0  -0.224493  0  3.597196  0  0  -0.248652  0  3.611151  0  -1.137066  0  -0.330843  -0.209584  0  3.587124  0
N  N104  1  0.60760931  0.78638084  0.99343203  1  0  -0.307372  0  3.193578  0  0  -0.258812  0  3.458489  0  0  -0.281728  0  3.475958  0  -1.200482  0  -0.289907  -0.24328  0  3.446249  0
N  N105  1  0.40667469  0.21455995  0.00758775  1  0  -0.282236  0  3.330776  0  0  -0.235977  0  3.611938  0  0  -0.262341  0  3.628115  0  -1.153846  0  -0.333308  -0.219484  0  3.60051  0
N  N106  1  0.62399765  0.72305521  0.78308001  1  0  -0.453121  0  3.056651  0  0  -0.416432  0  3.334113  0  0  -0.435971  0  3.346403  0  -1.226283  0  -0.330195  -0.403319  0  3.325636  0
N  N107  1  0.37432948  0.28211313  0.21827678  1  0  -0.448275  0  3.056015  0  0  -0.411583  0  3.333901  0  0  -0.430996  0  3.345799  0  -1.195133  0  -0.32754  -0.398633  0  3.325863  0
N  N108  1  0.14189525  0.43883356  0.59323901  1  0  -0.485307  0  3.215712  0  0  -0.464913  0  3.537212  0  0  -0.487175  0  3.540722  0  -1.311199  0  -0.427449  -0.450396  0  3.532327  0
N  N109  1  0.85006402  0.53624342  0.40876514  1  0  -0.485444  0  3.210616  0  0  -0.465185  0  3.527238  0  0  -0.486844  0  3.530829  0  -1.309891  0  -0.424456  -0.451423  0  3.522825  0
N  N110  1  0.54134952  0.74497400  0.64492235  1  0  -0.465913  0  3.051653  0  0  -0.429089  0  3.32527  0  0  -0.448763  0  3.337716  0  -1.216185  0  -0.338427  -0.415545  0  3.316198  0
N  N111  1  0.45368997  0.24875976  0.35499026  1  0  -0.46016  0  3.054284  0  0  -0.424084  0  3.328028  0  0  -0.442555  0  3.338894  0  -1.248351  0  -0.337347  -0.411748  0  3.320662  0
N  N112  1  0.58028668  0.06681765  0.91192918  1  0  -0.498694  0  3.183527  0  0  -0.478499  0  3.498804  0  0  -0.502029  0  3.502221  0  -1.304082  0  -0.431364  -0.46276  0  3.493975  0
N  N113  1  0.42951842  0.95969506  0.08929502  1  0  -0.49811  0  3.182259  0  0  -0.477497  0  3.493641  0  0  -0.50019  0  3.497132  0  -1.314053  0  -0.428559  -0.462772  0  3.489096  0
