# generated using pymatgen
data_KH3C4S(NO)2
_symmetry_space_group_name_H-M   'P 1'
_cell_length_a   3.85740005
_cell_length_b   11.20842454
_cell_length_c   14.51874745
_cell_angle_alpha   97.58659057
_cell_angle_beta   90.00005996
_cell_angle_gamma   90.00013179
_symmetry_Int_Tables_number   1
_chemical_formula_structural   KH3C4S(NO)2
_chemical_formula_sum   'K4 H12 C16 S4 N8 O8'
_cell_volume   622.22872527
_cell_formula_units_Z   4
loop_
 _symmetry_equiv_pos_site_id
 _symmetry_equiv_pos_as_xyz
  1  'x, y, z'
loop_
 _atom_site_type_symbol
 _atom_site_label
 _atom_site_symmetry_multiplicity
 _atom_site_fract_x
 _atom_site_fract_y
 _atom_site_fract_z
 _atom_site_occupancy
 _atom_site_hle17_bader_spin_density
 _atom_site_hle17_ddec_charge
 _atom_site_hle17_ddec_spin_density
 _atom_site_hle17_ddec_sum_bond_order
 _atom_site_hle17_magmom
 _atom_site_hse06_10hf_bader_spin_density
 _atom_site_hse06_10hf_ddec_charge
 _atom_site_hse06_10hf_ddec_spin_density
 _atom_site_hse06_10hf_ddec_sum_bond_order
 _atom_site_hse06_10hf_magmom
 _atom_site_hse06_bader_spin_density
 _atom_site_hse06_ddec_charge
 _atom_site_hse06_ddec_spin_density
 _atom_site_hse06_ddec_sum_bond_order
 _atom_site_hse06_magmom
 _atom_site_pbe_bader_spin_density
 _atom_site_pbe_cm5_charge
 _atom_site_pbe_ddec_charge
 _atom_site_pbe_ddec_spin_density
 _atom_site_pbe_ddec_sum_bond_order
 _atom_site_pbe_magmom
K  K0  1  0.05635710  0.00000100  0.25000113  1  0  0.876385  0  0.527068  0  0  0.816336  0  0.735541  0  0  0.830189  0  0.716057  0  0  0.692278  0.805819  0  0.749734  0
K  K1  1  0.94364225  0.00000062  0.74999980  1  0  0.876381  0  0.527054  0  0  0.816313  0  0.735566  0  0  0.83017  0  0.716078  0  0  0.692273  0.805801  0  0.749759  0
K  K2  1  0.60826161  0.50000154  0.24999720  1  0  0.87514  0  0.500105  0  0  0.811769  0  0.704731  0  0  0.825499  0  0.686229  0  0  0.630626  0.801584  0  0.718054  0
K  K3  1  0.39174110  0.49999979  0.74999765  1  0  0.875133  0  0.50011  0  0  0.811772  0  0.704735  0  0  0.825499  0  0.686237  0  0  0.630632  0.801587  0  0.718059  0
H  H4  1  0.65013257  0.07786119  0.05130036  1  0  0.328899  0  0.904995  0  0  0.305163  0  0.973951  0  0  0.315829  0  0.964477  0  0  0.308898  0.297591  0  0.980812  0
H  H5  1  0.65013358  0.92214014  0.44870076  1  0  0.328898  0  0.905007  0  0  0.305145  0  0.973961  0  0  0.31581  0  0.964489  0  0  0.308903  0.297573  0  0.980822  0
H  H6  1  0.34986754  0.92214015  0.94870069  1  0  0.328939  0  0.904992  0  0  0.305192  0  0.973926  0  0  0.315857  0  0.964454  0  0  0.308922  0.29762  0  0.980787  0
H  H7  1  0.34986912  0.07786030  0.55130020  1  0  0.328913  0  0.905007  0  0  0.30518  0  0.973948  0  0  0.315845  0  0.964476  0  0  0.308907  0.297609  0  0.980809  0
H  H8  1  0.50430323  0.24552776  0.80935227  1  0  0.139032  0  1.00494  0  0  0.147758  0  1.07039  0  0  0.153032  0  1.068214  0  0  0.100503  0.144034  0  1.072061  0
H  H9  1  0.50430210  0.75447192  0.69064721  1  0  0.139038  0  1.004957  0  0  0.147766  0  1.070401  0  0  0.15304  0  1.068226  0  0  0.10051  0.144043  0  1.072071  0
H  H10  1  0.49569429  0.75447268  0.19064800  1  0  0.139023  0  1.004961  0  0  0.147741  0  1.070422  0  0  0.153015  0  1.068247  0  0  0.100494  0.144016  0  1.072093  0
H  H11  1  0.49569541  0.24552852  0.30935306  1  0  0.139034  0  1.004971  0  0  0.147754  0  1.07042  0  0  0.153029  0  1.068245  0  0  0.100497  0.144032  0  1.072089  0
H  H12  1  0.00750916  0.42344296  0.04901815  1  0  0.321036  0  0.920897  0  0  0.297274  0  0.990356  0  0  0.307877  0  0.980973  0  0  0.305417  0.289705  0  0.997194  0
H  H13  1  0.00751046  0.57655782  0.45098136  1  0  0.321067  0  0.920869  0  0  0.297299  0  0.990332  0  0  0.307903  0  0.980946  0  0  0.305413  0.28973  0  0.997171  0
H  H14  1  0.99249095  0.57655838  0.95098153  1  0  0.321045  0  0.920905  0  0  0.297279  0  0.990368  0  0  0.307883  0  0.980985  0  0  0.305416  0.28971  0  0.997206  0
H  H15  1  0.99248965  0.42344352  0.54901900  1  0  0.321029  0  0.92091  0  0  0.297264  0  0.990376  0  0  0.307868  0  0.980992  0  0  0.305405  0.289695  0  0.997216  0
C  C16  1  0.60763981  0.24677744  0.87930229  1  0  -0.513838  0  3.700575  0  0  -0.53229  0  3.967366  0  0  -0.555944  0  3.982835  0  0  -0.15999  -0.516499  0  3.956604  0
C  C17  1  0.60763841  0.75322144  0.62069782  1  0  -0.513849  0  3.700547  0  0  -0.532328  0  3.967335  0  0  -0.555987  0  3.982814  0  0  -0.160016  -0.516537  0  3.956572  0
C  C18  1  0.39235771  0.75322210  0.12069858  1  0  -0.513835  0  3.700511  0  0  -0.532295  0  3.967322  0  0  -0.555951  0  3.982795  0  0  -0.159989  -0.516504  0  3.95656  0
C  C19  1  0.39236170  0.24677810  0.37930305  1  0  -0.513941  0  3.700558  0  0  -0.532438  0  3.967344  0  0  -0.556098  0  3.982821  0  0  -0.160031  -0.516649  0  3.956586  0
C  C20  1  0.85040277  0.25027066  0.06170541  1  0  0.496951  0  3.797865  0  0  0.450674  0  4.096971  0  0  0.478949  0  4.101955  0  0  0.248186  0.431789  0  4.092754  0
C  C21  1  0.85040518  0.74972903  0.43829422  1  0  0.496911  0  3.797983  0  0  0.45059  0  4.0971  0  0  0.478863  0  4.102084  0  0  0.24815  0.431702  0  4.092888  0
C  C22  1  0.14959734  0.74972978  0.93829417  1  0  0.496939  0  3.797956  0  0  0.45063  0  4.097049  0  0  0.478902  0  4.102037  0  0  0.248151  0.431743  0  4.092837  0
C  C23  1  0.14959752  0.25027141  0.56170605  1  0  0.496904  0  3.797922  0  0  0.450636  0  4.097004  0  0  0.47891  0  4.10199  0  0  0.248152  0.43175  0  4.092795  0
C  C24  1  0.56436430  0.14493355  0.92495285  1  0  0.59418  0  3.901649  0  0  0.551163  0  4.187476  0  0  0.581354  0  4.189928  0  0  0.189656  0.531015  0  4.184988  0
C  C25  1  0.56436858  0.85506439  0.57504647  1  0  0.594127  0  3.901835  0  0  0.551112  0  4.187617  0  0  0.581302  0  4.190066  0  0  0.189625  0.530964  0  4.185131  0
C  C26  1  0.43563581  0.85506509  0.07504655  1  0  0.594212  0  3.901649  0  0  0.551186  0  4.187446  0  0  0.581376  0  4.189898  0  0  0.189673  0.531038  0  4.18496  0
C  C27  1  0.43563671  0.14493425  0.42495293  1  0  0.594298  0  3.901532  0  0  0.551301  0  4.187331  0  0  0.581492  0  4.189777  0  0  0.189703  0.531154  0  4.184847  0
C  C28  1  0.77429913  0.35039693  0.92344182  1  0  0.619375  0  3.866672  0  0  0.577017  0  4.149443  0  0  0.607858  0  4.150563  0  0  0.211194  0.556339  0  4.148026  0
C  C29  1  0.77429945  0.64960299  0.57655776  1  0  0.61942  0  3.866586  0  0  0.577076  0  4.149327  0  0  0.607917  0  4.150445  0  0  0.211214  0.556399  0  4.147909  0
C  C30  1  0.22569839  0.64960261  0.07655767  1  0  0.6195  0  3.866552  0  0  0.577118  0  4.149347  0  0  0.607958  0  4.150467  0  0  0.211268  0.556439  0  4.147931  0
C  C31  1  0.22570325  0.35039835  0.42344261  1  0  0.619415  0  3.866699  0  0  0.57715  0  4.149322  0  0  0.607991  0  4.150439  0  0  0.21128  0.556471  0  4.147911  0
S  S32  1  0.99805686  0.25475555  0.17139878  1  0  -0.575194  0  1.936453  0  0  -0.56658  0  2.274519  0  0  -0.580277  0  2.267329  0  0  -0.257307  -0.556727  0  2.279479  0
S  S33  1  0.99805622  0.74524607  0.32860178  1  0  -0.575168  0  1.936499  0  0  -0.566548  0  2.274574  0  0  -0.580243  0  2.267385  0  0  -0.257287  -0.55669  0  2.279533  0
S  S34  1  0.00194584  0.74524489  0.82860149  1  0  -0.575158  0  1.936449  0  0  -0.566559  0  2.274558  0  0  -0.580252  0  2.267371  0  0  -0.257288  -0.556706  0  2.279519  0
S  S35  1  0.00194389  0.25475527  0.67139859  1  0  -0.575165  0  1.936467  0  0  -0.56657  0  2.274569  0  0  -0.580265  0  2.267382  0  0  -0.257299  -0.556715  0  2.279528  0
N  N36  1  0.88858416  0.34618632  0.01440665  1  0  -0.465471  0  3.288222  0  0  -0.396166  0  3.521267  0  0  -0.420434  0  3.526139  0  0  -0.38201  -0.379956  0  3.517945  0
N  N37  1  0.88858611  0.65381521  0.48559387  1  0  -0.46551  0  3.288242  0  0  -0.396207  0  3.521291  0  0  -0.420473  0  3.52616  0  0  -0.382008  -0.379996  0  3.517972  0
N  N38  1  0.11141336  0.65381502  0.98559371  1  0  -0.465503  0  3.288238  0  0  -0.396191  0  3.521298  0  0  -0.420458  0  3.526168  0  0  -0.382011  -0.37998  0  3.517978  0
N  N39  1  0.11141659  0.34618614  0.51440718  1  0  -0.465462  0  3.288286  0  0  -0.396183  0  3.521286  0  0  -0.420451  0  3.526159  0  0  -0.382005  -0.379969  0  3.517957  0
N  N40  1  0.69086484  0.15208658  0.01587881  1  0  -0.45519  0  3.281803  0  0  -0.386305  0  3.515292  0  0  -0.410304  0  3.519657  0  0  -0.378285  -0.370341  0  3.51226  0
N  N41  1  0.69086809  0.84791388  0.48412086  1  0  -0.455166  0  3.281866  0  0  -0.386184  0  3.515241  0  0  -0.41019  0  3.519625  0  0  -0.378252  -0.370224  0  3.512222  0
N  N42  1  0.30913267  0.84791386  0.98412146  1  0  -0.455292  0  3.281892  0  0  -0.386312  0  3.515272  0  0  -0.410314  0  3.519648  0  0  -0.378301  -0.370345  0  3.512235  0
N  N43  1  0.30913461  0.15208656  0.51587942  1  0  -0.455219  0  3.281793  0  0  -0.386338  0  3.515262  0  0  -0.410341  0  3.519634  0  0  -0.378286  -0.37037  0  3.512223  0
O  O44  1  0.42460655  0.04615823  0.88928769  1  0  -0.688113  0  1.964861  0  0  -0.636497  0  2.203372  0  0  -0.658522  0  2.194057  0  0  -0.437543  -0.620918  0  2.209347  0
O  O45  1  0.42461163  0.95383779  0.61071139  1  0  -0.688082  0  1.964935  0  0  -0.636477  0  2.203445  0  0  -0.658497  0  2.194129  0  0  -0.437522  -0.620902  0  2.209434  0
O  O46  1  0.57539097  0.95384041  0.11071309  1  0  -0.688121  0  1.964837  0  0  -0.636517  0  2.203359  0  0  -0.658539  0  2.194045  0  0  -0.437559  -0.620934  0  2.209328  0
O  O47  1  0.57539107  0.04615905  0.38928783  1  0  -0.688149  0  1.964823  0  0  -0.63654  0  2.203339  0  0  -0.658559  0  2.194021  0  0  -0.437577  -0.620958  0  2.209313  0
O  O48  1  0.82818024  0.44696279  0.88808110  1  0  -0.67743  0  1.959446  0  0  -0.625256  0  2.193413  0  0  -0.647253  0  2.184395  0  0  -0.410169  -0.609732  0  2.199308  0
O  O49  1  0.82818005  0.55303717  0.61191919  1  0  -0.677452  0  1.959458  0  0  -0.625282  0  2.193418  0  0  -0.647278  0  2.184399  0  0  -0.410182  -0.609758  0  2.199314  0
O  O50  1  0.17181987  0.55303765  0.11191849  1  0  -0.677495  0  1.959439  0  0  -0.625312  0  2.193419  0  0  -0.647309  0  2.184401  0  0  -0.410231  -0.609789  0  2.199314  0
O  O51  1  0.17182265  0.44696237  0.38808237  1  0  -0.677418  0  1.959475  0  0  -0.62528  0  2.193396  0  0  -0.647276  0  2.184376  0  0  -0.410198  -0.609757  0  2.199293  0
