# generated using pymatgen
data_CdH12C18N2(O3F2)2
_symmetry_space_group_name_H-M   'P 1'
_cell_length_a   7.60907995
_cell_length_b   11.69022501
_cell_length_c   12.60361858
_cell_angle_alpha   89.99988312
_cell_angle_beta   89.99997273
_cell_angle_gamma   90.00050956
_symmetry_Int_Tables_number   1
_chemical_formula_structural   CdH12C18N2(O3F2)2
_chemical_formula_sum   'Cd2 H24 C36 N4 O12 F8'
_cell_volume   1121.11527386
_cell_formula_units_Z   2
loop_
 _symmetry_equiv_pos_site_id
 _symmetry_equiv_pos_as_xyz
  1  'x, y, z'
loop_
 _atom_site_type_symbol
 _atom_site_label
 _atom_site_symmetry_multiplicity
 _atom_site_fract_x
 _atom_site_fract_y
 _atom_site_fract_z
 _atom_site_occupancy
 _atom_site_hle17_bader_spin_density
 _atom_site_hle17_ddec_charge
 _atom_site_hle17_ddec_spin_density
 _atom_site_hle17_ddec_sum_bond_order
 _atom_site_hle17_magmom
 _atom_site_hse06_10hf_bader_spin_density
 _atom_site_hse06_10hf_ddec_charge
 _atom_site_hse06_10hf_ddec_spin_density
 _atom_site_hse06_10hf_ddec_sum_bond_order
 _atom_site_hse06_10hf_magmom
 _atom_site_hse06_bader_spin_density
 _atom_site_hse06_ddec_charge
 _atom_site_hse06_ddec_spin_density
 _atom_site_hse06_ddec_sum_bond_order
 _atom_site_hse06_magmom
 _atom_site_pbe_bader_spin_density
 _atom_site_pbe_cm5_charge
 _atom_site_pbe_ddec_charge
 _atom_site_pbe_ddec_spin_density
 _atom_site_pbe_ddec_sum_bond_order
 _atom_site_pbe_magmom
Cd  Cd0  1  0.50000297  0.30350434  0.99999976  1  0  1.152849  0  1.720276  0  0  0.966903  0  2.181936  0  0  1.017387  0  2.131979  0  0  0.779007  0.930774  0  2.21629  0
Cd  Cd1  1  0.00000057  0.69649502  0.50000099  1  0  1.152824  0  1.720292  0  0  0.966892  0  2.181949  0  0  1.017379  0  2.13199  0  0  0.778998  0.930761  0  2.2163  0
H  H2  1  0.39523775  0.35047514  0.78774799  1  0  0.424543  0  0.81898  0  0  0.410283  0  0.867445  0  0  0.418541  0  0.858571  0  0  0.321129  0.404351  0  0.873908  0
H  H3  1  0.60476397  0.35047554  0.21225133  1  0  0.424565  0  0.818929  0  0  0.410304  0  0.867398  0  0  0.418563  0  0.858522  0  0  0.321144  0.404371  0  0.873864  0
H  H4  1  0.89523718  0.64952567  0.71225265  1  0  0.424578  0  0.818918  0  0  0.410313  0  0.867391  0  0  0.418573  0  0.858514  0  0  0.321144  0.40438  0  0.873856  0
H  H5  1  0.10476202  0.64952555  0.28774770  1  0  0.4245  0  0.819018  0  0  0.410241  0  0.867481  0  0  0.418499  0  0.85861  0  0  0.321126  0.404311  0  0.873942  0
H  H6  1  0.21246644  0.32513199  0.84785379  1  0  0.42259  0  0.891685  0  0  0.386941  0  0.962927  0  0  0.398967  0  0.94589  0  0  0.277341  0.378482  0  0.974865  0
H  H7  1  0.78754019  0.32513103  0.15214875  1  0  0.422598  0  0.891675  0  0  0.386939  0  0.962925  0  0  0.398964  0  0.945888  0  0  0.277354  0.37848  0  0.974863  0
H  H8  1  0.71246495  0.67486946  0.65214849  1  0  0.422558  0  0.891731  0  0  0.386904  0  0.962976  0  0  0.398929  0  0.945939  0  0  0.277324  0.378445  0  0.974914  0
H  H9  1  0.28753591  0.67487027  0.34785181  1  0  0.422541  0  0.891752  0  0  0.386881  0  0.96301  0  0  0.398906  0  0.945973  0  0  0.277302  0.378421  0  0.974949  0
H  H10  1  0.62948132  0.51010569  0.85564497  1  0  0.088137  0  0.943317  0  0  0.095398  0  1.007694  0  0  0.09931  0  1.002909  0  0  0.117465  0.092564  0  1.011112  0
H  H11  1  0.37051731  0.51010060  0.14434849  1  0  0.088031  0  0.943606  0  0  0.095345  0  1.007925  0  0  0.09925  0  1.003137  0  0  0.117444  0.09251  0  1.011341  0
H  H12  1  0.12947863  0.48989699  0.64435416  1  0  0.088112  0  0.943343  0  0  0.095375  0  1.007716  0  0  0.099287  0  1.002933  0  0  0.11746  0.092541  0  1.011133  0
H  H13  1  0.87052235  0.48989605  0.35564728  1  0  0.088125  0  0.94338  0  0  0.095391  0  1.007745  0  0  0.099303  0  1.00296  0  0  0.117465  0.092557  0  1.011164  0
H  H14  1  0.62767178  0.72406565  0.84656960  1  0  0.111701  0  0.954665  0  0  0.119707  0  1.018839  0  0  0.122858  0  1.018  0  0  0.107904  0.117527  0  1.019496  0
H  H15  1  0.37231924  0.72406055  0.15342902  1  0  0.111554  0  0.95471  0  0  0.119608  0  1.018836  0  0  0.122755  0  1.017999  0  0  0.107911  0.117423  0  1.01949  0
H  H16  1  0.12767013  0.27593616  0.65343111  1  0  0.111683  0  0.954572  0  0  0.119712  0  1.018725  0  0  0.122864  0  1.017883  0  0  0.107905  0.117534  0  1.019383  0
H  H17  1  0.87232927  0.27593611  0.34656914  1  0  0.111636  0  0.954586  0  0  0.119693  0  1.01871  0  0  0.122846  0  1.017867  0  0  0.107896  0.117511  0  1.019366  0
H  H18  1  0.59293438  0.88489897  0.16155904  1  0  0.114352  0  0.974212  0  0  0.122599  0  1.035512  0  0  0.126403  0  1.033467  0  0  0.103445  0.119876  0  1.037133  0
H  H19  1  0.40705487  0.88490366  0.83844087  1  0  0.114268  0  0.974162  0  0  0.122545  0  1.035445  0  0  0.126349  0  1.033401  0  0  0.103407  0.119813  0  1.037073  0
H  H20  1  0.09293961  0.11509862  0.33843999  1  0  0.114326  0  0.974158  0  0  0.122565  0  1.035479  0  0  0.126368  0  1.033436  0  0  0.103443  0.11985  0  1.037088  0
H  H21  1  0.90706024  0.11509892  0.66155898  1  0  0.114301  0  0.97421  0  0  0.122554  0  1.035515  0  0  0.126359  0  1.033471  0  0  0.10342  0.119828  0  1.037137  0
H  H22  1  0.59053324  0.09950691  0.15472840  1  0  0.090946  0  0.942873  0  0  0.098098  0  1.007326  0  0  0.101475  0  1.003525  0  0  0.115012  0.095684  0  1.010022  0
H  H23  1  0.40946640  0.09951159  0.84527694  1  0  0.09101  0  0.942846  0  0  0.098156  0  1.007308  0  0  0.101533  0  1.003506  0  0  0.115023  0.095725  0  1.010021  0
H  H24  1  0.09053202  0.90049067  0.34527459  1  0  0.09095  0  0.942903  0  0  0.098092  0  1.007366  0  0  0.101468  0  1.003565  0  0  0.115006  0.09566  0  1.010082  0
H  H25  1  0.90947059  0.90049101  0.65472688  1  0  0.090995  0  0.942845  0  0  0.098125  0  1.007313  0  0  0.1015  0  1.003511  0  0  0.114999  0.095662  0  1.010061  0
C  C26  1  0.95249198  0.98086222  0.95280310  1  0  0.111889  0  3.838681  0  0  0.080704  0  4.143275  0  0  0.088222  0  4.151049  0  0  0.080943  0.07519  0  4.138766  0
C  C27  1  0.04750777  0.98085888  0.04719267  1  0  0.112074  0  3.838599  0  0  0.080889  0  4.143171  0  0  0.088408  0  4.150945  0  0  0.08101  0.075373  0  4.138663  0
C  C28  1  0.45249614  0.01913807  0.54719515  1  0  0.112113  0  3.838605  0  0  0.080915  0  4.143181  0  0  0.088432  0  4.150956  0  0  0.081055  0.075393  0  4.138679  0
C  C29  1  0.54750898  0.01913930  0.45280399  1  0  0.111987  0  3.838676  0  0  0.080817  0  4.143228  0  0  0.088332  0  4.151002  0  0  0.080959  0.075304  0  4.138721  0
C  C30  1  0.90425408  0.08533189  0.90793825  1  0  0.189945  0  3.793385  0  0  0.154932  0  4.094528  0  0  0.164237  0  4.103511  0  0  0.085833  0.148206  0  4.089068  0
C  C31  1  0.09574273  0.08532873  0.09205839  1  0  0.189803  0  3.793538  0  0  0.154821  0  4.094656  0  0  0.164126  0  4.103641  0  0  0.085816  0.148097  0  4.089194  0
C  C32  1  0.40425457  0.91466897  0.59206001  1  0  0.189824  0  3.793625  0  0  0.154813  0  4.09475  0  0  0.164119  0  4.103738  0  0  0.085783  0.148088  0  4.089291  0
C  C33  1  0.59574166  0.91467059  0.40793826  1  0  0.189877  0  3.793515  0  0  0.154878  0  4.094613  0  0  0.164185  0  4.1036  0  0  0.085882  0.14815  0  4.089154  0
C  C34  1  0.95043381  0.19007247  0.95273480  1  0  -0.141563  0  3.727952  0  0  -0.144691  0  3.991051  0  0  -0.148478  0  4.007609  0  0  -0.021689  -0.142427  0  3.980374  0
C  C35  1  0.04956968  0.19007257  0.04726323  1  0  -0.141556  0  3.727933  0  0  -0.144705  0  3.99105  0  0  -0.148493  0  4.007609  0  0  -0.021669  -0.142438  0  3.980363  0
C  C36  1  0.45043291  0.80992694  0.54726503  1  0  -0.141641  0  3.728021  0  0  -0.144738  0  3.991056  0  0  -0.148535  0  4.007623  0  0  -0.021699  -0.142469  0  3.980371  0
C  C37  1  0.54956583  0.80992648  0.45273502  1  0  -0.14154  0  3.727979  0  0  -0.144653  0  3.991008  0  0  -0.148449  0  4.007575  0  0  -0.021688  -0.142386  0  3.980323  0
C  C38  1  0.89814968  0.30063399  0.89615969  1  0  0.688519  0  3.914375  0  0  0.634491  0  4.225134  0  0  0.669116  0  4.21532  0  0  0.208784  0.610902  0  4.23125  0
C  C39  1  0.10185925  0.30063084  0.10384211  1  0  0.68863  0  3.9142  0  0  0.634608  0  4.224955  0  0  0.669233  0  4.215141  0  0  0.208786  0.611019  0  4.231073  0
C  C40  1  0.39814461  0.69936855  0.60384334  1  0  0.688709  0  3.914154  0  0  0.63467  0  4.224908  0  0  0.669298  0  4.215091  0  0  0.208828  0.61108  0  4.231028  0
C  C41  1  0.60185264  0.69936852  0.39615851  1  0  0.688609  0  3.914311  0  0  0.634571  0  4.225069  0  0  0.669199  0  4.215252  0  0  0.208775  0.610982  0  4.231187  0
C  C42  1  0.56996722  0.56147828  0.91825949  1  0  0.138914  0  3.708946  0  0  0.108695  0  3.956707  0  0  0.115936  0  3.974856  0  0  0.05093  0.103937  0  3.944202  0
C  C43  1  0.43002685  0.56147710  0.08174023  1  0  0.138966  0  3.708738  0  0  0.108687  0  3.95653  0  0  0.115939  0  3.974664  0  0  0.05092  0.103934  0  3.94402  0
C  C44  1  0.06996783  0.43852148  0.58174124  1  0  0.138989  0  3.708848  0  0  0.108774  0  3.956628  0  0  0.116015  0  3.974778  0  0  0.050974  0.104018  0  3.944122  0
C  C45  1  0.93003246  0.43852161  0.41825950  1  0  0.13893  0  3.708812  0  0  0.108711  0  3.956605  0  0  0.115952  0  3.974754  0  0  0.050954  0.103953  0  3.944101  0
C  C46  1  0.56997197  0.68021680  0.91441604  1  0  -0.147795  0  3.691305  0  0  -0.166858  0  3.935699  0  0  -0.174546  0  3.957464  0  0  -0.078875  -0.161807  0  3.920917  0
C  C47  1  0.43003028  0.68021305  0.08557632  1  0  -0.147648  0  3.691472  0  0  -0.166743  0  3.935877  0  0  -0.174425  0  3.957638  0  0  -0.078901  -0.161682  0  3.921085  0
C  C48  1  0.06996834  0.31978552  0.58558152  1  0  -0.147774  0  3.691391  0  0  -0.166852  0  3.93577  0  0  -0.17454  0  3.957534  0  0  -0.078906  -0.161801  0  3.920986  0
C  C49  1  0.93003297  0.31978566  0.41441865  1  0  -0.147729  0  3.691403  0  0  -0.166838  0  3.935785  0  0  -0.174526  0  3.957549  0  0  -0.078926  -0.161781  0  3.920995  0
C  C50  1  0.49999846  0.74165442  0.00000083  1  0  0.097089  0  3.760133  0  0  0.108681  0  3.991175  0  0  0.111582  0  4.013902  0  0  0.014218  0.106975  0  3.975598  0
C  C51  1  0.00000023  0.25834605  0.49999902  1  0  0.096972  0  3.760294  0  0  0.108575  0  3.991324  0  0  0.111477  0  4.014051  0  0  0.01422  0.106871  0  3.975747  0
C  C52  1  0.49999759  0.86762008  0.99999923  1  0  0.106942  0  3.771021  0  0  0.115795  0  4.007773  0  0  0.12097  0  4.028462  0  0  0.013511  0.112527  0  3.993549  0
C  C53  1  0.99999807  0.13238048  0.50000059  1  0  0.106977  0  3.771013  0  0  0.115835  0  4.007743  0  0  0.121009  0  4.028432  0  0  0.013515  0.112566  0  3.993524  0
C  C54  1  0.55027778  0.92906061  0.09027075  1  0  -0.165434  0  3.708267  0  0  -0.186602  0  3.961217  0  0  -0.194827  0  3.981775  0  0  -0.087095  -0.181169  0  3.947323  0
C  C55  1  0.44971601  0.92906368  0.90973304  1  0  -0.165391  0  3.708438  0  0  -0.186581  0  3.961393  0  0  -0.194808  0  3.981954  0  0  -0.087057  -0.181138  0  3.947496  0
C  C56  1  0.05027840  0.07093844  0.40972988  1  0  -0.165405  0  3.708186  0  0  -0.186564  0  3.961134  0  0  -0.19479  0  3.981697  0  0  -0.087077  -0.181136  0  3.947231  0
C  C57  1  0.94972085  0.07093916  0.59026917  1  0  -0.165376  0  3.708257  0  0  -0.186562  0  3.961218  0  0  -0.194782  0  3.981762  0  0  -0.087044  -0.181122  0  3.947312  0
C  C58  1  0.54999188  0.04779956  0.08699315  1  0  0.127791  0  3.724041  0  0  0.094568  0  3.983339  0  0  0.101466  0  4.002804  0  0  0.042232  0.090109  0  3.969845  0
C  C59  1  0.45000574  0.04780091  0.91301150  1  0  0.127737  0  3.724039  0  0  0.094509  0  3.983355  0  0  0.101408  0  4.002819  0  0  0.042219  0.090065  0  3.969863  0
C  C60  1  0.04999261  0.95219864  0.41300907  1  0  0.127754  0  3.72389  0  0  0.094548  0  3.983187  0  0  0.101446  0  4.002652  0  0  0.042227  0.090104  0  3.969701  0
C  C61  1  0.95000674  0.95219850  0.58699151  1  0  0.127752  0  3.723974  0  0  0.094559  0  3.983244  0  0  0.10146  0  4.00271  0  0  0.042268  0.09014  0  3.969759  0
N  N62  1  0.50000301  0.50306850  0.99999481  1  0  -0.344382  0  3.267111  0  0  -0.262946  0  3.523917  0  0  -0.283394  0  3.543722  0  0  -0.328041  -0.248471  0  3.509742  0
N  N63  1  0.00000054  0.49693085  0.50000118  1  0  -0.34441  0  3.267221  0  0  -0.263002  0  3.524048  0  0  -0.283451  0  3.543858  0  0  -0.328071  -0.248525  0  3.509872  0
N  N64  1  0.49999941  0.10621156  0.00000300  1  0  -0.355724  0  3.288786  0  0  -0.274023  0  3.556407  0  0  -0.295754  0  3.578335  0  0  -0.336556  -0.258654  0  3.540735  0
N  N65  1  0.00000191  0.89378891  0.50000081  1  0  -0.355722  0  3.288705  0  0  -0.274062  0  3.556362  0  0  -0.295792  0  3.578288  0  0  -0.3366  -0.25869  0  3.54067  0
O  O66  1  0.73552570  0.32076145  0.88556035  1  0  -0.646751  0  2.013071  0  0  -0.594951  0  2.273988  0  0  -0.622063  0  2.259718  0  0  -0.335098  -0.575977  0  2.2833  0
O  O67  1  0.26448220  0.32075837  0.11444219  1  0  -0.646756  0  2.013049  0  0  -0.594965  0  2.273973  0  0  -0.622076  0  2.259701  0  0  -0.335097  -0.575989  0  2.283284  0
O  O68  1  0.23552166  0.67924013  0.61444271  1  0  -0.646764  0  2.01297  0  0  -0.594972  0  2.273901  0  0  -0.622082  0  2.259628  0  0  -0.335101  -0.575997  0  2.283213  0
O  O69  1  0.76447663  0.67924022  0.38556075  1  0  -0.646724  0  2.013033  0  0  -0.594927  0  2.273959  0  0  -0.622039  0  2.259688  0  0  -0.33505  -0.575952  0  2.283271  0
O  O70  1  0.02022138  0.36298783  0.86089528  1  0  -0.603055  0  1.931077  0  0  -0.556503  0  2.142513  0  0  -0.580976  0  2.131306  0  0  -0.318916  -0.539274  0  2.149621  0
O  O71  1  0.97978840  0.36298374  0.13910957  1  0  -0.603093  0  1.931019  0  0  -0.55655  0  2.142458  0  0  -0.581023  0  2.131247  0  0  -0.318898  -0.539323  0  2.149571  0
O  O72  1  0.52021675  0.63701592  0.63910944  1  0  -0.603146  0  1.931034  0  0  -0.556601  0  2.142477  0  0  -0.581069  0  2.131264  0  0  -0.318933  -0.539375  0  2.149592  0
O  O73  1  0.47978359  0.63701440  0.36089014  1  0  -0.603142  0  1.931073  0  0  -0.556595  0  2.142518  0  0  -0.581063  0  2.131304  0  0  -0.318949  -0.539369  0  2.149634  0
O  O74  1  0.33953682  0.29801913  0.83730604  1  0  -0.835772  0  1.830134  0  0  -0.778883  0  2.02239  0  0  -0.800745  0  1.992839  0  0  -0.580379  -0.763517  0  2.042825  0
O  O75  1  0.66046682  0.29801911  0.16269259  1  0  -0.83579  0  1.830074  0  0  -0.77888  0  2.02234  0  0  -0.800742  0  1.992793  0  0  -0.580397  -0.763514  0  2.042778  0
O  O76  1  0.83953568  0.70198221  0.66269462  1  0  -0.835772  0  1.830083  0  0  -0.778862  0  2.022339  0  0  -0.800723  0  1.992791  0  0  -0.580384  -0.763491  0  2.042771  0
O  O77  1  0.16046423  0.70198230  0.33730642  1  0  -0.835671  0  1.830182  0  0  -0.778776  0  2.022467  0  0  -0.800637  0  1.992919  0  0  -0.580349  -0.763408  0  2.042902  0
F  F78  1  0.80849744  0.08130014  0.81677239  1  0  -0.158267  0  1.247912  0  0  -0.109497  0  1.41819  0  0  -0.118112  0  1.408686  0  0  -0.077492  -0.103287  0  1.424759  0
F  F79  1  0.19150063  0.08129391  0.18322426  1  0  -0.158266  0  1.248104  0  0  -0.109507  0  1.418377  0  0  -0.118121  0  1.408875  0  0  -0.07752  -0.103299  0  1.424948  0
F  F80  1  0.30850185  0.91870273  0.68322670  1  0  -0.158249  0  1.248048  0  0  -0.109487  0  1.41833  0  0  -0.118102  0  1.408828  0  0  -0.077481  -0.103277  0  1.424898  0
F  F81  1  0.69149968  0.91870340  0.31677315  1  0  -0.158282  0  1.248025  0  0  -0.109525  0  1.418299  0  0  -0.118139  0  1.408796  0  0  -0.077515  -0.103315  0  1.42487  0
F  F82  1  0.90759365  0.88091710  0.90633956  1  0  -0.139116  0  1.225186  0  0  -0.095671  0  1.384125  0  0  -0.10222  0  1.374179  0  0  -0.082561  -0.090987  0  1.39107  0
F  F83  1  0.09239949  0.88091563  0.09365481  1  0  -0.139096  0  1.225182  0  0  -0.095655  0  1.38412  0  0  -0.102204  0  1.374173  0  0  -0.082551  -0.090971  0  1.391066  0
F  F84  1  0.40759781  0.11908292  0.59365712  1  0  -0.139147  0  1.225177  0  0  -0.0957  0  1.384116  0  0  -0.102252  0  1.374168  0  0  -0.082578  -0.091015  0  1.391062  0
F  F85  1  0.59240341  0.11908282  0.40634105  1  0  -0.139117  0  1.225214  0  0  -0.09568  0  1.384144  0  0  -0.10223  0  1.374197  0  0  -0.08257  -0.090996  0  1.39109  0
