# generated using pymatgen
data_CaP2H8(C2O5)2
_symmetry_space_group_name_H-M   'P 1'
_cell_length_a   5.52632371
_cell_length_b   7.29338157
_cell_length_c   13.12873662
_cell_angle_alpha   107.14147545
_cell_angle_beta   89.99930446
_cell_angle_gamma   89.99966029
_symmetry_Int_Tables_number   1
_chemical_formula_structural   CaP2H8(C2O5)2
_chemical_formula_sum   'Ca2 P4 H16 C8 O20'
_cell_volume   505.65604567
_cell_formula_units_Z   2
loop_
 _symmetry_equiv_pos_site_id
 _symmetry_equiv_pos_as_xyz
  1  'x, y, z'
loop_
 _atom_site_type_symbol
 _atom_site_label
 _atom_site_symmetry_multiplicity
 _atom_site_fract_x
 _atom_site_fract_y
 _atom_site_fract_z
 _atom_site_occupancy
 _atom_site_hle17_bader_spin_density
 _atom_site_hle17_ddec_charge
 _atom_site_hle17_ddec_spin_density
 _atom_site_hle17_ddec_sum_bond_order
 _atom_site_hle17_magmom
 _atom_site_hse06_10hf_bader_spin_density
 _atom_site_hse06_10hf_ddec_charge
 _atom_site_hse06_10hf_ddec_spin_density
 _atom_site_hse06_10hf_ddec_sum_bond_order
 _atom_site_hse06_10hf_magmom
 _atom_site_hse06_bader_spin_density
 _atom_site_hse06_ddec_charge
 _atom_site_hse06_ddec_spin_density
 _atom_site_hse06_ddec_sum_bond_order
 _atom_site_hse06_magmom
 _atom_site_pbe_bader_spin_density
 _atom_site_pbe_cm5_charge
 _atom_site_pbe_ddec_charge
 _atom_site_pbe_ddec_spin_density
 _atom_site_pbe_ddec_sum_bond_order
 _atom_site_pbe_magmom
Ca  Ca0  1  0.37446863  0.75000325  0.50000048  1  0  1.628805  0  1.019612  0  0  1.506572  0  1.349577  0  0  1.544944  0  1.31038  0  0  0.938511  1.477527  0  1.37752  0
Ca  Ca1  1  0.62553069  0.25000161  0.49999926  1  0  1.628818  0  1.019549  0  0  1.506593  0  1.349497  0  0  1.544953  0  1.310326  0  0  0.938504  1.477549  0  1.377439  0
P  P2  1  0.82428883  0.77224260  0.34299325  1  0  1.561215  0  4.763005  0  0  1.400872  0  5.266522  0  0  1.451262  0  5.226557  0  0  0.378754  1.3658  0  5.293545  0
P  P3  1  0.17570761  0.27225178  0.34299227  1  0  1.561144  0  4.762907  0  0  1.400817  0  5.266403  0  0  1.451184  0  5.226455  0  0  0.378764  1.365749  0  5.293425  0
P  P4  1  0.17571773  0.22776370  0.65700748  1  0  1.561067  0  4.762834  0  0  1.400773  0  5.26637  0  0  1.451104  0  5.22641  0  0  0.378741  1.365702  0  5.293395  0
P  P5  1  0.82428809  0.72775879  0.65700457  1  0  1.561302  0  4.762907  0  0  1.400971  0  5.266422  0  0  1.451305  0  5.226476  0  0  0.378843  1.365901  0  5.293448  0
H  H6  1  0.79493777  0.45617528  0.34231930  1  0  0.444004  0  0.861136  0  0  0.408613  0  0.931843  0  0  0.420723  0  0.91443  0  0  0.323996  0.400188  0  0.943928  0
H  H7  1  0.20506819  0.95617394  0.34231405  1  0  0.443936  0  0.861249  0  0  0.408545  0  0.931952  0  0  0.420651  0  0.914548  0  0  0.323954  0.400121  0  0.944035  0
H  H8  1  0.20505975  0.54383107  0.65768905  1  0  0.44397  0  0.86117  0  0  0.408578  0  0.931877  0  0  0.420676  0  0.914483  0  0  0.323973  0.400153  0  0.943962  0
H  H9  1  0.79492751  0.04382948  0.65768545  1  0  0.443963  0  0.861197  0  0  0.408616  0  0.931834  0  0  0.420711  0  0.914445  0  0  0.324003  0.400193  0  0.943916  0
H  H10  1  0.79336487  0.46268989  0.99779200  1  0  0.401756  0  0.882199  0  0  0.367391  0  0.966194  0  0  0.38023  0  0.952595  0  0  0.306425  0.358395  0  0.97568  0
H  H11  1  0.20661853  0.96269572  0.99778867  1  0  0.401631  0  0.882294  0  0  0.367297  0  0.966263  0  0  0.380139  0  0.952659  0  0  0.306396  0.358304  0  0.975744  0
H  H12  1  0.20663445  0.53731351  0.00220521  1  0  0.401795  0  0.882204  0  0  0.367445  0  0.966175  0  0  0.380282  0  0.952579  0  0  0.306465  0.358451  0  0.975658  0
H  H13  1  0.79335907  0.03729625  0.00221203  1  0  0.40192  0  0.881909  0  0  0.367446  0  0.966034  0  0  0.380287  0  0.952425  0  0  0.306439  0.358452  0  0.975517  0
H  H14  1  0.55543192  0.81413843  0.21042162  1  0  0.198512  0  0.906812  0  0  0.207854  0  0.957648  0  0  0.212448  0  0.95508  0  0  0.130532  0.204617  0  0.959584  0
H  H15  1  0.44457346  0.31416977  0.21041828  1  0  0.198463  0  0.906719  0  0  0.207816  0  0.957561  0  0  0.212408  0  0.954992  0  0  0.130548  0.204582  0  0.95949  0
H  H16  1  0.44458730  0.18584636  0.78957792  1  0  0.198503  0  0.906776  0  0  0.207899  0  0.957602  0  0  0.212466  0  0.955031  0  0  0.130547  0.204663  0  0.959535  0
H  H17  1  0.55542587  0.68585083  0.78957943  1  0  0.198565  0  0.906759  0  0  0.207904  0  0.957627  0  0  0.212483  0  0.955058  0  0  0.130562  0.204666  0  0.959562  0
H  H18  1  0.81360462  0.96464601  0.22370143  1  0  0.183005  0  0.943356  0  0  0.18771  0  1.006021  0  0  0.191834  0  1.004503  0  0  0.123311  0.184786  0  1.007228  0
H  H19  1  0.18636851  0.46465226  0.22370374  1  0  0.182998  0  0.943251  0  0  0.187688  0  1.005951  0  0  0.191806  0  1.004437  0  0  0.123298  0.184762  0  1.007162  0
H  H20  1  0.18641823  0.03534737  0.77629568  1  0  0.183055  0  0.943268  0  0  0.187792  0  1.005917  0  0  0.191891  0  1.004389  0  0  0.123311  0.184863  0  1.007135  0
H  H21  1  0.81360910  0.53535260  0.77629675  1  0  0.18301  0  0.943286  0  0  0.187727  0  1.005955  0  0  0.191837  0  1.004435  0  0  0.123308  0.184802  0  1.007164  0
C  C22  1  0.86638725  0.67726572  0.12262038  1  0  0.767297  0  3.751402  0  0  0.709669  0  4.064623  0  0  0.744151  0  4.055065  0  0  0.242932  0.686303  0  4.070556  0
C  C23  1  0.13361082  0.17727097  0.12262279  1  0  0.767531  0  3.750746  0  0  0.710009  0  4.063829  0  0  0.744489  0  4.054274  0  0  0.243013  0.686643  0  4.069765  0
C  C24  1  0.13362655  0.32272765  0.87737750  1  0  0.767484  0  3.751092  0  0  0.709923  0  4.064273  0  0  0.744372  0  4.054713  0  0  0.242934  0.686556  0  4.070211  0
C  C25  1  0.86639755  0.82271952  0.87737233  1  0  0.767912  0  3.750603  0  0  0.710091  0  4.064039  0  0  0.744558  0  4.054477  0  0  0.243074  0.686725  0  4.069976  0
C  C26  1  0.75310752  0.81853574  0.21781505  1  0  -0.619384  0  3.607652  0  0  -0.631646  0  3.845895  0  0  -0.64677  0  3.845436  0  0  -0.163022  -0.621424  0  3.846497  0
C  C27  1  0.24689038  0.31853717  0.21781323  1  0  -0.619291  0  3.607483  0  0  -0.631618  0  3.845805  0  0  -0.646685  0  3.845247  0  0  -0.163006  -0.621399  0  3.846411  0
C  C28  1  0.24690809  0.18146486  0.78219008  1  0  -0.619452  0  3.607444  0  0  -0.631916  0  3.845902  0  0  -0.646901  0  3.845298  0  0  -0.163099  -0.621693  0  3.846508  0
C  C29  1  0.75310532  0.68146626  0.78218704  1  0  -0.619595  0  3.607526  0  0  -0.631925  0  3.845954  0  0  -0.646981  0  3.845423  0  0  -0.163114  -0.621703  0  3.846561  0
O  O30  1  0.70449224  0.56969849  0.32914814  1  0  -0.782077  0  2.06283  0  0  -0.704178  0  2.298565  0  0  -0.727181  0  2.274048  0  0  -0.365528  -0.688109  0  2.315296  0
O  O31  1  0.29552420  0.06969813  0.32915035  1  0  -0.782043  0  2.062642  0  0  -0.704118  0  2.298344  0  0  -0.727098  0  2.27382  0  0  -0.365536  -0.688056  0  2.31508  0
O  O32  1  0.29551251  0.43031356  0.67085580  1  0  -0.781973  0  2.06293  0  0  -0.704031  0  2.298615  0  0  -0.726984  0  2.274089  0  0  -0.365467  -0.687966  0  2.31535  0
O  O33  1  0.70447694  0.93031391  0.67085131  1  0  -0.782054  0  2.062716  0  0  -0.704123  0  2.298337  0  0  -0.727054  0  2.273798  0  0  -0.365576  -0.688052  0  2.315058  0
O  O34  1  0.68472952  0.91511401  0.43145194  1  0  -0.969851  0  1.978571  0  0  -0.890347  0  2.262342  0  0  -0.918358  0  2.242586  0  0  -0.45518  -0.86993  0  2.275189  0
O  O35  1  0.31527056  0.41512346  0.43144725  1  0  -0.969768  0  1.978498  0  0  -0.890305  0  2.262314  0  0  -0.918313  0  2.24256  0  0  -0.455187  -0.869885  0  2.275161  0
O  O36  1  0.31527343  0.08488656  0.56854862  1  0  -0.969778  0  1.978525  0  0  -0.890263  0  2.262274  0  0  -0.918278  0  2.242544  0  0  -0.455148  -0.869846  0  2.275122  0
O  O37  1  0.68473781  0.58488280  0.56854814  1  0  -0.969836  0  1.978571  0  0  -0.890337  0  2.262344  0  0  -0.918348  0  2.242607  0  0  -0.455182  -0.869921  0  2.275194  0
O  O38  1  0.09800466  0.77209599  0.36140826  1  0  -0.897537  0  1.925667  0  0  -0.810852  0  2.177874  0  0  -0.837741  0  2.158056  0  0  -0.390221  -0.79168  0  2.191109  0
O  O39  1  0.90200392  0.27209214  0.36141135  1  0  -0.897493  0  1.925686  0  0  -0.810785  0  2.177866  0  0  -0.837675  0  2.158057  0  0  -0.390202  -0.791615  0  2.191103  0
O  O40  1  0.90199828  0.22791181  0.63860033  1  0  -0.897468  0  1.925435  0  0  -0.810833  0  2.177652  0  0  -0.837734  0  2.157871  0  0  -0.3902  -0.791662  0  2.190891  0
O  O41  1  0.09799721  0.72792278  0.63859305  1  0  -0.897546  0  1.925651  0  0  -0.810854  0  2.177853  0  0  -0.837745  0  2.158057  0  0  -0.390221  -0.791685  0  2.191091  0
O  O42  1  0.08793691  0.67754708  0.10470324  1  0  -0.582269  0  1.958821  0  0  -0.532277  0  2.177999  0  0  -0.554724  0  2.16888  0  0  -0.286896  -0.516994  0  2.183984  0
O  O43  1  0.91203272  0.17754178  0.10471290  1  0  -0.582473  0  1.95829  0  0  -0.532523  0  2.177508  0  0  -0.554982  0  2.168389  0  0  -0.286914  -0.517223  0  2.183461  0
O  O44  1  0.91206060  0.32242912  0.89529644  1  0  -0.582347  0  1.95841  0  0  -0.5324  0  2.177635  0  0  -0.554853  0  2.16853  0  0  -0.286859  -0.517114  0  2.183623  0
O  O45  1  0.08795394  0.82243158  0.89528936  1  0  -0.582335  0  1.958431  0  0  -0.53244  0  2.177846  0  0  -0.554877  0  2.168698  0  0  -0.286904  -0.517129  0  2.183773  0
O  O46  1  0.71026126  0.55702786  0.06249695  1  0  -0.519146  0  2.081179  0  0  -0.466157  0  2.298805  0  0  -0.488421  0  2.284223  0  0  -0.314404  -0.450786  0  2.308383  0
O  O47  1  0.28973219  0.05703748  0.06248632  1  0  -0.519042  0  2.081026  0  0  -0.466144  0  2.298629  0  0  -0.488415  0  2.284049  0  0  -0.314378  -0.450774  0  2.308196  0
O  O48  1  0.28973082  0.44296981  0.93750086  1  0  -0.519178  0  2.081194  0  0  -0.466208  0  2.298794  0  0  -0.488474  0  2.28423  0  0  -0.314395  -0.450839  0  2.308371  0
O  O49  1  0.71025990  0.94295587  0.93750698  1  0  -0.519722  0  2.080836  0  0  -0.466331  0  2.298299  0  0  -0.488601  0  2.283723  0  0  -0.314499  -0.450967  0  2.307877  0
