# generated using pymatgen
data_P4H18Pb5(C7O5)4
_symmetry_space_group_name_H-M   'P 1'
_cell_length_a   9.91763830
_cell_length_b   10.29334350
_cell_length_c   9.83319176
_cell_angle_alpha   91.57256954
_cell_angle_beta   118.46623754
_cell_angle_gamma   92.63909099
_symmetry_Int_Tables_number   1
_chemical_formula_structural   P4H18Pb5(C7O5)4
_chemical_formula_sum   'P4 H18 Pb5 C28 O20'
_cell_volume   880.13192628
_cell_formula_units_Z   1
loop_
 _symmetry_equiv_pos_site_id
 _symmetry_equiv_pos_as_xyz
  1  'x, y, z'
loop_
 _atom_site_type_symbol
 _atom_site_label
 _atom_site_symmetry_multiplicity
 _atom_site_fract_x
 _atom_site_fract_y
 _atom_site_fract_z
 _atom_site_occupancy
 _atom_site_hle17_bader_spin_density
 _atom_site_hle17_ddec_charge
 _atom_site_hle17_ddec_spin_density
 _atom_site_hle17_ddec_sum_bond_order
 _atom_site_hle17_magmom
 _atom_site_hse06_10hf_bader_spin_density
 _atom_site_hse06_10hf_ddec_charge
 _atom_site_hse06_10hf_ddec_spin_density
 _atom_site_hse06_10hf_ddec_sum_bond_order
 _atom_site_hse06_10hf_magmom
 _atom_site_hse06_bader_spin_density
 _atom_site_hse06_ddec_charge
 _atom_site_hse06_ddec_spin_density
 _atom_site_hse06_ddec_sum_bond_order
 _atom_site_hse06_magmom
 _atom_site_pbe_bader_spin_density
 _atom_site_pbe_cm5_charge
 _atom_site_pbe_ddec_charge
 _atom_site_pbe_ddec_spin_density
 _atom_site_pbe_ddec_sum_bond_order
 _atom_site_pbe_magmom
P  P0  1  0.68685348  0.43944144  0.87425488  1  0  1.438778  0  4.988092  0  0  1.270551  0  5.482744  0  0  1.323622  0  5.446834  0  0  0.342772  1.233218  0  5.508864  0
P  P1  1  0.27867535  0.52920198  0.07741828  1  0  1.429736  0  4.980348  0  0  1.262126  0  5.472146  0  0  1.314356  0  5.437409  0  0  0.341318  1.225147  0  5.496769  0
P  P2  1  0.81375219  0.35428744  0.45496381  1  0  1.457606  0  4.90983  0  0  1.289101  0  5.402512  0  0  1.341452  0  5.366308  0  0  0.350007  1.252644  0  5.425753  0
P  P3  1  0.09714962  0.66590836  0.50603207  1  0  1.437305  0  4.962004  0  0  1.270819  0  5.461294  0  0  1.323494  0  5.423956  0  0  0.348129  1.234936  0  5.486027  0
H  H4  1  0.91649980  0.85961232  0.02109098  1  0  0.371587  0  0.873062  0  0  0.346469  0  0.951556  0  0  0.355019  0  0.943008  0  0  0.316194  0.341524  0  0.956094  0
H  H5  1  0.55606897  0.27793695  0.03036720  1  0  0.094731  0  0.957387  0  0  0.102849  0  1.025234  0  0  0.106108  0  1.023193  0  0  0.106063  0.099997  0  1.027763  0
H  H6  1  0.57450907  0.04304197  0.08994868  1  0  0.089747  0  0.993194  0  0  0.096292  0  1.064347  0  0  0.098536  0  1.064273  0  0  0.100309  0.094931  0  1.063708  0
H  H7  1  0.84112517  0.99211152  0.85465045  1  0  0.078783  0  0.986465  0  0  0.087658  0  1.056199  0  0  0.090289  0  1.054775  0  0  0.099349  0.085781  0  1.057391  0
H  H8  1  0.82024415  0.22416607  0.79212347  1  0  0.114048  0  0.947127  0  0  0.121765  0  1.008945  0  0  0.124765  0  1.007981  0  0  0.11082  0.119658  0  1.009447  0
H  H9  1  0.17202114  0.71756557  0.23538848  1  0  0.118438  0  0.973833  0  0  0.123806  0  1.039078  0  0  0.127546  0  1.037297  0  0  0.107968  0.121025  0  1.040484  0
H  H10  1  0.13809684  0.95619673  0.21034008  1  0  0.097099  0  0.983818  0  0  0.1031  0  1.051912  0  0  0.105433  0  1.052179  0  0  0.102022  0.101372  0  1.052126  0
H  H11  1  0.34176881  0.72453300  0.90442118  1  0  0.12271  0  0.949781  0  0  0.128546  0  1.011436  0  0  0.132441  0  1.008719  0  0  0.114054  0.125671  0  1.013384  0
H  H12  1  0.29534547  0.95231917  0.86767982  1  0  0.082504  0  0.967052  0  0  0.095993  0  1.026927  0  0  0.098313  0  1.026651  0  0  0.104447  0.094335  0  1.027539  0
H  H13  1  0.53379252  0.18597531  0.27501034  1  0  0.094104  0  0.932716  0  0  0.107682  0  0.988737  0  0  0.110455  0  0.987141  0  0  0.105807  0.105341  0  0.990349  0
H  H14  1  0.47358824  0.94797438  0.28193613  1  0  0.09092  0  0.988261  0  0  0.101056  0  1.052527  0  0  0.10271  0  1.054019  0  0  0.09632  0.099589  0  1.052575  0
H  H15  1  0.91602772  0.92139278  0.67820291  1  0  0.078153  0  0.963119  0  0  0.086565  0  1.03367  0  0  0.089309  0  1.032748  0  0  0.096129  0.084208  0  1.035187  0
H  H16  1  0.98176813  0.15603905  0.66526557  1  0  0.084289  0  0.96561  0  0  0.093146  0  1.032231  0  0  0.096172  0  1.030969  0  0  0.098857  0.090582  0  1.033766  0
H  H17  1  0.94528094  0.90371522  0.39941469  1  0  0.096805  0  0.964443  0  0  0.106721  0  1.024898  0  0  0.109241  0  1.025045  0  0  0.101275  0.105106  0  1.024328  0
H  H18  1  0.03767880  0.13282733  0.40282590  1  0  0.093698  0  0.966788  0  0  0.101288  0  1.034883  0  0  0.104484  0  1.033179  0  0  0.102278  0.099161  0  1.03518  0
H  H19  1  0.50458790  0.02194820  0.62387754  1  0  0.102229  0  0.966614  0  0  0.110301  0  1.031891  0  0  0.112589  0  1.032457  0  0  0.101169  0.108622  0  1.03144  0
H  H20  1  0.41414959  0.79458689  0.63326199  1  0  0.099183  0  0.939649  0  0  0.110361  0  0.999535  0  0  0.113486  0  0.99832  0  0  0.105853  0.107996  0  1.000454  0
H  H21  1  0.30272611  0.12110191  0.91394914  1  0  0.370943  0  0.870711  0  0  0.3487  0  0.942786  0  0  0.357132  0  0.934369  0  0  0.321046  0.342913  0  0.948518  0
Pb  Pb22  1  0.49664748  0.50320350  0.50536810  1  0  1.402632  0  1.460339  0  0  1.223256  0  1.857447  0  0  1.280855  0  1.813128  0  0  0.656707  1.182632  0  1.887368  0
Pb  Pb23  1  0.03928137  0.39665928  0.22743154  1  0  1.471208  0  1.474048  0  0  1.306514  0  1.877011  0  0  1.355301  0  1.836041  0  0  0.685795  1.27561  0  1.902559  0
Pb  Pb24  1  0.69082860  0.58912678  0.21717096  1  0  1.482139  0  1.38512  0  0  1.319255  0  1.772276  0  0  1.374303  0  1.727644  0  0  0.688996  1.278403  0  1.805029  0
Pb  Pb25  1  0.93573741  0.59208908  0.73610080  1  0  1.370027  0  1.595699  0  0  1.207511  0  1.989276  0  0  1.254569  0  1.952443  0  0  0.656027  1.172324  0  2.016848  0
Pb  Pb26  1  0.26511753  0.41022240  0.76139140  1  0  1.416705  0  1.526652  0  0  1.245821  0  1.936642  0  0  1.295588  0  1.895252  0  0  0.66477  1.215832  0  1.959897  0
C  C27  1  0.68671352  0.26604712  0.90582849  1  0  -0.219684  0  3.749558  0  0  -0.179116  0  3.98721  0  0  -0.186544  0  4.008341  0  0  -0.013282  -0.175008  0  3.975228  0
C  C28  1  0.61530216  0.21448683  0.98836851  1  0  -0.067067  0  3.771114  0  0  -0.089447  0  4.025027  0  0  -0.091646  0  4.047377  0  0  -0.083449  -0.087697  0  4.010886  0
C  C29  1  0.62553208  0.08415176  0.02285533  1  0  -0.068817  0  3.740243  0  0  -0.093024  0  3.988506  0  0  -0.093449  0  4.010408  0  0  -0.085756  -0.092779  0  3.972844  0
C  C30  1  0.71060620  0.00369931  0.97917753  1  0  -0.099609  0  3.809986  0  0  -0.071361  0  4.033033  0  0  -0.079874  0  4.056632  0  0  -0.022389  -0.065198  0  4.016729  0
C  C31  1  0.78060861  0.05449813  0.89586741  1  0  -0.06961  0  3.741435  0  0  -0.092993  0  3.988446  0  0  -0.09285  0  4.008677  0  0  -0.081739  -0.093696  0  3.975567  0
C  C32  1  0.76764175  0.18452833  0.85851649  1  0  -0.028322  0  3.712275  0  0  -0.050961  0  3.961329  0  0  -0.051976  0  3.981951  0  0  -0.071666  -0.050669  0  3.948787  0
C  C33  1  0.72413519  0.86754626  0.02646714  1  0  0.660428  0  3.790146  0  0  0.613009  0  4.077114  0  0  0.647019  0  4.067484  0  0  0.244421  0.589142  0  4.084653  0
C  C34  1  0.25972593  0.70469190  0.07172431  1  0  -0.219805  0  3.7454  0  0  -0.179527  0  3.984051  0  0  -0.187136  0  4.004665  0  0  -0.010734  -0.174135  0  3.970282  0
C  C35  1  0.19934254  0.77013518  0.15573613  1  0  -0.032105  0  3.692629  0  0  -0.055669  0  3.940935  0  0  -0.056458  0  3.960362  0  0  -0.074239  -0.055488  0  3.928093  0
C  C36  1  0.17712644  0.90269206  0.13969953  1  0  -0.096413  0  3.749559  0  0  -0.113477  0  3.993337  0  0  -0.11404  0  4.013217  0  0  -0.087552  -0.112989  0  3.980254  0
C  C37  1  0.21183267  0.97160168  0.03745257  1  0  -0.119524  0  3.840302  0  0  -0.095676  0  4.070893  0  0  -0.103676  0  4.094446  0  0  -0.029299  -0.091005  0  4.056808  0
C  C38  1  0.26903353  0.90504080  0.95138205  1  0  -0.084634  0  3.749976  0  0  -0.108201  0  4.002033  0  0  -0.109315  0  4.023154  0  0  -0.084193  -0.107318  0  3.98787  0
C  C39  1  0.29491026  0.77354464  0.97025723  1  0  -0.036403  0  3.740104  0  0  -0.059775  0  3.994205  0  0  -0.060489  0  4.014357  0  0  -0.071001  -0.058669  0  3.978655  0
C  C40  1  0.19452683  0.11412603  0.03276870  1  0  0.661406  0  3.763844  0  0  0.615669  0  4.054255  0  0  0.64837  0  4.044778  0  0  0.239236  0.593621  0  4.060446  0
C  C41  1  0.76320241  0.18563364  0.46743329  1  0  -0.2125  0  3.718996  0  0  -0.173382  0  3.961268  0  0  -0.181261  0  3.981028  0  0  -0.01768  -0.168038  0  3.946793  0
C  C42  1  0.61914527  0.12686627  0.36046319  1  0  -0.018384  0  3.729316  0  0  -0.042432  0  3.980289  0  0  -0.041396  0  3.998515  0  0  -0.075147  -0.04164  0  3.966238  0
C  C43  1  0.58425940  0.99506016  0.36528014  1  0  -0.074156  0  3.709166  0  0  -0.097195  0  3.958552  0  0  -0.097985  0  3.977775  0  0  -0.084748  -0.096372  0  3.944686  0
C  C44  1  0.68984197  0.92088121  0.48108003  1  0  -0.045407  0  3.729636  0  0  -0.021726  0  3.961076  0  0  -0.026422  0  3.980203  0  0  -0.012939  -0.018513  0  3.94682  0
C  C45  1  0.83274654  0.97977169  0.58965296  1  0  -0.082073  0  3.752966  0  0  -0.102856  0  4.000957  0  0  -0.104261  0  4.021601  0  0  -0.087433  -0.101068  0  3.986158  0
C  C46  1  0.86987069  0.11052288  0.58157441  1  0  -0.049833  0  3.764905  0  0  -0.068535  0  4.007073  0  0  -0.069765  0  4.029114  0  0  -0.082913  -0.067161  0  3.991854  0
C  C47  1  0.64736283  0.78106250  0.49058247  1  0  0.659131  0  3.927362  0  0  0.605543  0  4.221398  0  0  0.640318  0  4.213895  0  0  0.211924  0.581333  0  4.225624  0
C  C48  1  0.17216360  0.83276647  0.51396454  1  0  -0.205641  0  3.714036  0  0  -0.164287  0  3.952087  0  0  -0.171845  0  3.973286  0  0  -0.019792  -0.160252  0  3.938429  0
C  C49  1  0.06789339  0.92951541  0.44870711  1  0  -0.059353  0  3.762364  0  0  -0.077675  0  4.002136  0  0  -0.079885  0  4.024771  0  0  -0.087819  -0.075725  0  3.987422  0
C  C50  1  0.11974475  0.05801313  0.45020603  1  0  -0.086213  0  3.751514  0  0  -0.106338  0  3.998558  0  0  -0.106808  0  4.0187  0  0  -0.089588  -0.106568  0  3.986029  0
C  C51  1  0.27730911  0.09190556  0.51198169  1  0  -0.077322  0  3.769519  0  0  -0.053113  0  4.002494  0  0  -0.06024  0  4.024934  0  0  -0.023351  -0.050249  0  3.990046  0
C  C52  1  0.38231865  0.99527090  0.57624566  1  0  -0.070238  0  3.712366  0  0  -0.092146  0  3.960739  0  0  -0.092882  0  3.982929  0  0  -0.085303  -0.092643  0  3.948378  0
C  C53  1  0.33052349  0.86755675  0.57951353  1  0  -0.047355  0  3.718808  0  0  -0.067178  0  3.963563  0  0  -0.069157  0  3.985278  0  0  -0.081795  -0.066506  0  3.950366  0
C  C54  1  0.33115522  0.22947027  0.50675392  1  0  0.63284  0  3.936558  0  0  0.580834  0  4.226521  0  0  0.615017  0  4.220789  0  0  0.212232  0.557238  0  4.2293  0
O  O55  1  0.79706857  0.50557952  0.03455007  1  0  -0.909849  0  1.998105  0  0  -0.809355  0  2.259347  0  0  -0.843746  0  2.244293  0  0  -0.344073  -0.784566  0  2.270306  0
O  O56  1  0.74569514  0.45675709  0.75539835  1  0  -0.869706  0  2.04796  0  0  -0.760498  0  2.306176  0  0  -0.792234  0  2.288802  0  0  -0.337646  -0.739183  0  2.317842  0
O  O57  1  0.52149218  0.48151345  0.80566466  1  0  -0.904037  0  1.997288  0  0  -0.805794  0  2.260849  0  0  -0.838818  0  2.245269  0  0  -0.353117  -0.783542  0  2.270795  0
O  O58  1  0.63313131  0.81240319  0.06179025  1  0  -0.55184  0  1.979342  0  0  -0.499029  0  2.205983  0  0  -0.523855  0  2.199572  0  0  -0.252869  -0.482704  0  2.209918  0
O  O59  1  0.84232396  0.80255405  0.03473715  1  0  -0.509387  0  2.1095  0  0  -0.46386  0  2.325112  0  0  -0.483316  0  2.312002  0  0  -0.314343  -0.451003  0  2.3343  0
O  O60  1  0.13035715  0.47121499  0.93433930  1  0  -0.889411  0  2.010001  0  0  -0.78756  0  2.265625  0  0  -0.8205  0  2.251339  0  0  -0.342808  -0.762797  0  2.275238  0
O  O61  1  0.41701233  0.50131184  0.05199269  1  0  -0.888009  0  1.963415  0  0  -0.787522  0  2.225682  0  0  -0.819677  0  2.208641  0  0  -0.343701  -0.765115  0  2.237082  0
O  O62  1  0.28896412  0.48233031  0.22812423  1  0  -0.882243  0  2.0384  0  0  -0.779196  0  2.305548  0  0  -0.811089  0  2.287718  0  0  -0.337805  -0.757597  0  2.31833  0
O  O63  1  0.25105562  0.18087833  0.95020465  1  0  -0.554442  0  2.105678  0  0  -0.505409  0  2.32528  0  0  -0.52586  0  2.312232  0  0  -0.322859  -0.491306  0  2.333978  0
O  O64  1  0.13574178  0.17293095  0.09823793  1  0  -0.529827  0  1.964728  0  0  -0.490454  0  2.192986  0  0  -0.511872  0  2.188318  0  0  -0.254258  -0.47482  0  2.194792  0
O  O65  1  0.95286143  0.39761024  0.61361903  1  0  -0.874069  0  2.031623  0  0  -0.768609  0  2.293779  0  0  -0.798698  0  2.275978  0  0  -0.338979  -0.747348  0  2.302976  0
O  O66  1  0.67480395  0.43757849  0.41843805  1  0  -0.89796  0  2.001966  0  0  -0.787506  0  2.261487  0  0  -0.820684  0  2.243671  0  0  -0.337546  -0.763345  0  2.271393  0
O  O67  1  0.84842786  0.36306391  0.31867549  1  0  -0.922939  0  1.998903  0  0  -0.823873  0  2.265752  0  0  -0.856507  0  2.250053  0  0  -0.354692  -0.800604  0  2.275853  0
O  O68  1  0.69185935  0.73815329  0.62492017  1  0  -0.711909  0  1.994745  0  0  -0.644366  0  2.230272  0  0  -0.673659  0  2.2233  0  0  -0.31193  -0.622423  0  2.23366  0
O  O69  1  0.56617274  0.71202040  0.36477190  1  0  -0.691534  0  2.012204  0  0  -0.620363  0  2.252449  0  0  -0.651708  0  2.247579  0  0  -0.29754  -0.597711  0  2.255493  0
O  O70  1  0.11435562  0.59210725  0.37765068  1  0  -0.873423  0  2.005452  0  0  -0.776582  0  2.274493  0  0  -0.806573  0  2.255846  0  0  -0.347498  -0.756823  0  2.286627  0
O  O71  1  0.19752888  0.61410146  0.66887623  1  0  -0.881233  0  2.010463  0  0  -0.775004  0  2.269805  0  0  -0.806208  0  2.252514  0  0  -0.34573  -0.75501  0  2.281814  0
O  O72  1  0.92937403  0.67307426  0.47277474  1  0  -0.926807  0  2.010938  0  0  -0.830118  0  2.269405  0  0  -0.862424  0  2.254786  0  0  -0.353172  -0.805992  0  2.279746  0
O  O73  1  0.23734737  0.31970770  0.48928750  1  0  -0.780089  0  2.107037  0  0  -0.694149  0  2.356679  0  0  -0.725993  0  2.349118  0  0  -0.306961  -0.671609  0  2.358497  0
O  O74  1  0.46297947  0.25318161  0.52094336  1  0  -0.580729  0  1.97526  0  0  -0.516975  0  2.204711  0  0  -0.545505  0  2.201134  0  0  -0.270962  -0.497011  0  2.20592  0
