# generated using pymatgen
data_AlH33(C8O)6
_symmetry_space_group_name_H-M   'P 1'
_cell_length_a   3.99236959
_cell_length_b   23.56440056
_cell_length_c   23.49809800
_cell_angle_alpha   60.10107766
_cell_angle_beta   87.98967460
_cell_angle_gamma   87.90858180
_symmetry_Int_Tables_number   1
_chemical_formula_structural   AlH33(C8O)6
_chemical_formula_sum   'Al1 H33 C48 O6'
_cell_volume   1914.78487497
_cell_formula_units_Z   1
loop_
 _symmetry_equiv_pos_site_id
 _symmetry_equiv_pos_as_xyz
  1  'x, y, z'
loop_
 _atom_site_type_symbol
 _atom_site_label
 _atom_site_symmetry_multiplicity
 _atom_site_fract_x
 _atom_site_fract_y
 _atom_site_fract_z
 _atom_site_occupancy
 _atom_site_pbe_bader_charge
 _atom_site_pbe_bader_spin_density
 _atom_site_pbe_cm5_charge
 _atom_site_pbe_ddec_charge
 _atom_site_pbe_ddec_spin_density
 _atom_site_pbe_ddec_sum_bond_order
 _atom_site_pbe_magmom
Al  Al0  1  0.99697036  0.50014290  0.49926381  1  2.504806  0  0.427456  1.599579  0  2.565344  0
H  H1  1  0.50611415  0.32112402  0.67764893  1  0.055778  0  0.106732  0.107977  0  0.984805  0
H  H2  1  0.50550694  0.25754196  0.79815774  1  0.048592  0  0.100706  0.099082  0  1.027123  0
H  H3  1  0.82405182  0.16515994  0.01653442  1  0.037496  0  0.096385  0.098377  0  1.016561  0
H  H4  1  0.43964229  0.68477163  0.31490578  1  0.075636  0  0.105837  0.10626  0  0.985833  0
H  H5  1  0.49765290  0.80472754  0.25690087  1  0.090162  0  0.097982  0.0935  0  1.014608  0
H  H6  1  0.24545880  0.89329430  0.22956079  1  0.062936  0  0.097401  0.094129  0  1.017468  0
H  H7  1  0.23360324  0.01278268  0.16648554  1  0.069694  0  0.097238  0.09834  0  1.008117  0
H  H8  1  0.50237753  0.10617450  0.10456834  1  0.052689  0  0.096337  0.092734  0  1.032429  0
H  H9  1  0.53240905  0.67795734  0.49989371  1  0.081618  0  0.106707  0.108442  0  0.984775  0
H  H10  1  0.52704257  0.79793543  0.44350542  1  0.064405  0  0.100494  0.098976  0  1.031713  0
H  H11  1  0.81173351  0.01631523  0.31551682  1  0.044503  0  0.096754  0.097973  0  1.019685  0
H  H12  1  0.51421072  0.31579653  0.49970831  1  0.0299  0  0.106013  0.106777  0  0.985345  0
H  H13  1  0.57265121  0.25721547  0.43700721  1  0.035658  0  0.097874  0.093336  0  1.012725  0
H  H14  1  0.27634588  0.23202494  0.37862038  1  0.058123  0  0.097101  0.094176  0  1.016602  0
H  H15  1  0.24878689  0.16861374  0.32218695  1  0.050514  0  0.097681  0.098624  0  1.007572  0
H  H16  1  0.52674937  0.10457237  0.28826421  1  0.015737  0  0.096421  0.0931  0  1.032998  0
H  H17  1  0.55766333  0.50001941  0.31948425  1  0.025366  0  0.106977  0.107963  0  0.984893  0
H  H18  1  0.55928028  0.44238235  0.25643285  1  0.02508  0  0.100235  0.098673  0  1.026936  0
H  H19  1  0.85714508  0.31142765  0.16459328  1  0.042905  0  0.096133  0.097111  0  1.019745  0
H  H20  1  0.46796530  0.50010161  0.68473957  1  0.071668  0  0.105756  0.106057  0  0.985387  0
H  H21  1  0.51697436  0.43662090  0.80546930  1  0.052197  0  0.097948  0.093714  0  1.012664  0
H  H22  1  0.21893872  0.37673419  0.89355224  1  0.050626  0  0.097071  0.093461  0  1.015616  0
H  H23  1  0.20845106  0.31984420  0.01396862  1  0.052822  0  0.09675  0.097608  0  1.008166  0
H  H24  1  0.52583734  0.28749258  0.10637523  1  0.086253  0  0.096059  0.092176  0  1.031955  0
H  H25  1  0.13488475  0.38825315  0.17622574  1  0.042656  0  0.087616  0.124342  0  1.016426  0
H  H26  1  0.05481327  0.40570872  0.24091547  1  0.044619  0  0.088517  0.121696  0  1.054397  0
H  H27  1  0.77677710  0.43588889  0.17434294  1  0.001455  0  0.086689  0.119045  0  0.998755  0
H  H28  1  0.09621332  0.17903517  0.92332100  1  0.043542  0  0.087693  0.123953  0  1.016262  0
H  H29  1  0.00006493  0.24281121  0.84273551  1  0.048178  0  0.088198  0.122013  0  1.059272  0
H  H30  1  0.73526530  0.17463066  0.88395490  1  0.025692  0  0.086802  0.119249  0  0.999532  0
H  H31  1  0.06563269  0.92606666  0.39404071  1  0.023237  0  0.087841  0.124334  0  1.016225  0
H  H32  1  0.00048486  0.84518143  0.40994614  1  0.064121  0  0.088195  0.121943  0  1.05907  0
H  H33  1  0.70583731  0.88320570  0.43926079  1  0.013513  0  0.087332  0.120058  0  0.999021  0
C  C34  1  0.48685869  0.45146119  0.60017273  1  1.538544  0  0.280287  0.664058  0  4.052369  0
C  C35  1  0.51847186  0.44821399  0.45027980  1  1.53893  0  0.279713  0.662583  0  4.055337  0
C  C36  1  0.48622528  0.60062979  0.44742132  1  1.590173  0  0.278749  0.659965  0  4.057642  0
C  C37  1  0.50399873  0.34626110  0.70602712  1  0.049233  0  -0.08405  -0.094878  0  3.99296  0
C  C38  1  0.50960397  0.31060954  0.77416419  1  -0.050745  0  -0.090633  -0.130326  0  3.993532  0
C  C39  1  0.69329465  0.24250382  0.92098676  1  -0.074264  0  -0.005862  0.136234  0  3.928877  0
C  C40  1  0.68240730  0.21114716  0.98952608  1  0.032599  0  -0.095628  -0.1947  0  3.953876  0
C  C41  1  0.46644341  0.70997336  0.34277249  1  0.003216  0  -0.081748  -0.090054  0  3.985245  0
C  C42  1  0.49427510  0.77775394  0.31043722  1  -0.068245  0  -0.090626  -0.132246  0  3.985824  0
C  C43  1  0.37861822  0.92001813  0.24824248  1  -0.16531  0  -0.092444  -0.122452  0  4.018228  0
C  C44  1  0.37094835  0.98793737  0.21221477  1  0.031067  0  -0.096379  -0.137481  0  4.015634  0
C  C45  1  0.48711324  0.41468246  0.67328951  1  -0.029333  0  -0.006936  -0.024332  0  3.960923  0
C  C46  1  0.51690111  0.34163118  0.81209527  1  0.059763  0  -0.003826  0.079508  0  3.974914  0
C  C47  1  0.52669818  0.30416147  0.88475287  1  -0.047695  0  -0.008029  0.002819  0  3.92943  0
C  C48  1  0.51394722  0.23732364  0.02478405  1  -0.090977  0  -0.009428  0.073161  0  4.023955  0
C  C49  1  0.51177377  0.20101998  0.09728619  1  0.021128  0  -0.006735  0.08176  0  4.019936  0
C  C50  1  0.50812026  0.13236327  0.13186210  1  0.025257  0  -0.089325  -0.176433  0  3.928335  0
C  C51  1  0.51866113  0.70622742  0.44653024  1  -0.095519  0  -0.082981  -0.092449  0  3.991913  0
C  C52  1  0.52371268  0.77415906  0.41412682  1  0.025324  0  -0.091943  -0.131217  0  3.989536  0
C  C53  1  0.68944468  0.92105327  0.33424437  1  -0.035973  0  -0.005549  0.137291  0  3.924185  0
C  C54  1  0.67813082  0.98937976  0.29706617  1  -0.000989  0  -0.095207  -0.193491  0  3.952972  0
C  C55  1  0.53085822  0.34327758  0.44621008  1  -0.076889  0  -0.082744  -0.092475  0  3.99049  0
C  C56  1  0.55948149  0.31061603  0.41057803  1  0.071888  0  -0.090297  -0.13188  0  3.989463  0
C  C57  1  0.41264611  0.24896529  0.33210317  1  -0.080575  0  -0.092657  -0.124053  0  4.021445  0
C  C58  1  0.39666904  0.21285293  0.30032801  1  0.00347  0  -0.097375  -0.138054  0  4.019253  0
C  C59  1  0.48723641  0.67341839  0.41125508  1  -0.137  0  -0.007813  -0.026524  0  3.96407  0
C  C60  1  0.52113924  0.81198298  0.34507377  1  0.023516  0  -0.002579  0.079  0  3.968616  0
C  C61  1  0.53404002  0.88447107  0.30974021  1  0.030944  0  -0.008363  0.001882  0  3.923438  0
C  C62  1  0.51966498  0.02446550  0.23652783  1  -0.10401  0  -0.009458  0.072565  0  4.021241  0
C  C63  1  0.51422597  0.09678718  0.20061126  1  0.032871  0  -0.007414  0.082179  0  4.014992  0
C  C64  1  0.52241921  0.13144524  0.23476054  1  -0.010624  0  -0.089224  -0.17565  0  3.926517  0
C  C65  1  0.55628982  0.44666887  0.34501896  1  -0.014752  0  -0.083568  -0.093294  0  3.990723  0
C  C66  1  0.56417916  0.41373158  0.30968882  1  -0.106828  0  -0.090235  -0.130128  0  3.989937  0
C  C67  1  0.74038744  0.33177757  0.24223984  1  -0.000321  0  -0.005031  0.137396  0  3.925944  0
C  C68  1  0.72134120  0.29454887  0.21120735  1  -0.005793  0  -0.094854  -0.192999  0  3.949374  0
C  C69  1  0.48056887  0.44672524  0.70996816  1  0.024508  0  -0.082499  -0.092013  0  3.988091  0
C  C70  1  0.50438799  0.41064997  0.77804483  1  -0.105372  0  -0.090996  -0.133247  0  3.988922  0
C  C71  1  0.35981067  0.33068796  0.92043542  1  -0.027839  0  -0.09235  -0.121611  0  4.019418  0
C  C72  1  0.35282812  0.29864565  0.98858717  1  -0.067212  0  -0.096598  -0.137865  0  4.016577  0
C  C73  1  0.53512079  0.41177261  0.41359344  1  0.112012  0  -0.008002  -0.025515  0  3.961155  0
C  C74  1  0.57264780  0.34485362  0.34135335  1  -0.015071  0  -0.004346  0.078215  0  3.974506  0
C  C75  1  0.58008698  0.30895017  0.30447952  1  0.028896  0  -0.008617  0.001883  0  3.93151  0
C  C76  1  0.54899067  0.23568703  0.23817540  1  -0.097817  0  -0.008805  0.072818  0  4.023146  0
C  C77  1  0.52905418  0.19996171  0.20167672  1  -0.063436  0  -0.006962  0.082291  0  4.019871  0
C  C78  1  0.52140723  0.23412219  0.13285280  1  -0.035358  0  -0.089542  -0.177037  0  3.931597  0
C  C79  1  0.93749776  0.39371672  0.20693077  1  -0.044682  0  -0.243525  -0.417158  0  3.985681  0
C  C80  1  0.89186172  0.20831291  0.89071484  1  -0.08433  0  -0.243909  -0.419322  0  3.988569  0
C  C81  1  0.87541181  0.89186297  0.39778483  1  -0.073694  0  -0.24354  -0.419355  0  3.989281  0
O  O82  1  0.25890994  0.57191697  0.43493069  1  -1.256773  0  -0.238157  -0.597131  0  2.340878  0
O  O83  1  0.24798682  0.49251588  0.57146411  1  -1.250328  0  -0.237887  -0.595981  0  2.338292  0
O  O84  1  0.27788111  0.43604356  0.49173220  1  -1.258664  0  -0.238684  -0.599248  0  2.345055  0
O  O85  1  0.71576937  0.57170677  0.48962991  1  -1.253399  0  -0.239415  -0.604855  0  2.363803  0
O  O86  1  0.74601037  0.48997192  0.43694877  1  -1.247578  0  -0.238116  -0.601339  0  2.354753  0
O  O87  1  0.72838823  0.43825275  0.57127832  1  -1.258116  0  -0.238783  -0.60359  0  2.358175  0
