# generated using pymatgen
data_Cd6H21C21N31
_symmetry_space_group_name_H-M   'P 1'
_cell_length_a   13.44990703
_cell_length_b   13.44991682
_cell_length_c   13.47972168
_cell_angle_alpha   91.51008962
_cell_angle_beta   91.51050189
_cell_angle_gamma   83.94960208
_symmetry_Int_Tables_number   1
_chemical_formula_structural   Cd6H21C21N31
_chemical_formula_sum   'Cd12 H42 C42 N62'
_cell_volume   2423.37564615
_cell_formula_units_Z   2
loop_
 _symmetry_equiv_pos_site_id
 _symmetry_equiv_pos_as_xyz
  1  'x, y, z'
loop_
 _atom_site_type_symbol
 _atom_site_label
 _atom_site_symmetry_multiplicity
 _atom_site_fract_x
 _atom_site_fract_y
 _atom_site_fract_z
 _atom_site_occupancy
 _atom_site_pbe_bader_charge
 _atom_site_pbe_bader_spin_density
 _atom_site_pbe_cm5_charge
 _atom_site_pbe_ddec_charge
 _atom_site_pbe_ddec_spin_density
 _atom_site_pbe_ddec_sum_bond_order
 _atom_site_pbe_magmom
Cd  Cd0  1  0.65827693  0.16231669  0.31945280  1  1.234519  0  0.787868  0.64874  0  2.463059  0
Cd  Cd1  1  0.03088216  0.20899791  0.62495645  1  1.071655  0  0.733421  0.729033  0  2.278186  0
Cd  Cd2  1  0.83767459  0.34174712  0.18054255  1  1.234193  0  0.787882  0.648748  0  2.463137  0
Cd  Cd3  1  0.79101048  0.96913415  0.87505859  1  1.07143  0  0.733354  0.728947  0  2.278071  0
Cd  Cd4  1  0.34174733  0.83766358  0.68054515  1  1.234406  0  0.787886  0.648786  0  2.463092  0
Cd  Cd5  1  0.96913240  0.79101437  0.37502456  1  1.071433  0  0.733398  0.72903  0  2.278227  0
Cd  Cd6  1  0.16232246  0.65827208  0.81945992  1  1.234325  0  0.78789  0.648766  0  2.463037  0
Cd  Cd7  1  0.20900649  0.03087730  0.12493208  1  1.071405  0  0.733449  0.728971  0  2.278061  0
Cd  Cd8  1  0.39528513  0.60468032  0.25002011  1  1.121303  0  0.851276  0.831872  0  1.968959  0
Cd  Cd9  1  0.60467081  0.39528338  0.75001739  1  1.121389  0  0.851332  0.831892  0  1.968877  0
Cd  Cd10  1  0.99999084  0.50000335  0.99998991  1  1.235738  0  0.788091  0.652434  0  2.444533  0
Cd  Cd11  1  0.49999253  0.00000387  0.49999430  1  1.235701  0  0.788106  0.652468  0  2.444441  0
H  H12  1  0.44816921  0.34981610  0.28980155  1  0.111497  0  0.133367  0.099022  0  0.983845  0
H  H13  1  0.02242639  0.30523788  0.37657544  1  0.140964  0  0.133733  0.096876  0  0.97588  0
H  H14  1  0.80859919  0.16983640  0.53383777  1  0.200448  0  0.120795  0.086881  0  1.09395  0
H  H15  1  0.35471530  0.65795925  0.00628436  1  0.117647  0  0.134906  0.10067  0  0.981378  0
H  H16  1  0.19087782  0.48464244  0.18573397  1  0.134322  0  0.138342  0.103576  0  0.974159  0
H  H17  1  0.46314126  0.15670508  0.12623562  1  0.093592  0  0.124051  0.085576  0  0.990751  0
H  H18  1  0.33586431  0.95808274  0.30892014  1  0.179736  0  0.11864  0.083344  0  1.083755  0
H  H19  1  0.72767578  0.83349002  0.54531210  1  0.089834  0  0.127325  0.091901  0  0.98165  0
H  H20  1  0.84390206  0.97124956  0.30456727  1  0.216153  0  0.123784  0.103368  0  1.043257  0
H  H21  1  0.88731756  0.01872044  0.59993847  1  0.006633  0  0.085157  0.021417  0  0.989083  0
H  H22  1  0.65013977  0.55183478  0.21019598  1  0.110512  0  0.133399  0.099052  0  0.983811  0
H  H23  1  0.69480542  0.97757070  0.12342442  1  0.141167  0  0.133777  0.096927  0  0.975835  0
H  H24  1  0.83016467  0.19143200  0.96615824  1  0.200121  0  0.120823  0.086836  0  1.093936  0
H  H25  1  0.34208379  0.64524921  0.49376496  1  0.118407  0  0.134875  0.100659  0  0.98118  0
H  H26  1  0.51529078  0.80911841  0.31425701  1  0.134422  0  0.138294  0.103502  0  0.974289  0
H  H27  1  0.84331097  0.53685743  0.37375990  1  0.093715  0  0.1241  0.085559  0  0.9906  0
H  H28  1  0.04191301  0.66413815  0.19105618  1  0.179412  0  0.118665  0.08332  0  1.083846  0
H  H29  1  0.16648839  0.27230416  0.95466935  1  0.089715  0  0.127339  0.092038  0  0.981679  0
H  H30  1  0.02875571  0.15610642  0.19544254  1  0.216379  0  0.123751  0.103293  0  1.043342  0
H  H31  1  0.98129579  0.11274493  0.90007335  1  0.007528  0  0.085192  0.021521  0  0.98942  0
H  H32  1  0.55182861  0.65013238  0.71020123  1  0.110739  0  0.133385  0.099017  0  0.983998  0
H  H33  1  0.97756893  0.69481884  0.62343394  1  0.141444  0  0.133737  0.096874  0  0.975945  0
H  H34  1  0.19143356  0.83013058  0.46614011  1  0.200131  0  0.120783  0.086879  0  1.093821  0
H  H35  1  0.64525570  0.34207274  0.99376033  1  0.11829  0  0.134929  0.100673  0  0.981221  0
H  H36  1  0.80910682  0.51529748  0.81424865  1  0.134939  0  0.138319  0.103539  0  0.974146  0
H  H37  1  0.53685292  0.84332855  0.87376544  1  0.094211  0  0.124105  0.085555  0  0.990559  0
H  H38  1  0.66413530  0.04192979  0.69106153  1  0.179159  0  0.11868  0.083466  0  1.083765  0
H  H39  1  0.27232874  0.16650038  0.45470582  1  0.089909  0  0.12736  0.091978  0  0.981791  0
H  H40  1  0.15607237  0.02871829  0.69541397  1  0.216788  0  0.123742  0.103285  0  1.043227  0
H  H41  1  0.11272882  0.98128789  0.40006572  1  0.007584  0  0.085168  0.021399  0  0.989156  0
H  H42  1  0.34978637  0.44817951  0.78982013  1  0.111609  0  0.133274  0.098881  0  0.983855  0
H  H43  1  0.30523235  0.02241689  0.87657143  1  0.141055  0  0.133732  0.096868  0  0.975963  0
H  H44  1  0.16984536  0.80859335  0.03385474  1  0.200118  0  0.12081  0.086989  0  1.093843  0
H  H45  1  0.65796140  0.35471110  0.50628420  1  0.117583  0  0.134911  0.100645  0  0.981516  0
H  H46  1  0.48464274  0.19087866  0.68572193  1  0.134061  0  0.138307  0.103553  0  0.974074  0
H  H47  1  0.15670162  0.46315318  0.62623742  1  0.093482  0  0.124064  0.085602  0  0.990697  0
H  H48  1  0.95808334  0.33586565  0.80891651  1  0.179736  0  0.118619  0.083324  0  1.08382  0
H  H49  1  0.83348687  0.72769088  0.04530093  1  0.089737  0  0.127405  0.091994  0  0.981763  0
H  H50  1  0.97125960  0.84392057  0.80457123  1  0.216664  0  0.123706  0.103335  0  1.043189  0
H  H51  1  0.01872237  0.88728892  0.09992860  1  0.007418  0  0.08522  0.021523  0  0.989425  0
H  H52  1  0.74432204  0.25567815  0.75000102  1  -0.046556  0  0.057943  -0.046495  0  1.135513  0
H  H53  1  0.25567826  0.74431366  0.24998943  1  -0.046707  0  0.057894  -0.046585  0  1.135493  0
C  C54  1  0.51522332  0.38244401  0.26993831  1  0.966655  0  0.121839  0.115788  0  4.041352  0
C  C55  1  0.95438744  0.27452020  0.39633789  1  0.970612  0  0.135855  0.139402  0  4.009203  0
C  C56  1  0.84566760  0.20470323  0.47443228  1  0.936765  0  0.12487  0.124652  0  3.984244  0
C  C57  1  0.29987924  0.61166388  0.03241787  1  0.987931  0  0.13229  0.124926  0  4.02397  0
C  C58  1  0.21667309  0.52393552  0.12360871  1  0.967971  0  0.137261  0.131438  0  4.01162  0
C  C59  1  0.44812054  0.11087726  0.18815842  1  0.955454  0  0.114205  0.116174  0  4.066716  0
C  C60  1  0.38509610  0.00985124  0.28049003  1  0.923107  0  0.118871  0.12847  0  4.000364  0
C  C61  1  0.73662107  0.88348028  0.48502727  1  0.989483  0  0.129106  0.136522  0  4.032003  0
C  C62  1  0.79553086  0.95590488  0.36477656  1  0.932408  0  0.121949  0.128406  0  3.986958  0
C  C63  1  0.85310664  0.03201231  0.67426447  1  1.100708  0  0.110934  0.297374  0  4.270946  0
C  C64  1  0.61752264  0.48476799  0.23006079  1  0.968733  0  0.121706  0.115474  0  4.04171  0
C  C65  1  0.72550599  0.04561828  0.10366256  1  0.970916  0  0.135756  0.139416  0  4.008998  0
C  C66  1  0.79530758  0.15435330  0.02556434  1  0.937023  0  0.124931  0.124797  0  3.983936  0
C  C67  1  0.38835855  0.70009491  0.46761577  1  0.986988  0  0.132108  0.12477  0  4.023607  0
C  C68  1  0.47603760  0.78331172  0.37639650  1  0.967497  0  0.136937  0.131107  0  4.012149  0
C  C69  1  0.88913265  0.55188416  0.31183274  1  0.955297  0  0.114134  0.116307  0  4.067067  0
C  C70  1  0.99014977  0.61490941  0.21949303  1  0.923794  0  0.118942  0.128679  0  4.000332  0
C  C71  1  0.11651023  0.26337147  0.01496077  1  0.990251  0  0.128981  0.136193  0  4.032207  0
C  C72  1  0.04409208  0.20447335  0.13522788  1  0.933479  0  0.122035  0.128436  0  3.986917  0
C  C73  1  0.96799526  0.14694534  0.82577159  1  1.103232  0  0.110888  0.297194  0  4.272615  0
C  C74  1  0.48476198  0.61751862  0.73006745  1  0.967866  0  0.121578  0.115341  0  4.042099  0
C  C75  1  0.04561951  0.72550981  0.60366768  1  0.970672  0  0.135717  0.139283  0  4.009296  0
C  C76  1  0.15435575  0.79528358  0.52555309  1  0.937206  0  0.124939  0.124651  0  3.983751  0
C  C77  1  0.70009638  0.38834190  0.96760739  1  0.987155  0  0.132147  0.124849  0  4.023726  0
C  C78  1  0.78330692  0.47603869  0.87638818  1  0.966885  0  0.136999  0.131232  0  4.011838  0
C  C79  1  0.55187875  0.88915050  0.81183892  1  0.955076  0  0.114197  0.116396  0  4.066594  0
C  C80  1  0.61490292  0.99016521  0.71949834  1  0.924163  0  0.118839  0.128467  0  4.000747  0
C  C81  1  0.26337804  0.11651127  0.51498024  1  0.989845  0  0.129091  0.136533  0  4.03227  0
C  C82  1  0.20445731  0.04407271  0.63521373  1  0.932103  0  0.121975  0.128543  0  3.986663  0
C  C83  1  0.14692928  0.96799136  0.32574409  1  1.100547  0  0.110946  0.297413  0  4.271731  0
C  C84  1  0.38243081  0.51522585  0.76994571  1  0.966843  0  0.121921  0.115914  0  4.040877  0
C  C85  1  0.27451922  0.95438121  0.89633551  1  0.970531  0  0.135822  0.139308  0  4.009277  0
C  C86  1  0.20470378  0.84566510  0.97444340  1  0.936943  0  0.124897  0.124533  0  3.984091  0
C  C87  1  0.61166632  0.29988523  0.53241558  1  0.988035  0  0.132253  0.124942  0  4.02353  0
C  C88  1  0.52393050  0.21667862  0.62359448  1  0.96872  0  0.137125  0.131132  0  4.011993  0
C  C89  1  0.11087606  0.44812600  0.68815713  1  0.95565  0  0.114276  0.116157  0  4.066566  0
C  C90  1  0.00985276  0.38509536  0.78048935  1  0.922805  0  0.118917  0.128446  0  4.000571  0
C  C91  1  0.88347434  0.73663168  0.98502298  1  0.9898  0  0.128881  0.136179  0  4.03278  0
C  C92  1  0.95591179  0.79554590  0.86477909  1  0.931021  0  0.121949  0.128418  0  3.986427  0
C  C93  1  0.03202941  0.85307356  0.17422660  1  1.101211  0  0.110789  0.297154  0  4.271784  0
C  C94  1  0.80659201  0.19342219  0.75001688  1  1.140592  0  0.122472  0.227532  0  4.333803  0
C  C95  1  0.19342232  0.80658334  0.24999675  1  1.140538  0  0.12254  0.227691  0  4.333458  0
N  N96  1  0.60424839  0.33008665  0.26286760  1  -0.724958  0  -0.241726  -0.18399  0  3.398587  0
N  N97  1  0.80544392  0.22656858  0.38534091  1  -0.774121  0  -0.262709  -0.211048  0  3.421582  0
N  N98  1  0.87549551  0.27150113  0.33495902  1  -0.789189  0  -0.260713  -0.19852  0  3.443055  0
N  N99  1  0.93917059  0.23391866  0.48495633  1  -1.248792  0  -0.37086  -0.329864  0  3.527828  0
N  N100  1  0.22283209  0.58647459  0.97764963  1  -0.75153  0  -0.235521  -0.17461  0  3.3741  0
N  N101  1  0.29988818  0.57358844  0.12506700  1  -1.242683  0  -0.38823  -0.358375  0  3.616923  0
N  N102  1  0.16962963  0.53033087  0.03610710  1  -0.730248  0  -0.237529  -0.169689  0  3.392532  0
N  N103  1  0.50412715  0.10602206  0.27160291  1  -0.766838  0  -0.266442  -0.217517  0  3.459336  0
N  N104  1  0.37247529  0.05196968  0.18986610  1  -1.231366  0  -0.371079  -0.357065  0  3.460051  0
N  N105  1  0.46334046  0.04016352  0.33104712  1  -0.783023  0  -0.266758  -0.214417  0  3.425089  0
N  N106  1  0.67034404  0.96159894  0.46394555  1  -0.759648  0  -0.263571  -0.211349  0  3.433067  0
N  N107  1  0.81615995  0.87634454  0.42461252  1  -1.245968  0  -0.370692  -0.349707  0  3.456259  0
N  N108  1  0.70896711  0.00818220  0.38633976  1  -0.813313  0  -0.272431  -0.208983  0  3.467683  0
N  N109  1  0.79522036  0.12514754  0.67935327  1  -1.283573  0  -0.397203  -0.47427  0  3.449122  0
N  N110  1  0.86303199  0.96073632  0.73536457  1  -1.259552  0  -0.519333  -0.675284  0  3.009532  0
N  N111  1  0.66989860  0.39575423  0.23712395  1  -0.745687  0  -0.241746  -0.183771  0  3.398708  0
N  N112  1  0.77343947  0.19456611  0.11466138  1  -0.7744  0  -0.262626  -0.210923  0  3.421473  0
N  N113  1  0.72852403  0.12450679  0.16504637  1  -0.789233  0  -0.26083  -0.198566  0  3.44289  0
N  N114  1  0.76609287  0.06084656  0.01504269  1  -1.24904  0  -0.370819  -0.33006  0  3.527933  0
N  N115  1  0.41354754  0.77714854  0.52237363  1  -0.752037  0  -0.235301  -0.174422  0  3.373685  0
N  N116  1  0.42640112  0.70008525  0.37494873  1  -1.242  0  -0.387977  -0.358158  0  3.617087  0
N  N117  1  0.46966153  0.83035803  0.46389587  1  -0.729843  0  -0.237501  -0.169546  0  3.392285  0
N  N118  1  0.89397836  0.49588209  0.22838914  1  -0.76684  0  -0.26647  -0.217658  0  3.459528  0
N  N119  1  0.94803978  0.62752656  0.31012351  1  -1.230889  0  -0.371133  -0.357276  0  3.460237  0
N  N120  1  0.95983117  0.53666707  0.16893605  1  -0.783599  0  -0.266722  -0.214309  0  3.425041  0
N  N121  1  0.03839057  0.32965228  0.03604355  1  -0.76036  0  -0.263483  -0.211195  0  3.432475  0
N  N122  1  0.12364443  0.18384107  0.07538398  1  -1.247006  0  -0.370641  -0.349521  0  3.456733  0
N  N123  1  0.99181413  0.29103782  0.11365983  1  -0.813419  0  -0.272533  -0.20909  0  3.467374  0
N  N124  1  0.87487000  0.20479313  0.82065618  1  -1.28558  0  -0.397254  -0.473989  0  3.45072  0
N  N125  1  0.03925453  0.13700206  0.76466185  1  -1.261914  0  -0.519288  -0.675358  0  3.010146  0
N  N126  1  0.39574746  0.66989837  0.73712946  1  -0.745469  0  -0.241737  -0.18389  0  3.398764  0
N  N127  1  0.19457137  0.77342082  0.61465259  1  -0.773976  0  -0.262681  -0.210929  0  3.421371  0
N  N128  1  0.12450692  0.72852128  0.66504870  1  -0.789751  0  -0.260815  -0.198532  0  3.443142  0
N  N129  1  0.06084333  0.76608132  0.51503796  1  -1.249231  0  -0.370743  -0.329941  0  3.527702  0
N  N130  1  0.77715380  0.41353420  0.02236236  1  -0.75201  0  -0.23543  -0.17447  0  3.373486  0
N  N131  1  0.70008549  0.42639942  0.87494330  1  -1.242028  0  -0.38792  -0.358178  0  3.617215  0
N  N132  1  0.83036015  0.46965769  0.96388327  1  -0.729824  0  -0.237576  -0.169699  0  3.392064  0
N  N133  1  0.49588243  0.89398887  0.72839291  1  -0.766973  0  -0.266459  -0.217634  0  3.458962  0
N  N134  1  0.62752241  0.94805741  0.81012604  1  -1.230922  0  -0.371039  -0.357243  0  3.46014  0
N  N135  1  0.53666594  0.95984536  0.66893976  1  -0.783914  0  -0.266786  -0.214401  0  3.424937  0
N  N136  1  0.32965499  0.03838886  0.53605971  1  -0.760187  0  -0.263673  -0.211548  0  3.433222  0
N  N137  1  0.18383577  0.12363595  0.57538006  1  -1.246286  0  -0.370734  -0.349763  0  3.456729  0
N  N138  1  0.29102558  0.99179638  0.61365131  1  -0.813269  0  -0.272283  -0.208858  0  3.467492  0
N  N139  1  0.20479143  0.87485943  0.32064328  1  -1.284038  0  -0.397152  -0.474117  0  3.449936  0
N  N140  1  0.13700164  0.03925874  0.26464614  1  -1.260177  0  -0.51936  -0.675328  0  3.009623  0
N  N141  1  0.33007731  0.60425395  0.76287461  1  -0.725263  0  -0.241634  -0.183811  0  3.398405  0
N  N142  1  0.22657259  0.80544040  0.88535075  1  -0.774051  0  -0.262673  -0.210971  0  3.421788  0
N  N143  1  0.27149901  0.87548789  0.83495833  1  -0.78908  0  -0.260746  -0.198474  0  3.443026  0
N  N144  1  0.23392576  0.93916488  0.98495690  1  -1.248699  0  -0.370863  -0.329868  0  3.528133  0
N  N145  1  0.58647567  0.22283750  0.47764587  1  -0.751866  0  -0.235452  -0.174609  0  3.373725  0
N  N146  1  0.57358971  0.29988442  0.62506898  1  -1.242924  0  -0.388168  -0.358178  0  3.616907  0
N  N147  1  0.53032689  0.16963746  0.53609824  1  -0.73037  0  -0.237462  -0.169487  0  3.39255  0
N  N148  1  0.10601693  0.50412966  0.77160288  1  -0.766772  0  -0.26646  -0.217452  0  3.459256  0
N  N149  1  0.05197182  0.37247727  0.68986412  1  -1.231108  0  -0.371143  -0.357114  0  3.460105  0
N  N150  1  0.04015943  0.46334206  0.83104628  1  -0.783045  0  -0.266786  -0.214388  0  3.425145  0
N  N151  1  0.96159036  0.67035141  0.96394536  1  -0.759819  0  -0.263483  -0.21126  0  3.433251  0
N  N152  1  0.87635098  0.81616639  0.92461693  1  -1.245407  0  -0.370599  -0.349522  0  3.456565  0
N  N153  1  0.00818443  0.70897608  0.88634633  1  -0.813063  0  -0.27244  -0.208998  0  3.467106  0
N  N154  1  0.12515953  0.79521083  0.17933007  1  -1.283455  0  -0.397177  -0.47401  0  3.449909  0
N  N155  1  0.96074843  0.86301344  0.23533841  1  -1.261217  0  -0.519359  -0.675394  0  3.00949  0
N  N156  1  0.51933426  0.48063827  0.25000049  1  -1.276555  0  -0.387173  -0.383272  0  3.58756  0
N  N157  1  0.48062575  0.51933111  0.75001036  1  -1.276204  0  -0.387103  -0.383096  0  3.58743  0
