# generated using pymatgen
data_FeH16(C12N5)2
_symmetry_space_group_name_H-M   'P 1'
_cell_length_a   8.78819218
_cell_length_b   9.02846897
_cell_length_c   14.41180000
_cell_angle_alpha   90.00000000
_cell_angle_beta   90.00000000
_cell_angle_gamma   104.67274946
_symmetry_Int_Tables_number   1
_chemical_formula_structural   FeH16(C12N5)2
_chemical_formula_sum   'Fe2 H32 C48 N20'
_cell_volume   1106.19763963
_cell_formula_units_Z   2
loop_
 _symmetry_equiv_pos_site_id
 _symmetry_equiv_pos_as_xyz
  1  'x, y, z'
loop_
 _atom_site_type_symbol
 _atom_site_label
 _atom_site_symmetry_multiplicity
 _atom_site_fract_x
 _atom_site_fract_y
 _atom_site_fract_z
 _atom_site_occupancy
 _atom_site_hle17_bader_spin_density
 _atom_site_hle17_ddec_charge
 _atom_site_hle17_ddec_spin_density
 _atom_site_hle17_ddec_sum_bond_order
 _atom_site_hle17_magmom
 _atom_site_hse06_10hf_bader_spin_density
 _atom_site_hse06_10hf_ddec_charge
 _atom_site_hse06_10hf_ddec_spin_density
 _atom_site_hse06_10hf_ddec_sum_bond_order
 _atom_site_hse06_10hf_magmom
 _atom_site_hse06_bader_spin_density
 _atom_site_hse06_ddec_charge
 _atom_site_hse06_ddec_spin_density
 _atom_site_hse06_ddec_sum_bond_order
 _atom_site_hse06_magmom
 _atom_site_pbe_bader_charge
 _atom_site_pbe_bader_spin_density
 _atom_site_pbe_cm5_charge
 _atom_site_pbe_ddec_charge
 _atom_site_pbe_ddec_spin_density
 _atom_site_pbe_ddec_sum_bond_order
 _atom_site_pbe_magmom
Fe  Fe0  1  0.49999931  0.00000000  0.99999931  1  0  0.356655  0  3.261229  0  0  0.301435  0  3.742845  0  0  0.328174  0  3.709452  0  1.14117  0  0.79088  0.294741  0  3.754381  0
Fe  Fe1  1  0.00000045  0.49999911  0.50000000  1  0  0.356642  0  3.261207  0  0  0.301406  0  3.742828  0  0  0.328109  0  3.709434  0  1.141106  0  0.790877  0.294706  0  3.754354  0
H  H2  1  0.07169876  0.26776626  0.98267045  1  0  0.11708  0  0.940904  0  0  0.128173  0  0.998922  0  0  0.130898  0  0.998997  0  0.082447  0  0.111521  0.126385  0  0.99866  0
H  H3  1  0.42829866  0.23222827  0.48267323  1  0  0.117088  0  0.9409  0  0  0.128177  0  0.998928  0  0  0.130908  0  0.998989  0  0.082466  0  0.111525  0.126384  0  0.998663  0
H  H4  1  0.92829848  0.73223196  0.01732886  1  0  0.117108  0  0.940886  0  0  0.128193  0  0.998921  0  0  0.130917  0  0.999001  0  0.082416  0  0.111543  0.126404  0  0.99866  0
H  H5  1  0.57170372  0.76777224  0.51732747  1  0  0.117143  0  0.940848  0  0  0.128234  0  0.998864  0  0  0.130964  0  0.99893  0  0.082424  0  0.111552  0.12644  0  0.998599  0
H  H6  1  0.07367697  0.45979318  0.10976006  1  0  0.094187  0  0.927874  0  0  0.110407  0  0.976095  0  0  0.11309  0  0.974208  0  0.087775  0  0.10959  0.108395  0  0.977577  0
H  H7  1  0.42632650  0.04020707  0.60976422  1  0  0.094201  0  0.927868  0  0  0.110404  0  0.976117  0  0  0.113084  0  0.974236  0  0.087839  0  0.109562  0.108378  0  0.977595  0
H  H8  1  0.92632171  0.54020618  0.89023994  1  0  0.094159  0  0.927907  0  0  0.110404  0  0.976105  0  0  0.113087  0  0.974219  0  0.087802  0  0.109584  0.108392  0  0.977587  0
H  H9  1  0.57367618  0.95979458  0.39023578  1  0  0.094203  0  0.92783  0  0  0.110386  0  0.976096  0  0  0.113067  0  0.974212  0  0.087817  0  0.109567  0.108361  0  0.977574  0
H  H10  1  0.81815319  0.45723079  0.18946488  1  0  0.105395  0  0.972257  0  0  0.111898  0  1.035773  0  0  0.114305  0  1.036504  0  0.116341  0  0.103735  0.110162  0  1.035416  0
H  H11  1  0.68185171  0.04276717  0.68946835  1  0  0.105413  0  0.972208  0  0  0.111869  0  1.035788  0  0  0.114275  0  1.03652  0  0.116281  0  0.103763  0.110132  0  1.035425  0
H  H12  1  0.18184519  0.54276743  0.81053442  1  0  0.105408  0  0.97217  0  0  0.111895  0  1.035707  0  0  0.114302  0  1.036438  0  0.116336  0  0.103757  0.110161  0  1.035347  0
H  H13  1  0.31815097  0.95723448  0.31053234  1  0  0.105437  0  0.972224  0  0  0.111889  0  1.0358  0  0  0.114296  0  1.036532  0  0.116281  0  0.103758  0.110152  0  1.035438  0
H  H14  1  0.57317274  0.26227395  0.14182337  1  0  0.092578  0  0.991527  0  0  0.091404  0  1.067642  0  0  0.095935  0  1.06177  0  0.183362  0  0.118159  0.088216  0  1.071765  0
H  H15  1  0.92683102  0.23772402  0.64182475  1  0  0.09253  0  0.991599  0  0  0.091412  0  1.06764  0  0  0.09594  0  1.061766  0  0.183363  0  0.118166  0.088212  0  1.071768  0
H  H16  1  0.42682480  0.73772541  0.85817733  1  0  0.092607  0  0.991522  0  0  0.091407  0  1.067658  0  0  0.095936  0  1.061789  0  0.183395  0  0.118174  0.088233  0  1.071765  0
H  H17  1  0.07317166  0.76227764  0.35817594  1  0  0.092564  0  0.99152  0  0  0.091395  0  1.067626  0  0  0.095925  0  1.061753  0  0.183395  0  0.118156  0.088202  0  1.071748  0
H  H18  1  0.11286532  0.91665988  0.75000139  1  0  0.110483  0  0.956786  0  0  0.11997  0  1.017742  0  0  0.122338  0  1.018312  0  0.110404  0  0.106747  0.11808  0  1.017921  0
H  H19  1  0.38712856  0.58334203  0.25000416  1  0  0.110395  0  0.95692  0  0  0.119886  0  1.017874  0  0  0.122254  0  1.018444  0  0.110354  0  0.106742  0.117998  0  1.018053  0
H  H20  1  0.88713479  0.08334063  0.24999861  1  0  0.110495  0  0.956776  0  0  0.11998  0  1.017737  0  0  0.122349  0  1.018305  0  0.110408  0  0.106749  0.118091  0  1.017916  0
H  H21  1  0.61286897  0.41665734  0.74999584  1  0  0.110431  0  0.956914  0  0  0.119913  0  1.01787  0  0  0.122282  0  1.018438  0  0.110364  0  0.106738  0.118024  0  1.018049  0
H  H22  1  0.17680338  0.75824399  0.62437725  1  0  0.06987  0  0.979141  0  0  0.077394  0  1.044316  0  0  0.07897  0  1.042237  0  0.066417  0  0.113466  0.076236  0  1.046184  0
H  H23  1  0.32319164  0.74175791  0.12438002  1  0  0.069843  0  0.979189  0  0  0.077375  0  1.044355  0  0  0.078944  0  1.042283  0  0.066354  0  0.113447  0.076214  0  1.046228  0
H  H24  1  0.82319673  0.24175652  0.37562275  1  0  0.069879  0  0.979146  0  0  0.077401  0  1.044317  0  0  0.078977  0  1.042238  0  0.066419  0  0.113468  0.076243  0  1.046186  0
H  H25  1  0.67680590  0.25824145  0.87561998  1  0  0.069851  0  0.979169  0  0  0.077397  0  1.044325  0  0  0.07895  0  1.042272  0  0.066388  0  0.113459  0.076237  0  1.046196  0
H  H26  1  0.70180716  0.55472066  0.57715136  1  0  0.070703  0  1.013285  0  0  0.072509  0  1.090407  0  0  0.074244  0  1.088207  0  0.12246  0  0.112872  0.07145  0  1.091728  0
H  H27  1  0.79818953  0.94527552  0.07715136  1  0  0.070643  0  1.013317  0  0  0.072489  0  1.090399  0  0  0.074223  0  1.0882  0  0.122475  0  0.112863  0.071428  0  1.091721  0
H  H28  1  0.29819295  0.44527985  0.42284864  1  0  0.070725  0  1.013261  0  0  0.072558  0  1.090365  0  0  0.074294  0  1.088162  0  0.122456  0  0.112889  0.071499  0  1.091685  0
H  H29  1  0.20180800  0.05472384  0.92284794  1  0  0.070673  0  1.013321  0  0  0.072485  0  1.090431  0  0  0.074218  0  1.088233  0  0.122429  0  0.112872  0.071423  0  1.091753  0
H  H30  1  0.62195808  0.69769237  0.69996045  1  0  0.113429  0  0.985086  0  0  0.113824  0  1.060233  0  0  0.118119  0  1.057599  0  0.167501  0  0.104457  0.110713  0  1.062307  0
H  H31  1  0.87803689  0.80230152  0.19996045  1  0  0.113505  0  0.985006  0  0  0.113861  0  1.060191  0  0  0.118154  0  1.057554  0  0.167538  0  0.104457  0.11075  0  1.062261  0
H  H32  1  0.37804287  0.30230699  0.30003955  1  0  0.113421  0  0.985072  0  0  0.113828  0  1.060207  0  0  0.118123  0  1.057574  0  0.167494  0  0.104453  0.110715  0  1.062283  0
H  H33  1  0.12196179  0.19769784  0.80003816  1  0  0.113499  0  0.985019  0  0  0.113851  0  1.060212  0  0  0.118144  0  1.057576  0  0.167514  0  0.104449  0.11074  0  1.062283  0
C  C34  1  0.80421432  0.05213627  0.92541043  1  0  0.212273  0  3.850974  0  0  0.190113  0  4.125474  0  0  0.197812  0  4.13976  0  0.920409  0  0.192512  0.185331  0  4.116155  0
C  C35  1  0.69578459  0.44786055  0.42541251  1  0  0.212157  0  3.851034  0  0  0.190036  0  4.125467  0  0  0.197738  0  4.13976  0  0.920488  0  0.192473  0.185241  0  4.116143  0
C  C36  1  0.19578549  0.94786310  0.07458888  1  0  0.212222  0  3.851009  0  0  0.190048  0  4.125504  0  0  0.197754  0  4.13979  0  0.920419  0  0.192499  0.185257  0  4.11618  0
C  C37  1  0.30421666  0.55213996  0.57458818  1  0  0.212252  0  3.850931  0  0  0.190161  0  4.125335  0  0  0.197861  0  4.139627  0  0.920488  0  0.192504  0.185378  0  4.116018  0
C  C38  1  0.81137625  0.90116647  0.81587310  1  0  0.246474  0  3.838364  0  0  0.228503  0  4.113454  0  0  0.233775  0  4.13122  0  0.935646  0  0.191257  0.225319  0  4.101432  0
C  C39  1  0.68862303  0.59883086  0.31587380  1  0  0.246694  0  3.838204  0  0  0.228713  0  4.113324  0  0  0.233994  0  4.131087  0  0.935669  0  0.19132  0.225523  0  4.101305  0
C  C40  1  0.18862470  0.09883289  0.18412690  1  0  0.246578  0  3.838268  0  0  0.228567  0  4.113411  0  0  0.233837  0  4.131184  0  0.935717  0  0.191288  0.225383  0  4.101387  0
C  C41  1  0.31137822  0.40116965  0.68412620  1  0  0.246662  0  3.838223  0  0  0.228699  0  4.113332  0  0  0.23398  0  4.131091  0  0.935663  0  0.191317  0.225508  0  4.101314  0
C  C42  1  0.82359772  0.16806435  0.99629540  1  0  0.135778  0  3.78174  0  0  0.135049  0  4.027121  0  0  0.145146  0  4.041232  0  0.381993  0  0.111724  0.127817  0  4.01823  0
C  C43  1  0.67640317  0.33193133  0.49629678  1  0  0.135865  0  3.7819  0  0  0.135172  0  4.027165  0  0  0.145265  0  4.041311  0  0.3817  0  0.111799  0.127988  0  4.018217  0
C  C44  1  0.17639952  0.83193387  0.00370460  1  0  0.135795  0  3.781852  0  0  0.135086  0  4.02717  0  0  0.145178  0  4.041318  0  0.38197  0  0.111739  0.127889  0  4.018235  0
C  C45  1  0.32359807  0.66806918  0.50370391  1  0  0.135945  0  3.781808  0  0  0.135226  0  4.027086  0  0  0.145322  0  4.041234  0  0.382031  0  0.111819  0.127997  0  4.018197  0
C  C46  1  0.96488400  0.27224986  0.01958118  1  0  -0.128999  0  3.706342  0  0  -0.153117  0  3.962381  0  0  -0.160075  0  3.98064  0  0.037453  0  -0.079998  -0.148859  0  3.95022  0
C  C47  1  0.53511407  0.22774810  0.51958534  1  0  -0.129065  0  3.706214  0  0  -0.153188  0  3.962278  0  0  -0.160137  0  3.980538  0  0.037462  0  -0.080045  -0.148946  0  3.9501  0
C  C48  1  0.03511383  0.72775064  0.98041882  1  0  -0.12902  0  3.706392  0  0  -0.15315  0  3.962452  0  0  -0.160102  0  3.980713  0  0.03744  0  -0.080029  -0.148902  0  3.950282  0
C  C49  1  0.46488831  0.77225241  0.48041605  1  0  -0.129172  0  3.706293  0  0  -0.153304  0  3.96236  0  0  -0.160252  0  3.980611  0  0.037452  0  -0.08006  -0.149048  0  3.950197  0
C  C50  1  0.96479391  0.37785969  0.08980558  1  0  -0.008707  0  3.758654  0  0  -0.028864  0  4.015577  0  0  -0.022263  0  4.030953  0  -0.077742  0  -0.071337  -0.033292  0  4.004849  0
C  C51  1  0.53520901  0.12213942  0.58980974  1  0  -0.00874  0  3.758533  0  0  -0.028901  0  4.015483  0  0  -0.022303  0  4.030866  0  -0.07781  0  -0.071308  -0.033323  0  4.004747  0
C  C52  1  0.03520476  0.62213967  0.91019442  1  0  -0.008732  0  3.75865  0  0  -0.028913  0  4.015586  0  0  -0.022312  0  4.030962  0  -0.078181  0  -0.071347  -0.033341  0  4.00486  0
C  C53  1  0.46479451  0.87786109  0.41019095  1  0  -0.008675  0  3.758613  0  0  -0.028799  0  4.015522  0  0  -0.0222  0  4.030907  0  -0.078234  0  -0.071312  -0.033221  0  4.004784  0
C  C54  1  0.82314369  0.37684985  0.13397147  1  0  -0.129233  0  3.742306  0  0  -0.141703  0  3.995814  0  0  -0.148658  0  4.015492  0  0.004051  0  -0.090539  -0.136785  0  3.982026  0
C  C55  1  0.67685864  0.12314697  0.63397424  1  0  -0.129148  0  3.742178  0  0  -0.141571  0  3.995716  0  0  -0.148525  0  4.015392  0  0.003971  0  -0.090549  -0.136653  0  3.981921  0
C  C56  1  0.17685499  0.62314951  0.86602923  1  0  -0.129198  0  3.742162  0  0  -0.141657  0  3.995686  0  0  -0.14861  0  4.015358  0  0.003908  0  -0.090556  -0.13674  0  3.9819  0
C  C57  1  0.32314374  0.87685354  0.36602645  1  0  -0.129251  0  3.74231  0  0  -0.141676  0  3.995828  0  0  -0.148632  0  4.015502  0  0.003986  0  -0.090582  -0.13676  0  3.982037  0
C  C58  1  0.68607048  0.26928216  0.10805798  1  0  0.123463  0  3.635632  0  0  0.092948  0  3.888031  0  0  0.103127  0  3.899982  0  0.386695  0  0.045135  0.086053  0  3.88085  0
C  C59  1  0.81393101  0.23071580  0.60806145  1  0  0.123427  0  3.635673  0  0  0.092876  0  3.88803  0  0  0.103074  0  3.899987  0  0.386595  0  0.045086  0.085967  0  3.880884  0
C  C60  1  0.31392622  0.73071834  0.89194133  1  0  0.123456  0  3.635716  0  0  0.092955  0  3.888092  0  0  0.103151  0  3.900051  0  0.38683  0  0.04514  0.086048  0  3.880911  0
C  C61  1  0.18607168  0.76928585  0.39193924  1  0  0.123483  0  3.635679  0  0  0.092954  0  3.888051  0  0  0.103153  0  3.900008  0  0.38661  0  0.045119  0.086051  0  3.880878  0
C  C62  1  0.86060573  0.82035732  0.73897709  1  0  0.060372  0  3.805483  0  0  0.072175  0  4.036565  0  0  0.07965  0  4.055798  0  -0.066294  0  0.00786  0.066613  0  4.023921  0
C  C63  1  0.63939042  0.67964115  0.23897778  1  0  0.06013  0  3.805465  0  0  0.07192  0  4.03658  0  0  0.079388  0  4.055821  0  -0.066223  0  0.007782  0.066363  0  4.023933  0
C  C64  1  0.13939522  0.17964204  0.26102222  1  0  0.060321  0  3.805381  0  0  0.072157  0  4.036452  0  0  0.079631  0  4.055685  0  -0.06635  0  0.007876  0.066595  0  4.023808  0
C  C65  1  0.36060885  0.32036050  0.76102291  1  0  0.060184  0  3.805428  0  0  0.071948  0  4.03656  0  0  0.07942  0  4.055795  0  -0.06628  0  0.007766  0.066392  0  4.023914  0
C  C66  1  0.01817363  0.83713765  0.71321625  1  0  -0.150942  0  3.71605  0  0  -0.167779  0  3.960379  0  0  -0.176444  0  3.98018  0  0.050256  0  -0.085487  -0.161895  0  3.947623  0
C  C67  1  0.48182307  0.66286197  0.21321833  1  0  -0.150716  0  3.715967  0  0  -0.16755  0  3.9603  0  0  -0.176213  0  3.9801  0  0.050282  0  -0.085456  -0.16167  0  3.94755  0
C  C68  1  0.98182648  0.16286286  0.28678375  1  0  -0.150959  0  3.716097  0  0  -0.167811  0  3.960418  0  0  -0.176474  0  3.980217  0  0.050265  0  -0.085522  -0.161928  0  3.947663  0
C  C69  1  0.51817704  0.33713854  0.78678167  1  0  -0.150782  0  3.715957  0  0  -0.167602  0  3.960284  0  0  -0.176267  0  3.98008  0  0.050326  0  -0.085443  -0.161721  0  3.947533  0
C  C70  1  0.05446604  0.74792688  0.64219945  1  0  0.110522  0  3.681598  0  0  0.079864  0  3.936451  0  0  0.090813  0  3.950735  0  0.421232  0  0.03756  0.071546  0  3.928306  0
C  C71  1  0.44552953  0.75207273  0.14220153  1  0  0.110468  0  3.681638  0  0  0.079797  0  3.936472  0  0  0.090755  0  3.950757  0  0.421218  0  0.037585  0.071478  0  3.928334  0
C  C72  1  0.94553407  0.25207362  0.35780055  1  0  0.110469  0  3.681714  0  0  0.079838  0  3.936548  0  0  0.090787  0  3.950833  0  0.421231  0  0.037555  0.071516  0  3.9284  0
C  C73  1  0.55446771  0.24792548  0.85779847  1  0  0.1105  0  3.681647  0  0  0.07981  0  3.936465  0  0  0.09078  0  3.950758  0  0.42123  0  0.03758  0.071499  0  3.928333  0
C  C74  1  0.79296574  0.63376202  0.61599870  1  0  0.104912  0  3.695299  0  0  0.072127  0  3.954507  0  0  0.083643  0  3.966834  0  0.431534  0  0.032247  0.064505  0  3.946226  0
C  C75  1  0.70703012  0.86623531  0.11599800  1  0  0.104933  0  3.69528  0  0  0.072086  0  3.954495  0  0  0.083601  0  3.966824  0  0.431594  0  0.032225  0.064458  0  3.946216  0
C  C76  1  0.20703551  0.36623849  0.38400061  1  0  0.104852  0  3.695289  0  0  0.072035  0  3.954538  0  0  0.083552  0  3.966864  0  0.4316  0  0.032197  0.064408  0  3.946256  0
C  C77  1  0.29296712  0.13376291  0.88400130  1  0  0.104959  0  3.695335  0  0  0.072161  0  3.954498  0  0  0.083679  0  3.966828  0  0.431601  0  0.03225  0.064542  0  3.946225  0
C  C78  1  0.74726883  0.71691716  0.68637089  1  0  -0.165314  0  3.747356  0  0  -0.184205  0  3.999933  0  0  -0.192892  0  4.01801  0  -0.080363  0  -0.089627  -0.178362  0  3.987984  0
C  C79  1  0.75273217  0.78308245  0.18636881  1  0  -0.165313  0  3.747173  0  0  -0.184149  0  3.999765  0  0  -0.192831  0  4.017837  0  -0.080346  0  -0.089627  -0.178308  0  3.987816  0
C  C80  1  0.25273128  0.28308334  0.31362911  1  0  -0.165278  0  3.747314  0  0  -0.18418  0  3.999883  0  0  -0.192868  0  4.01796  0  -0.08045  0  -0.089631  -0.178336  0  3.987935  0
C  C81  1  0.24726764  0.21691691  0.81363050  1  0  -0.165346  0  3.747244  0  0  -0.184186  0  3.999834  0  0  -0.19287  0  4.017908  0  -0.080348  0  -0.089624  -0.178344  0  3.987883  0
N  N82  1  0.65552958  0.96123034  0.91509041  1  0  -0.18119  0  3.365716  0  0  -0.149699  0  3.673234  0  0  -0.164316  0  3.689703  0  -0.674246  0  -0.263388  -0.14127  0  3.661381  0
N  N83  1  0.84446825  0.53876584  0.41509180  1  0  -0.180999  0  3.365556  0  0  -0.149528  0  3.673064  0  0  -0.164134  0  3.689521  0  -0.674253  0  -0.263322  -0.141096  0  3.661204  0
N  N84  1  0.34447053  0.03877017  0.08490889  1  0  -0.181171  0  3.36572  0  0  -0.149666  0  3.673231  0  0  -0.164283  0  3.689699  0  -0.674221  0  -0.263376  -0.141238  0  3.661379  0
N  N85  1  0.15553156  0.46123352  0.58490820  1  0  -0.18107  0  3.365577  0  0  -0.149624  0  3.673119  0  0  -0.164229  0  3.689574  0  -0.674261  0  -0.263343  -0.141191  0  3.661253  0
N  N86  1  0.65877977  0.86475146  0.84477442  1  0  -0.274104  0  2.914264  0  0  -0.251299  0  3.188378  0  0  -0.257261  0  3.201716  0  -0.66239  0  -0.21974  -0.24684  0  3.179317  0
N  N87  1  0.84121980  0.63524701  0.34477581  1  0  -0.27431  0  2.914175  0  0  -0.251513  0  3.188332  0  0  -0.25748  0  3.201668  0  -0.66238  0  -0.219827  -0.247049  0  3.179263  0
N  N88  1  0.34122005  0.13524790  0.15522558  1  0  -0.274169  0  2.914371  0  0  -0.251366  0  3.188508  0  0  -0.257329  0  3.20185  0  -0.662416  0  -0.219778  -0.246904  0  3.179444  0
N  N89  1  0.15877917  0.36475350  0.65522419  1  0  -0.274257  0  2.914162  0  0  -0.251469  0  3.188325  0  0  -0.257437  0  3.20166  0  -0.662369  0  -0.219809  -0.247003  0  3.179252  0
N  N90  1  0.90607670  0.01734937  0.86481078  1  0  -0.437943  0  2.955929  0  0  -0.404694  0  3.220469  0  0  -0.418988  0  3.235506  0  -1.184087  0  -0.330131  -0.395272  0  3.210291  0
N  N91  1  0.59392168  0.48264974  0.36481147  1  0  -0.437946  0  2.955774  0  0  -0.404711  0  3.220319  0  0  -0.419012  0  3.235358  0  -1.18411  0  -0.330124  -0.395288  0  3.210149  0
N  N92  1  0.09392312  0.98265000  0.13518853  1  0  -0.437913  0  2.955877  0  0  -0.404659  0  3.220439  0  0  -0.418951  0  3.235475  0  -1.1841  0  -0.330118  -0.395236  0  3.210262  0
N  N93  1  0.40607843  0.51735077  0.63518922  1  0  -0.437977  0  2.9558  0  0  -0.404755  0  3.220335  0  0  -0.419054  0  3.235373  0  -1.18414  0  -0.330136  -0.395331  0  3.210164  0
N  N94  1  0.68435534  0.16481156  0.04084084  1  0  -0.254905  0  3.323467  0  0  -0.204356  0  3.590597  0  0  -0.223463  0  3.607391  0  -1.161194  0  -0.333655  -0.192826  0  3.578477  0
N  N95  1  0.81564496  0.33518183  0.54084223  1  0  -0.254914  0  3.323486  0  0  -0.204344  0  3.59058  0  0  -0.223487  0  3.607416  0  -1.160811  0  -0.333642  -0.192829  0  3.578445  0
N  N96  1  0.31564334  0.83518781  0.95915847  1  0  -0.254949  0  3.32358  0  0  -0.204353  0  3.590634  0  0  -0.223509  0  3.60749  0  -1.161172  0  -0.333647  -0.192839  0  3.578518  0
N  N97  1  0.18435713  0.66481754  0.45915777  1  0  -0.255026  0  3.323521  0  0  -0.204425  0  3.590584  0  0  -0.223578  0  3.607427  0  -1.161104  0  -0.333642  -0.192901  0  3.57847  0
N  N98  1  0.94508711  0.64345284  0.59360177  1  0  -0.214478  0  3.314808  0  0  -0.161343  0  3.586732  0  0  -0.181551  0  3.605719  0  -1.170003  0  -0.330359  -0.148759  0  3.572415  0
N  N99  1  0.55490821  0.85654678  0.09360246  1  0  -0.214506  0  3.314935  0  0  -0.161339  0  3.586838  0  0  -0.181558  0  3.605839  0  -1.170064  0  -0.330371  -0.148743  0  3.572516  0
N  N100  1  0.05491330  0.35654881  0.40639754  1  0  -0.21442  0  3.3149  0  0  -0.161313  0  3.586844  0  0  -0.181521  0  3.605832  0  -1.169996  0  -0.330335  -0.148715  0  3.572512  0
N  N101  1  0.44509047  0.14345259  0.90639684  1  0  -0.214553  0  3.314966  0  0  -0.16137  0  3.586838  0  0  -0.181589  0  3.605834  0  -1.170069  0  -0.330387  -0.1488  0  3.572542  0
