# generated using pymatgen
data_CuH10C19N2O5
_symmetry_space_group_name_H-M   'P 1'
_cell_length_a   11.42929921
_cell_length_b   12.30989305
_cell_length_c   14.90201469
_cell_angle_alpha   79.71599578
_cell_angle_beta   67.44527632
_cell_angle_gamma   62.28548391
_symmetry_Int_Tables_number   1
_chemical_formula_structural   CuH10C19N2O5
_chemical_formula_sum   'Cu4 H40 C76 N8 O20'
_cell_volume   1714.11820632
_cell_formula_units_Z   4
loop_
 _symmetry_equiv_pos_site_id
 _symmetry_equiv_pos_as_xyz
  1  'x, y, z'
loop_
 _atom_site_type_symbol
 _atom_site_label
 _atom_site_symmetry_multiplicity
 _atom_site_fract_x
 _atom_site_fract_y
 _atom_site_fract_z
 _atom_site_occupancy
 _atom_site_pbe_bader_charge
 _atom_site_pbe_bader_spin_density
 _atom_site_pbe_cm5_charge
 _atom_site_pbe_ddec_charge
 _atom_site_pbe_ddec_spin_density
 _atom_site_pbe_ddec_sum_bond_order
 _atom_site_pbe_magmom
Cu  Cu0  1  0.70614397  0.58812799  0.24981385  1  1.033623  0.545473  0.719798  0.717293  0.722238  2.141309  0.545
Cu  Cu1  1  0.04417091  0.91188864  0.25011904  1  1.031786  0.547037  0.719957  0.717433  0.724222  2.140836  0.546
Cu  Cu2  1  0.29385265  0.41187945  0.75019130  1  1.03275  -0.542215  0.719415  0.716682  -0.759629  2.141403  -0.542
Cu  Cu3  1  0.95584160  0.08810319  0.74987426  1  1.031365  0.544294  0.719566  0.716848  0.720575  2.140938  0.544
H  H4  1  0.85071025  0.69775298  0.92791371  1  0.104098  0.000361  0.113946  0.123669  0.000154  0.98663  0.0
H  H5  1  0.22183766  0.80256861  0.92801841  1  0.101928  0.00038  0.113819  0.12302  0.000163  0.986747  0.0
H  H6  1  0.97624578  0.80263007  0.57208528  1  0.094334  0.000376  0.113744  0.122323  0.00016  0.986357  0.0
H  H7  1  0.45252846  0.69748396  0.57207823  1  0.080528  0.000365  0.113474  0.121947  0.000152  0.986534  0.0
H  H8  1  0.14928225  0.30224529  0.07209256  1  0.104516  7.1e-05  0.113936  0.123675  6.1e-05  0.986574  0.0
H  H9  1  0.77813821  0.19744159  0.07197958  1  0.101757  1.7e-05  0.113794  0.122922  -4e-06  0.986883  0.0
H  H10  1  0.02373825  0.19738931  0.42790567  1  0.094326  1.8e-05  0.113687  0.122276  -3e-06  0.986226  0.0
H  H11  1  0.54744508  0.30251340  0.42793228  1  0.080087  6.1e-05  0.113515  0.121947  5.8e-05  0.986468  0.0
H  H12  1  0.67143755  0.50707192  0.45446011  1  0.1438  0.001454  0.117424  0.097566  0.000623  1.03242  0.002
H  H13  1  0.87413991  0.99277034  0.45466414  1  0.119002  0.001584  0.117172  0.097304  0.000767  1.030502  0.002
H  H14  1  0.13307201  0.99270477  0.04551953  1  0.158914  0.001532  0.116957  0.096616  0.000766  1.033391  0.002
H  H15  1  0.82174344  0.50723369  0.04507140  1  0.147336  0.001445  0.116827  0.096169  0.000625  1.032587  0.002
H  H16  1  0.32858168  0.49291717  0.54553353  1  0.143769  -0.00142  0.117404  0.097565  -0.000654  1.032351  -0.002
H  H17  1  0.12587382  0.00722976  0.54532855  1  0.119023  0.001599  0.117203  0.097386  0.000785  1.030473  0.002
H  H18  1  0.86693229  0.00731276  0.95448143  1  0.158715  0.001549  0.11691  0.096557  0.000785  1.033382  0.002
H  H19  1  0.17824845  0.49277926  0.95492721  1  0.147613  -0.00141  0.116847  0.096192  -0.000656  1.032598  -0.002
H  H20  1  0.79723251  0.46055165  0.56820626  1  0.152154  0.000784  0.110233  0.127  0.000408  1.036539  0.001
H  H21  1  0.63449740  0.03945139  0.56828416  1  0.158996  0.000933  0.110297  0.127214  0.000518  1.037562  0.001
H  H22  1  0.32602645  0.03915909  0.93173704  1  0.157447  0.000935  0.110156  0.125879  0.000519  1.038225  0.001
H  H23  1  0.74220364  0.46071678  0.93154798  1  0.124566  0.000803  0.110671  0.127674  0.00041  1.036968  0.001
H  H24  1  0.20278340  0.53943468  0.43179017  1  0.152223  -0.000815  0.110217  0.126956  -0.000454  1.036561  -0.001
H  H25  1  0.36551914  0.96053769  0.43171407  1  0.157956  0.000884  0.110298  0.12727  0.000488  1.037433  0.001
H  H26  1  0.67398549  0.96085385  0.06826617  1  0.158141  0.000886  0.110141  0.125928  0.000489  1.038111  0.001
H  H27  1  0.25779043  0.53929984  0.06844946  1  0.124773  -0.000834  0.110633  0.127687  -0.000455  1.036994  -0.001
H  H28  1  0.95818774  0.61525666  0.24000926  1  0.156423  0.001601  0.115682  0.09408  0.000728  1.067132  0.001
H  H29  1  0.80193769  0.88488007  0.24005550  1  0.149005  0.001638  0.115925  0.094655  0.000742  1.066769  0.001
H  H30  1  0.31354244  0.88489615  0.26005542  1  0.184584  0.001603  0.115355  0.094439  0.000743  1.066065  0.001
H  H31  1  0.42705836  0.61479433  0.25997123  1  0.189331  0.001562  0.115387  0.093938  0.000726  1.066049  0.001
H  H32  1  0.04182216  0.38474435  0.75998869  1  0.156639  -0.001592  0.115664  0.09408  -0.000758  1.067154  -0.001
H  H33  1  0.19806833  0.11512737  0.75994121  1  0.148958  0.001634  0.11589  0.094617  0.00073  1.066827  0.001
H  H34  1  0.68647348  0.11509018  0.73994101  1  0.184577  0.0016  0.115364  0.094509  0.00073  1.066022  0.001
H  H35  1  0.57294969  0.38519292  0.74003543  1  0.185321  -0.001558  0.11541  0.093988  -0.000757  1.065953  -0.001
H  H36  1  0.09017651  0.58257528  0.34435583  1  0.132019  0.00087  0.114984  0.13706  0.000471  1.016512  0.001
H  H37  1  0.56556706  0.91763412  0.34428538  1  0.126718  0.000963  0.115101  0.136833  0.000534  1.015971  0.001
H  H38  1  0.51712041  0.91760397  0.15567603  1  0.136602  0.000955  0.11463  0.136619  0.000534  1.016148  0.001
H  H39  1  0.32750378  0.58217130  0.15580663  1  0.122319  0.000873  0.115262  0.136961  0.00047  1.016925  0.001
H  H40  1  0.90983451  0.41742206  0.65565039  1  0.132169  -0.000783  0.115048  0.137151  -0.000409  1.016357  -0.001
H  H41  1  0.43443450  0.08237148  0.65571575  1  0.126644  0.000885  0.115118  0.136935  0.000454  1.015989  0.001
H  H42  1  0.48290656  0.08237502  0.84431683  1  0.134565  0.00088  0.114672  0.136662  0.000454  1.016189  0.001
H  H43  1  0.67249801  0.41781778  0.84419779  1  0.122226  -0.000787  0.115265  0.136935  -0.000409  1.016902  -0.001
C  C44  1  0.84195968  0.70893665  0.11182008  1  1.589336  -0.000757  0.205165  0.555707  0.000544  4.232925  -0.003
C  C45  1  0.04641201  0.79142236  0.11192421  1  1.590914  -0.00076  0.204799  0.55508  0.000521  4.232006  -0.003
C  C46  1  0.16265613  0.79141216  0.38822598  1  1.593051  -0.000718  0.206256  0.557806  0.000503  4.228788  -0.003
C  C47  1  0.44981342  0.70874081  0.38811320  1  1.592713  -0.00072  0.205549  0.556006  0.000538  4.231384  -0.003
C  C48  1  0.15803565  0.29105061  0.88818887  1  1.58917  0.001274  0.204979  0.555322  -0.000502  4.233435  0.003
C  C49  1  0.95358302  0.20858967  0.88807362  1  1.590843  -0.001113  0.204635  0.554776  0.000309  4.232459  -0.003
C  C50  1  0.83734719  0.20858336  0.61176519  1  1.592938  -0.00108  0.206305  0.5582  0.000285  4.228685  -0.003
C  C51  1  0.55019346  0.29123543  0.61188972  1  1.591943  0.001222  0.205861  0.556312  -0.000504  4.231134  0.003
C  C52  1  0.94276422  0.73004040  0.01763534  1  -0.051011  0.009535  0.003076  -0.024334  0.006733  3.908178  0.007
C  C53  1  0.03995362  0.77034970  0.01767226  1  -0.027244  0.011657  0.004343  -0.02445  0.008171  3.909061  0.009
C  C54  1  0.19043324  0.77019310  0.48239263  1  0.00953  0.011543  0.00279  -0.02587  0.008118  3.908153  0.009
C  C55  1  0.32803604  0.72980292  0.48239233  1  -0.063585  0.009507  0.004892  -0.023711  0.006714  3.907511  0.007
C  C56  1  0.05721603  0.26997439  0.98236449  1  -0.050282  -0.004834  0.003084  -0.024454  -0.003949  3.908293  -0.004
C  C57  1  0.96003265  0.22964765  0.98233501  1  -0.026346  0.00369  0.0044  -0.024371  0.002857  3.90941  0.004
C  C58  1  0.80955908  0.22978958  0.51760553  1  0.008758  0.003681  0.00287  -0.026121  0.002861  3.908402  0.004
C  C59  1  0.67195021  0.27019718  0.51761074  1  -0.063197  -0.004803  0.004818  -0.023693  -0.003936  3.907573  -0.004
C  C60  1  0.93219113  0.71930144  0.92966366  1  0.039916  0.002378  -0.068089  -0.103231  0.001579  3.921333  0.001
C  C61  1  0.13864296  0.78100601  0.92972358  1  0.015942  0.003442  -0.068269  -0.101164  0.00234  3.923521  0.002
C  C62  1  0.08108937  0.78096544  0.57035153  1  -0.015752  0.003502  -0.067946  -0.100776  0.002362  3.919334  0.002
C  C63  1  0.34946294  0.71903469  0.57034287  1  0.043395  0.002437  -0.068119  -0.101173  0.001611  3.920503  0.001
C  C64  1  0.06778480  0.28071794  0.07034104  1  0.038696  -0.00302  -0.068108  -0.103063  -0.002103  3.921158  -0.002
C  C65  1  0.86134422  0.21899501  0.07027056  1  0.015004  0.00465  -0.06822  -0.100913  0.003092  3.923858  0.003
C  C66  1  0.91889882  0.21902549  0.42964567  1  -0.015457  0.004709  -0.067898  -0.100614  0.003128  3.919345  0.003
C  C67  1  0.65050834  0.28098193  0.42966216  1  0.043584  -0.003105  -0.068298  -0.101369  -0.002151  3.920528  -0.002
C  C68  1  0.02363162  0.73996765  0.84163440  1  -0.050338  0.001839  -0.013145  -0.044751  0.001204  4.000098  0.001
C  C69  1  0.13545794  0.76019199  0.84166204  1  -0.03913  0.003919  -0.013782  -0.046947  0.002575  4.002527  0.002
C  C70  1  0.10516384  0.76020166  0.65841278  1  -0.027087  0.003971  -0.013368  -0.045894  0.002614  3.999244  0.002
C  C71  1  0.23731402  0.73982093  0.65841462  1  -0.029347  0.001843  -0.013161  -0.04429  0.001223  3.998046  0.001
C  C72  1  0.97634262  0.26004714  0.15836386  1  -0.050865  0.002429  -0.013189  -0.045031  0.001525  4.000309  0.002
C  C73  1  0.86451945  0.23982188  0.15833450  1  -0.038616  -0.003826  -0.013862  -0.047097  -0.002711  4.002628  -0.002
C  C74  1  0.89481836  0.23980120  0.34158918  1  -0.027276  -0.003893  -0.013314  -0.045937  -0.002756  3.999603  -0.002
C  C75  1  0.76265374  0.26019202  0.34159198  1  -0.028486  0.002498  -0.013054  -0.044011  0.00156  3.997789  0.002
C  C76  1  0.99614367  0.75012682  0.75001795  1  0.930243  0.000905  0.153395  0.336616  0.000572  4.037528  0.0
C  C77  1  0.25462364  0.74999414  0.75004601  1  0.929551  0.000894  0.152472  0.335619  0.000563  4.035714  0.0
C  C78  1  0.00382199  0.24987972  0.24998070  1  0.930443  4e-06  0.153124  0.3365  -2.9e-05  4.03729  0.0
C  C79  1  0.74535873  0.25002706  0.24995797  1  0.928306  1.7e-05  0.152505  0.335533  -2e-05  4.035362  0.0
C  C80  1  0.76520427  0.52185288  0.43329682  1  0.423492  0.000152  0.038705  0.085129  0.000776  3.941853  0.001
C  C81  1  0.80157020  0.97801959  0.43344124  1  0.450225  0.000365  0.038589  0.085211  0.000929  3.942526  0.001
C  C82  1  0.22041893  0.97802531  0.06671300  1  0.397131  0.000436  0.039812  0.087689  0.000931  3.942295  0.001
C  C83  1  0.71317123  0.52193704  0.06636839  1  0.417463  0.000179  0.040082  0.089284  0.000769  3.942096  0.001
C  C84  1  0.23480865  0.47814080  0.56669894  1  0.424033  -9.8e-05  0.038739  0.085186  -0.000962  3.941797  0.0
C  C85  1  0.19844398  0.02197958  0.56655335  1  0.450273  0.000398  0.038587  0.08519  0.000939  3.942542  0.001
C  C86  1  0.77959126  0.02198580  0.93328718  1  0.396648  0.000466  0.039964  0.087838  0.000938  3.942456  0.001
C  C87  1  0.28682223  0.47807408  0.93363336  1  0.416836  -0.000144  0.040097  0.089195  -0.000968  3.942205  -0.001
C  C88  1  0.83670419  0.49735735  0.49698807  1  -0.018423  0.006475  -0.079999  -0.163635  0.004483  3.912879  0.005
C  C89  1  0.66633806  0.00256087  0.49708900  1  0.003597  0.005483  -0.078674  -0.161497  0.00381  3.911153  0.005
C  C90  1  0.33108765  0.00247476  0.00298768  1  0.014861  0.005483  -0.079809  -0.163179  0.003819  3.914676  0.005
C  C91  1  0.66601828  0.49748719  0.00279456  1  -0.005171  0.006467  -0.080403  -0.165775  0.004473  3.913757  0.005
C  C92  1  0.16331052  0.50263541  0.50300921  1  -0.019206  -0.006358  -0.079964  -0.163534  -0.00465  3.912725  -0.005
C  C93  1  0.33367547  0.99743555  0.50290951  1  0.00441  0.005474  -0.078768  -0.161694  0.003803  3.911219  0.005
C  C94  1  0.66892280  0.99753176  0.99701737  1  0.014945  0.005471  -0.079893  -0.163341  0.003811  3.914534  0.005
C  C95  1  0.33397139  0.50252484  0.99720388  1  -0.005093  -0.006359  -0.08038  -0.165808  -0.004646  3.913687  -0.005
C  C96  1  0.92383562  0.58259348  0.31345649  1  0.459035  -0.000516  0.04528  0.104724  0.000182  3.916358  0.0
C  C97  1  0.76285349  0.91740277  0.31353395  1  0.455034  -0.000323  0.045447  0.104557  0.000318  3.916868  0.0
C  C98  1  0.31994981  0.91744991  0.18658092  1  0.409462  -0.000271  0.04454  0.102038  0.000317  3.914701  0.0
C  C99  1  0.49393832  0.58239492  0.18643857  1  0.416221  -0.00048  0.045382  0.105415  0.000182  3.912801  0.0
C  C100  1  0.07617723  0.41740295  0.68654459  1  0.458241  0.000635  0.045236  0.104733  -0.00032  3.915927  0.0
C  C101  1  0.23715035  0.08260100  0.68646394  1  0.455166  -0.000321  0.045511  0.104676  0.000312  3.916826  0.0
C  C102  1  0.68006782  0.08254101  0.81341720  1  0.409303  -0.000273  0.044622  0.102109  0.000309  3.914526  0.0
C  C103  1  0.50606593  0.41759325  0.81356669  1  0.420046  0.000601  0.045317  0.105264  -0.000324  3.912469  0.0
C  C104  1  0.00008861  0.56122117  0.37337729  1  0.016525  0.005979  -0.072803  -0.151121  0.004116  3.87235  0.005
C  C105  1  0.62664360  0.93884531  0.37338267  1  0.025216  0.004876  -0.072625  -0.149657  0.003419  3.870376  0.004
C  C106  1  0.43471675  0.93882580  0.12664635  1  0.024435  0.004885  -0.071593  -0.148827  0.003427  3.868592  0.004
C  C107  1  0.43891490  0.56103555  0.12663639  1  0.019842  0.005958  -0.072372  -0.150299  0.004119  3.871292  0.005
C  C108  1  0.99992648  0.43877617  0.62661921  1  0.016616  -0.005858  -0.072837  -0.151201  -0.004278  3.872199  -0.005
C  C109  1  0.37336224  0.06115846  0.62661701  1  0.025105  0.004846  -0.07271  -0.149851  0.003406  3.870302  0.004
C  C110  1  0.56530384  0.06116052  0.87335205  1  0.027101  0.00484  -0.071684  -0.148976  0.003406  3.868823  0.004
C  C111  1  0.56108575  0.43895445  0.87337156  1  0.020161  -0.005839  -0.072397  -0.15027  -0.004281  3.871037  -0.005
C  C112  1  0.95917341  0.51486580  0.46751490  1  -0.068656  -0.003511  0.019164  0.111486  -0.002511  3.949686  -0.003
C  C113  1  0.57334892  0.98513244  0.46754038  1  -0.065407  -0.002427  0.018292  0.109169  -0.00174  3.946526  -0.002
C  C114  1  0.44156451  0.98510546  0.03247453  1  -0.103063  -0.002434  0.019281  0.111995  -0.001742  3.945103  -0.002
C  C115  1  0.52605347  0.51484768  0.03243815  1  -0.00167  -0.003516  0.019074  0.111702  -0.002512  3.945514  -0.003
C  C116  1  0.04083744  0.48513062  0.53248629  1  -0.030719  0.003605  0.01907  0.111407  0.002434  3.949552  0.003
C  C117  1  0.42666215  0.01486490  0.53245824  1  -0.099216  -0.00237  0.018413  0.109341  -0.001693  3.946314  -0.001
C  C118  1  0.55845199  0.01488637  0.96752330  1  -0.062789  -0.002374  0.019314  0.111998  -0.001698  3.94496  -0.001
C  C119  1  0.47394341  0.48515793  0.96756292  1  -0.048469  0.003605  0.019027  0.111772  0.002432  3.945246  0.003
N  N120  1  0.80818285  0.56283263  0.34184366  1  -1.233744  0.082854  -0.345365  -0.237143  0.056715  3.599896  0.071
N  N121  1  0.85012074  0.93707312  0.34199114  1  -1.22438  0.08207  -0.346909  -0.238951  0.056214  3.603895  0.071
N  N122  1  0.21292403  0.93714492  0.15818559  1  -1.219775  0.082162  -0.346355  -0.23805  0.056366  3.601232  0.071
N  N123  1  0.62935738  0.56278676  0.15787488  1  -1.226363  0.082842  -0.346863  -0.240049  0.056764  3.598611  0.071
N  N124  1  0.19183056  0.43717205  0.65815653  1  -1.233313  -0.082191  -0.345314  -0.237155  -0.059527  3.599722  -0.071
N  N125  1  0.14988722  0.06292239  0.65800865  1  -1.224031  0.081521  -0.34688  -0.238895  0.055838  3.603745  0.07
N  N126  1  0.78709335  0.06284783  0.84181280  1  -1.220106  0.081623  -0.346446  -0.23814  0.055993  3.601521  0.07
N  N127  1  0.37063704  0.43721976  0.84212630  1  -1.226134  -0.082163  -0.346776  -0.239803  -0.059567  3.598494  -0.071
O  O128  1  0.86648764  0.59561214  0.13301968  1  -1.095731  0.112224  -0.314927  -0.520113  0.074142  2.321878  0.101
O  O129  1  0.00052990  0.90470292  0.13326680  1  -1.09736  0.11267  -0.31482  -0.520128  0.074377  2.322495  0.101
O  O130  1  0.09518694  0.90474644  0.36691065  1  -1.103917  0.112654  -0.315607  -0.52099  0.074428  2.320833  0.101
O  O131  1  0.53834516  0.59540118  0.36660417  1  -1.105304  0.112279  -0.314531  -0.519654  0.07414  2.32271  0.101
O  O132  1  0.13349266  0.40437971  0.86699250  1  -1.094963  -0.110741  -0.314643  -0.519671  -0.077457  2.321869  -0.1
O  O133  1  0.99948960  0.09529626  0.86673478  1  -1.097111  0.111071  -0.314634  -0.519805  0.073324  2.322203  0.1
O  O134  1  0.90481503  0.09523715  0.63307365  1  -1.103469  0.111016  -0.315555  -0.520999  0.07335  2.320424  0.1
O  O135  1  0.46167765  0.40458606  0.63339440  1  -1.105167  -0.110801  -0.314479  -0.519647  -0.077457  2.322475  -0.1
O  O136  1  0.74276552  0.79881307  0.16275173  1  -1.168685  0.00161  -0.295401  -0.527457  0.000648  2.196035  0.002
O  O137  1  0.09473679  0.70145705  0.16280962  1  -1.169293  0.001729  -0.295352  -0.527206  0.000734  2.194492  0.002
O  O138  1  0.20405297  0.70153884  0.33738360  1  -1.166531  0.001696  -0.296226  -0.529092  0.000713  2.193331  0.002
O  O139  1  0.45931152  0.79865246  0.33734438  1  -1.163231  0.001613  -0.296121  -0.528163  0.000647  2.194794  0.002
O  O140  1  0.25723117  0.20117418  0.83725208  1  -1.168625  -0.001373  -0.295352  -0.52728  -0.00066  2.195925  -0.002
O  O141  1  0.90526531  0.29854488  0.83718430  1  -1.169346  0.001631  -0.295136  -0.526924  0.00067  2.19489  0.002
O  O142  1  0.79596793  0.29844290  0.66261205  1  -1.166434  0.001639  -0.296172  -0.529158  0.000676  2.19336  0.002
O  O143  1  0.54069012  0.20133020  0.66266340  1  -1.162733  -0.00139  -0.296239  -0.528203  -0.000668  2.19459  -0.002
O  O144  1  0.88795355  0.75023136  0.75004356  1  -1.065624  0.002117  -0.260773  -0.382209  0.001333  2.047224  0.002
O  O145  1  0.36277321  0.74991805  0.75006555  1  -1.065682  0.002106  -0.25974  -0.381102  0.001324  2.04696  0.002
O  O146  1  0.11203146  0.24977792  0.24995807  1  -1.065349  -0.001552  -0.260583  -0.382067  -0.001074  2.046479  -0.001
O  O147  1  0.63718030  0.25011143  0.24993472  1  -1.065022  -0.001525  -0.259734  -0.381064  -0.001054  2.046275  -0.001
