# generated using pymatgen
data_PrH20C15NO7
_symmetry_space_group_name_H-M   'P 1'
_cell_length_a   7.82573015
_cell_length_b   10.98014283
_cell_length_c   11.63543297
_cell_angle_alpha   110.01729115
_cell_angle_beta   106.49638300
_cell_angle_gamma   103.35561087
_symmetry_Int_Tables_number   1
_chemical_formula_structural   PrH20C15NO7
_chemical_formula_sum   'Pr2 H40 C30 N2 O14'
_cell_volume   838.84481688
_cell_formula_units_Z   2
loop_
 _symmetry_equiv_pos_site_id
 _symmetry_equiv_pos_as_xyz
  1  'x, y, z'
loop_
 _atom_site_type_symbol
 _atom_site_label
 _atom_site_symmetry_multiplicity
 _atom_site_fract_x
 _atom_site_fract_y
 _atom_site_fract_z
 _atom_site_occupancy
 _atom_site_hle17_bader_spin_density
 _atom_site_hle17_ddec_charge
 _atom_site_hle17_ddec_spin_density
 _atom_site_hle17_ddec_sum_bond_order
 _atom_site_hle17_magmom
 _atom_site_hse06_10hf_bader_spin_density
 _atom_site_hse06_10hf_ddec_charge
 _atom_site_hse06_10hf_ddec_spin_density
 _atom_site_hse06_10hf_ddec_sum_bond_order
 _atom_site_hse06_10hf_magmom
 _atom_site_hse06_bader_spin_density
 _atom_site_hse06_ddec_charge
 _atom_site_hse06_ddec_spin_density
 _atom_site_hse06_ddec_sum_bond_order
 _atom_site_hse06_magmom
 _atom_site_pbe_bader_spin_density
 _atom_site_pbe_cm5_charge
 _atom_site_pbe_ddec_charge
 _atom_site_pbe_ddec_spin_density
 _atom_site_pbe_ddec_sum_bond_order
 _atom_site_pbe_magmom
Pr  Pr0  1  0.28044321  0.02299062  0.07210645  1  0  2.309904  0  1.617815  0  0  2.150177  0  2.072334  0  0  2.238407  0  1.941501  0  0  1.486816  2.117735  0  2.107668  0
Pr  Pr1  1  0.71955895  0.97701088  0.92789547  1  0  2.30987  0  1.617816  0  0  2.150168  0  2.072325  0  0  2.238389  0  1.941503  0  0  1.486819  2.117711  0  2.107686  0
H  H2  1  0.23425961  0.41879070  0.06991625  1  0  0.101233  0  0.943911  0  0  0.116986  0  1.00653  0  0  0.118605  0  1.006857  0  0  0.103229  0.115859  0  1.006292  0
H  H3  1  0.76574418  0.58120873  0.93008618  1  0  0.101253  0  0.943901  0  0  0.116975  0  1.006535  0  0  0.1186  0  1.006865  0  0  0.103215  0.115845  0  1.006297  0
H  H4  1  0.28048080  0.30312408  0.94681985  1  0  0.097976  0  0.929615  0  0  0.1135  0  0.991396  0  0  0.115605  0  0.990384  0  0  0.105524  0.111961  0  0.992276  0
H  H5  1  0.71952163  0.69687532  0.05318060  1  0  0.097929  0  0.9296  0  0  0.11344  0  0.991391  0  0  0.115552  0  0.990381  0  0  0.105495  0.111899  0  0.992268  0
H  H6  1  0.96649497  0.42343976  0.87997686  1  0  0.072482  0  0.934862  0  0  0.092089  0  0.993541  0  0  0.092671  0  0.994863  0  0  0.092542  0.091632  0  0.992604  0
H  H7  1  0.03350566  0.57655865  0.12002552  1  0  0.072476  0  0.934882  0  0  0.092101  0  0.993549  0  0  0.092684  0  0.994869  0  0  0.092519  0.091643  0  0.992616  0
H  H8  1  0.05458094  0.33310482  0.76865865  1  0  0.060374  0  0.932185  0  0  0.080263  0  0.99179  0  0  0.080616  0  0.992963  0  0  0.087927  0.079909  0  0.99105  0
H  H9  1  0.94542607  0.66689567  0.23134643  1  0  0.060339  0  0.932204  0  0  0.080245  0  0.991809  0  0  0.080598  0  0.992981  0  0  0.087933  0.079893  0  0.991068  0
H  H10  1  0.83244389  0.80090692  0.51931328  1  0  0.097652  0  0.956137  0  0  0.110525  0  1.019277  0  0  0.111891  0  1.02062  0  0  0.09432  0.109577  0  1.018269  0
H  H11  1  0.16755380  0.19908833  0.48068584  1  0  0.097651  0  0.956075  0  0  0.110526  0  1.019237  0  0  0.111889  0  1.020579  0  0  0.094313  0.109579  0  1.01823  0
H  H12  1  0.08485147  0.83877724  0.57630216  1  0  0.096537  0  0.942838  0  0  0.112763  0  1.001072  0  0  0.11492  0  0.999718  0  0  0.096687  0.111208  0  1.001986  0
H  H13  1  0.91514624  0.16121803  0.42369783  1  0  0.096508  0  0.942848  0  0  0.11274  0  1.001103  0  0  0.114894  0  0.999747  0  0  0.09668  0.111184  0  1.002018  0
H  H14  1  0.08057285  0.64621517  0.82717696  1  0  0.109572  0  0.921837  0  0  0.126448  0  0.974884  0  0  0.128524  0  0.974624  0  0  0.107776  0.124848  0  0.97526  0
H  H15  1  0.91942745  0.35378529  0.17282428  1  0  0.10956  0  0.921856  0  0  0.126441  0  0.974896  0  0  0.128524  0  0.974627  0  0  0.107774  0.124842  0  0.975273  0
H  H16  1  0.15531840  0.53796134  0.71340474  1  0  0.095165  0  0.922513  0  0  0.111353  0  0.978803  0  0  0.113604  0  0.977576  0  0  0.097566  0.109681  0  0.979704  0
H  H17  1  0.84468107  0.46204014  0.28659581  1  0  0.095145  0  0.922516  0  0  0.111334  0  0.978808  0  0  0.113587  0  0.977583  0  0  0.097559  0.109663  0  0.979708  0
H  H18  1  0.14119634  0.09281709  0.64482116  1  0  0.056214  0  0.956814  0  0  0.073868  0  1.021541  0  0  0.074211  0  1.022626  0  0  0.087089  0.073636  0  1.020684  0
H  H19  1  0.85880131  0.90717812  0.35517536  1  0  0.056199  0  0.956843  0  0  0.073813  0  1.021606  0  0  0.074155  0  1.022696  0  0  0.087059  0.073581  0  1.02075  0
H  H20  1  0.89186820  0.05375311  0.58563897  1  0  0.064564  0  0.942392  0  0  0.083167  0  1.003812  0  0  0.083872  0  1.004364  0  0  0.091425  0.082577  0  1.003484  0
H  H21  1  0.10812894  0.94624107  0.41435799  1  0  0.064627  0  0.942444  0  0  0.083236  0  1.003827  0  0  0.083959  0  1.004359  0  0  0.091454  0.082647  0  1.0035  0
H  H22  1  0.28404810  0.61698060  0.01257891  1  0  0.073453  0  0.955507  0  0  0.088448  0  1.023123  0  0  0.089632  0  1.023407  0  0  0.093166  0.08762  0  1.022844  0
H  H23  1  0.71595405  0.38302090  0.98742300  1  0  0.073413  0  0.95557  0  0  0.088435  0  1.023153  0  0  0.08962  0  1.023435  0  0  0.093149  0.087609  0  1.022874  0
H  H24  1  0.38464098  0.52437752  0.91112990  1  0  0.051536  0  0.955857  0  0  0.071056  0  1.021156  0  0  0.071039  0  1.022557  0  0  0.085999  0.070975  0  1.020264  0
H  H25  1  0.61536115  0.47562395  0.08887028  1  0  0.05153  0  0.955867  0  0  0.071047  0  1.021173  0  0  0.071029  0  1.022576  0  0  0.085999  0.070967  0  1.02028  0
H  H26  1  0.51885693  0.94993958  0.28158817  1  0  0.396361  0  0.922055  0  0  0.354123  0  1.004995  0  0  0.365854  0  0.98846  0  0  0.28491  0.345808  0  1.016763  0
H  H27  1  0.48114492  0.05006398  0.71841347  1  0  0.396339  0  0.922098  0  0  0.354106  0  1.005027  0  0  0.365837  0  0.988494  0  0  0.284893  0.34579  0  1.016795  0
H  H28  1  0.66195456  0.02308367  0.22520299  1  0  0.421596  0  0.887735  0  0  0.391155  0  0.952041  0  0  0.402385  0  0.935894  0  0  0.292258  0.383116  0  0.963763  0
H  H29  1  0.33804542  0.97691883  0.77479711  1  0  0.421665  0  0.88766  0  0  0.391226  0  0.95196  0  0  0.402457  0  0.935812  0  0  0.292282  0.383186  0  0.963683  0
H  H30  1  0.48144130  0.49071926  0.74284718  1  0  0.112746  0  0.981429  0  0  0.12137  0  1.045872  0  0  0.124637  0  1.04508  0  0  0.105351  0.118868  0  1.046908  0
H  H31  1  0.51855814  0.50928219  0.25715163  1  0  0.112747  0  0.981454  0  0  0.121396  0  1.045872  0  0  0.124666  0  1.045079  0  0  0.105358  0.118894  0  1.046909  0
H  H32  1  0.67336822  0.27240123  0.45053620  1  0  0.115091  0  0.956737  0  0  0.123808  0  1.019249  0  0  0.12737  0  1.017712  0  0  0.110582  0.121194  0  1.020544  0
H  H33  1  0.32662888  0.72759817  0.54946325  1  0  0.115032  0  0.956755  0  0  0.12374  0  1.01928  0  0  0.127302  0  1.017743  0  0  0.110562  0.121125  0  1.020575  0
H  H34  1  0.42834557  0.28511932  0.79688729  1  0  0.06124  0  0.947807  0  0  0.072665  0  1.01187  0  0  0.074877  0  1.009784  0  0  0.111515  0.071078  0  1.013367  0
H  H35  1  0.57165255  0.71488213  0.20311127  1  0  0.061229  0  0.947801  0  0  0.072653  0  1.011859  0  0  0.074865  0  1.009774  0  0  0.111503  0.071066  0  1.013357  0
H  H36  1  0.62262077  0.08214173  0.51966072  1  0  0.06668  0  0.975635  0  0  0.073965  0  1.044355  0  0  0.076248  0  1.042252  0  0  0.115151  0.072445  0  1.045641  0
H  H37  1  0.37737922  0.91786079  0.48034024  1  0  0.066677  0  0.975636  0  0  0.073968  0  1.044367  0  0  0.076248  0  1.042272  0  0  0.115144  0.072449  0  1.045649  0
H  H38  1  0.70017369  0.51565570  0.50046934  1  0  0.078004  0  0.926969  0  0  0.096765  0  0.984551  0  0  0.097886  0  0.984135  0  0  0.095156  0.095988  0  0.984794  0
H  H39  1  0.29982361  0.48434679  0.49952939  1  0  0.077991  0  0.926951  0  0  0.096763  0  0.98453  0  0  0.097881  0  0.984111  0  0  0.095155  0.095986  0  0.984774  0
H  H40  1  0.64966465  0.61505622  0.63550755  1  0  0.104052  0  0.926671  0  0  0.120883  0  0.984279  0  0  0.122679  0  0.983809  0  0  0.10638  0.119648  0  0.98459  0
H  H41  1  0.35033400  0.38494628  0.36449230  1  0  0.10407  0  0.926675  0  0  0.120893  0  0.984297  0  0  0.122687  0  0.983826  0  0  0.106387  0.119659  0  0.984609  0
C  C42  1  0.98477823  0.91496878  0.73126926  1  0  0.762994  0  3.787486  0  0  0.723686  0  4.076617  0  0  0.757824  0  4.068321  0  0  0.237694  0.700643  0  4.082829  0
C  C43  1  0.01522048  0.08502852  0.26872897  1  0  0.762915  0  3.787589  0  0  0.723648  0  4.076695  0  0  0.757785  0  4.068396  0  0  0.237685  0.700606  0  4.082911  0
C  C44  1  0.16712571  0.34040647  0.96491177  1  0  -0.258975  0  3.667184  0  0  -0.296779  0  3.917888  0  0  -0.302055  0  3.925475  0  0  -0.158487  -0.292945  0  3.912037  0
C  C45  1  0.83287591  0.65959396  0.03508886  1  0  -0.258925  0  3.667084  0  0  -0.296653  0  3.917739  0  0  -0.301963  0  3.925361  0  0  -0.158433  -0.292819  0  3.9119  0
C  C46  1  0.09688588  0.40596370  0.87327033  1  0  -0.076334  0  3.682763  0  0  -0.118001  0  3.943517  0  0  -0.11812  0  3.957173  0  0  -0.165374  -0.117654  0  3.93373  0
C  C47  1  0.90311761  0.59403780  0.12673183  1  0  -0.076302  0  3.682736  0  0  -0.118034  0  3.943526  0  0  -0.118144  0  3.95719  0  0  -0.16537  -0.117691  0  3.933739  0
C  C48  1  0.97337669  0.88001222  0.59081200  1  0  -0.274781  0  3.663128  0  0  -0.312284  0  3.907984  0  0  -0.317705  0  3.914672  0  0  -0.168479  -0.308259  0  3.902562  0
C  C49  1  0.02662236  0.11998305  0.40918824  1  0  -0.274672  0  3.662964  0  0  -0.31224  0  3.907886  0  0  -0.317648  0  3.914557  0  0  -0.168462  -0.308218  0  3.902469  0
C  C50  1  0.19926161  0.61191864  0.81765846  1  0  -0.253424  0  3.651458  0  0  -0.290651  0  3.900508  0  0  -0.295591  0  3.906927  0  0  -0.157938  -0.286957  0  3.895547  0
C  C51  1  0.80074001  0.38808180  0.18234216  1  0  -0.253371  0  3.651464  0  0  -0.290609  0  3.90051  0  0  -0.295558  0  3.906935  0  0  -0.157912  -0.286916  0  3.89555  0
C  C52  1  0.01558226  0.22135732  0.95773109  1  0  0.725352  0  3.840105  0  0  0.683429  0  4.135168  0  0  0.716269  0  4.131093  0  0  0.210198  0.660844  0  4.140544  0
C  C53  1  0.98441882  0.77864206  0.04226824  1  0  0.72545  0  3.840053  0  0  0.683467  0  4.135171  0  0  0.716324  0  4.131087  0  0  0.21022  0.66088  0  4.140547  0
C  C54  1  0.00281218  0.01254748  0.56922357  1  0  -0.076276  0  3.670605  0  0  -0.115537  0  3.930741  0  0  -0.115955  0  3.944784  0  0  -0.161651  -0.114948  0  3.920652  0
C  C55  1  0.99718579  0.98744568  0.43077409  1  0  -0.076399  0  3.670679  0  0  -0.1156  0  3.930804  0  0  -0.116032  0  3.944837  0  0  -0.161658  -0.115011  0  3.920717  0
C  C56  1  0.25184008  0.54285747  0.91054210  1  0  -0.093104  0  3.677945  0  0  -0.134859  0  3.941398  0  0  -0.135552  0  3.955257  0  0  -0.163134  -0.134092  0  3.931346  0
C  C57  1  0.74816207  0.45714402  0.08945981  1  0  -0.093085  0  3.678052  0  0  -0.134853  0  3.941516  0  0  -0.135545  0  3.955377  0  0  -0.163126  -0.134085  0  3.931464  0
C  C58  1  0.37289461  0.73532891  0.85446977  1  0  0.728558  0  3.829392  0  0  0.688044  0  4.1238  0  0  0.720982  0  4.119492  0  0  0.214917  0.665408  0  4.129516  0
C  C59  1  0.62710516  0.26467049  0.14553018  1  0  0.728571  0  3.829353  0  0  0.688073  0  4.123742  0  0  0.721009  0  4.11944  0  0  0.214948  0.665436  0  4.129464  0
C  C60  1  0.51493013  0.40119347  0.69248817  1  0  -0.198185  0  3.730799  0  0  -0.214409  0  3.97865  0  0  -0.222465  0  4.000053  0  0  -0.092196  -0.209561  0  3.964792  0
C  C61  1  0.48506665  0.59880798  0.30751015  1  0  -0.198124  0  3.730865  0  0  -0.214403  0  3.97868  0  0  -0.222464  0  4.000088  0  0  -0.092194  -0.209556  0  3.964825  0
C  C62  1  0.62551727  0.28257133  0.53149829  1  0  -0.168053  0  3.70162  0  0  -0.186376  0  3.949667  0  0  -0.193841  0  3.970341  0  0  -0.079065  -0.180962  0  3.93502  0
C  C63  1  0.37447926  0.71742698  0.46849814  1  0  -0.167906  0  3.701638  0  0  -0.186241  0  3.949647  0  0  -0.193708  0  3.970323  0  0  -0.07905  -0.180824  0  3.93499  0
C  C64  1  0.48505728  0.28730842  0.72160827  1  0  0.112296  0  3.765933  0  0  0.082125  0  4.026419  0  0  0.088176  0  4.0437  0  0  0.04085  0.078274  0  4.014883  0
C  C65  1  0.51494134  0.71269406  0.27838985  1  0  0.112301  0  3.765926  0  0  0.082125  0  4.026418  0  0  0.088176  0  4.0437  0  0  0.040855  0.078274  0  4.014887  0
C  C66  1  0.58521062  0.39936223  0.59390088  1  0  0.156512  0  3.73468  0  0  0.173293  0  3.969857  0  0  0.177847  0  3.992945  0  0  0.014447  0.170502  0  3.953867  0
C  C67  1  0.41478429  0.60063817  0.40609589  1  0  0.156404  0  3.734786  0  0  0.173278  0  3.969848  0  0  0.177831  0  3.992932  0  0  0.014455  0.170486  0  3.953859  0
C  C68  1  0.59298449  0.17416910  0.56827182  1  0  0.132161  0  3.71444  0  0  0.101159  0  3.973014  0  0  0.107926  0  3.989326  0  0  0.049815  0.096978  0  3.961203  0
C  C69  1  0.40701415  0.82583339  0.43172716  1  0  0.132121  0  3.714457  0  0  0.101094  0  3.973034  0  0  0.10786  0  3.989347  0  0  0.049809  0.096915  0  3.961221  0
C  C70  1  0.59969882  0.51321113  0.55002405  1  0  -0.151545  0  3.66746  0  0  -0.194957  0  3.917192  0  0  -0.196606  0  3.9283  0  0  -0.151107  -0.193607  0  3.909003  0
C  C71  1  0.40030198  0.48679034  0.44997587  1  0  -0.151565  0  3.667468  0  0  -0.195008  0  3.917161  0  0  -0.196639  0  3.92825  0  0  -0.151135  -0.193661  0  3.908977  0
N  N72  1  0.52130862  0.17413795  0.66034571  1  0  -0.307769  0  3.169287  0  0  -0.245218  0  3.418335  0  0  -0.258676  0  3.433006  0  0  -0.30577  -0.23621  0  3.408041  0
N  N73  1  0.47869187  0.82586558  0.33965395  1  0  -0.307804  0  3.169324  0  0  -0.245237  0  3.418374  0  0  -0.258695  0  3.433045  0  0  -0.305771  -0.236232  0  3.408082  0
O  O74  1  0.06867026  0.15267989  0.02297076  1  0  -0.85349  0  2.11229  0  0  -0.798206  0  2.377002  0  0  -0.832749  0  2.364172  0  0  -0.448627  -0.781028  0  2.384478  0
O  O75  1  0.93132661  0.84731639  0.97702767  1  0  -0.853538  0  2.112312  0  0  -0.798266  0  2.37707  0  0  -0.832811  0  2.364232  0  0  -0.448605  -0.781087  0  2.384546  0
O  O76  1  0.15208036  0.96072600  0.82431217  1  0  -0.7538  0  2.023087  0  0  -0.692408  0  2.260176  0  0  -0.724141  0  2.249023  0  0  -0.369996  -0.673874  0  2.266697  0
O  O77  1  0.84791940  0.03927340  0.17568778  1  0  -0.753747  0  2.023142  0  0  -0.692351  0  2.260205  0  0  -0.724087  0  2.249058  0  0  -0.369976  -0.673818  0  2.266726  0
O  O78  1  0.54804822  0.02306475  0.24798903  1  0  -0.919377  0  1.892187  0  0  -0.86785  0  2.101569  0  0  -0.892279  0  2.065367  0  0  -0.655036  -0.854263  0  2.124993  0
O  O79  1  0.45195232  0.97693882  0.75201323  1  0  -0.919416  0  1.89213  0  0  -0.867882  0  2.101499  0  0  -0.89231  0  2.065295  0  0  -0.655033  -0.854315  0  2.124973  0
O  O80  1  0.41154030  0.85360931  0.95116580  1  0  -0.824775  0  2.063574  0  0  -0.76435  0  2.320306  0  0  -0.798817  0  2.307686  0  0  -0.435094  -0.747096  0  2.327835  0
O  O81  1  0.58845998  0.14639111  0.04883370  1  0  -0.824782  0  2.063586  0  0  -0.764369  0  2.320325  0  0  -0.798834  0  2.307706  0  0  -0.435096  -0.747113  0  2.327856  0
O  O82  1  0.83109881  0.90325754  0.74932372  1  0  -0.712359  0  1.984696  0  0  -0.663935  0  2.234296  0  0  -0.693716  0  2.222388  0  0  -0.391166  -0.647303  0  2.240762  0
O  O83  1  0.16890200  0.09674394  0.25067707  1  0  -0.712354  0  1.984736  0  0  -0.663948  0  2.234333  0  0  -0.693731  0  2.222426  0  0  -0.391173  -0.647319  0  2.240798  0
O  O84  1  0.48570829  0.72057954  0.79567586  1  0  -0.677829  0  1.912529  0  0  -0.630019  0  2.146556  0  0  -0.657132  0  2.13658  0  0  -0.358763  -0.614386  0  2.152987  0
O  O85  1  0.51429303  0.27942297  0.20432449  1  0  -0.677845  0  1.912519  0  0  -0.630034  0  2.146538  0  0  -0.657148  0  2.136563  0  0  -0.358801  -0.614406  0  2.152973  0
O  O86  1  0.84053546  0.19144988  0.89259978  1  0  -0.660144  0  1.969081  0  0  -0.611231  0  2.204968  0  0  -0.639116  0  2.198157  0  0  -0.357411  -0.594798  0  2.208778  0
O  O87  1  0.15946694  0.80854949  0.10739894  1  0  -0.660263  0  1.969128  0  0  -0.611245  0  2.204945  0  0  -0.639132  0  2.198125  0  0  -0.357425  -0.594814  0  2.208756  0
