# generated using pymatgen
data_Zr3H10C26Cl5O18
_symmetry_space_group_name_H-M   'P 1'
_cell_length_a   14.79376694
_cell_length_b   14.78814005
_cell_length_c   14.80379078
_cell_angle_alpha   60.24017494
_cell_angle_beta   59.91115581
_cell_angle_gamma   60.10683009
_symmetry_Int_Tables_number   1
_chemical_formula_structural   Zr3H10C26Cl5O18
_chemical_formula_sum   'Zr6 H20 C52 Cl10 O36'
_cell_volume   2294.50543200
_cell_formula_units_Z   2
loop_
 _symmetry_equiv_pos_site_id
 _symmetry_equiv_pos_as_xyz
  1  'x, y, z'
loop_
 _atom_site_type_symbol
 _atom_site_label
 _atom_site_symmetry_multiplicity
 _atom_site_fract_x
 _atom_site_fract_y
 _atom_site_fract_z
 _atom_site_occupancy
 _atom_site_pbe_bader_charge
 _atom_site_pbe_bader_spin_density
 _atom_site_pbe_cm5_charge
 _atom_site_pbe_ddec_charge
 _atom_site_pbe_ddec_spin_density
 _atom_site_pbe_ddec_sum_bond_order
 _atom_site_pbe_magmom
Zr  Zr0  1  0.87832175  0.88286051  0.61659487  1  2.635693  0  1.626067  2.378161  0  2.743805  0
Zr  Zr1  1  0.12278364  0.11660927  0.38220871  1  2.632976  0  1.631454  2.382265  0  2.746544  0
Zr  Zr2  1  0.11723466  0.87959804  0.62075291  1  2.637801  0  1.631929  2.379314  0  2.744806  0
Zr  Zr3  1  0.88341224  0.12109431  0.37805256  1  2.63543  0  1.626282  2.374202  0  2.748589  0
Zr  Zr4  1  0.11974394  0.88051153  0.37984297  1  2.638135  0  1.630085  2.379521  0  2.759671  0
Zr  Zr5  1  0.88017889  0.11984054  0.61911484  1  2.636349  0  1.625816  2.379764  0  2.743639  0
H  H6  1  0.09085953  0.71824704  0.59314943  1  0.596579  0  0.33015  0.42268  0  0.85804  0
H  H7  1  0.09900075  0.09216926  0.21742318  1  0.5998  0  0.333174  0.426878  0  0.850271  0
H  H8  1  0.09341378  0.09093582  0.59782362  1  0.604372  0  0.331568  0.424829  0  0.85308  0
H  H9  1  0.71777992  0.09874026  0.58992628  1  0.596088  0  0.331815  0.425678  0  0.851396  0
H  H10  1  0.16697151  0.54160748  0.43638083  1  0.11471  0  0.108286  0.125407  0  1.011215  0
H  H11  1  0.82648913  0.47021329  0.54573878  1  0.118692  0  0.102521  0.121122  0  1.034926  0
H  H12  1  0.64428540  0.07016451  0.95613298  1  0.1352  0  0.104639  0.122568  0  1.029805  0
H  H13  1  0.36502753  0.91683722  0.05235359  1  0.124235  0  0.107115  0.123856  0  1.018289  0
H  H14  1  0.84307664  0.11780819  0.11335578  1  0.147522  0  0.108434  0.126632  0  1.018645  0
H  H15  1  0.13678880  0.86244181  0.90579488  1  0.138426  0  0.114206  0.141248  0  1.014612  0
H  H16  1  0.59468638  0.40711306  0.36130674  1  0.14567  0  0.11089  0.127593  0  1.014606  0
H  H17  1  0.42908401  0.61752011  0.61322458  1  0.133253  0  0.111084  0.13385  0  1.013582  0
H  H18  1  0.73740972  0.63602002  0.97059596  1  0.069363  0  0.103518  0.118992  0  0.974888  0
H  H19  1  0.82092103  0.55112799  0.88512661  1  0.059431  0  0.104432  0.118894  0  0.971257  0
H  H20  1  0.82245154  0.38041304  0.05489572  1  0.058591  0  0.103  0.117071  0  0.974792  0
H  H21  1  0.73952711  0.46512591  0.14074530  1  0.054682  0  0.100692  0.115036  0  0.983566  0
H  H22  1  0.59943098  0.86197832  0.63111218  1  0.116223  0  0.104136  0.127931  0  1.02079  0
H  H23  1  0.40798819  0.13167806  0.36030606  1  0.115087  0  0.10598  0.131462  0  1.017006  0
H  H24  1  0.12465286  0.46734967  0.18185285  1  0.612711  0  0.345427  0.383385  0  0.849501  0
H  H25  1  0.26982787  0.50591878  0.83928022  1  0.617788  0  0.340457  0.379944  0  0.859844  0
C  C26  1  0.99021778  0.70450682  0.49338897  1  1.605114  0  0.238254  0.655459  0  4.091441  0
C  C27  1  0.31155174  0.99384807  0.20419771  1  1.558676  0  0.239477  0.655333  0  4.08555  0
C  C28  1  0.00361698  0.30365833  0.49604914  1  1.600583  0  0.234291  0.650149  0  4.10277  0
C  C29  1  0.69531062  0.99740919  0.80199257  1  1.587083  0  0.237403  0.653021  0  4.089525  0
C  C30  1  0.99294816  0.70277741  0.80792080  1  1.566059  0  0.237089  0.642803  0  4.111523  0
C  C31  1  0.70035024  0.00519309  0.48801925  1  1.583007  0  0.237051  0.651697  0  4.082569  0
C  C32  1  0.00027558  0.30503810  0.19902871  1  1.564328  0  0.234751  0.641244  0  4.120406  0
C  C33  1  0.30647046  0.98923629  0.50414464  1  1.576826  0  0.237424  0.650899  0  4.084428  0
C  C34  1  0.30714958  0.70089341  0.49173365  1  1.592697  0  0.235374  0.647728  0  4.09507  0
C  C35  1  0.98697488  0.99724669  0.81048946  1  1.575739  0  0.239628  0.653343  0  4.081329  0
C  C36  1  0.70670136  0.31317527  0.49377160  1  1.577846  0  0.236209  0.64882  0  4.092392  0
C  C37  1  0.00071190  0.99321527  0.19924848  1  1.581056  0  0.237205  0.653392  0  4.084929  0
C  C38  1  0.00415242  0.40601778  0.49322981  1  0.027812  0  -0.014443  -0.073209  0  3.936338  0
C  C39  1  0.98916356  0.60515233  0.49057015  1  -0.026997  0  -0.011803  -0.069017  0  3.92601  0
C  C40  1  0.10088885  0.42652762  0.46215747  1  0.041416  0  0.016709  0.123223  0  4.031484  0
C  C41  1  0.89267521  0.58513701  0.52015952  1  0.094154  0  0.019055  0.129651  0  4.027662  0
C  C42  1  0.09229120  0.52550768  0.46051002  1  0.05954  0  -0.085259  -0.149886  0  3.952043  0
C  C43  1  0.90113951  0.48625858  0.52182559  1  0.018601  0  -0.086019  -0.148888  0  3.952355  0
C  C44  1  0.41387586  0.99307641  0.10408812  1  0.035449  0  -0.008983  -0.068616  0  3.913611  0
C  C45  1  0.59523570  0.99440859  0.90422416  1  -0.00388  0  -0.012044  -0.072587  0  3.924959  0
C  C46  1  0.49402856  0.03600323  0.07679566  1  0.066224  0  0.025683  0.141051  0  4.007649  0
C  C47  1  0.51558146  0.95055458  0.93199441  1  0.050322  0  0.018814  0.128096  0  4.022484  0
C  C48  1  0.58248892  0.03662590  0.97767772  1  0.038153  0  -0.080747  -0.138979  0  3.932792  0
C  C49  1  0.42697073  0.95015863  0.03092703  1  0.042911  0  -0.084992  -0.148519  0  3.950832  0
C  C50  1  0.98303011  0.99642223  0.91409628  1  0.001712  0  -0.010942  -0.074148  0  3.903871  0
C  C51  1  0.99945689  0.98763936  0.10159706  1  -0.000615  0  -0.012593  -0.076007  0  3.916624  0
C  C52  1  0.89834016  0.06846291  0.97474981  1  0.04094  0  0.020833  0.133493  0  4.011516  0
C  C53  1  0.08312622  0.91434712  0.04211622  1  0.072185  0  0.024662  0.137923  0  3.995402  0
C  C54  1  0.90804559  0.06253856  0.06647973  1  0.022056  0  -0.087521  -0.155013  0  3.964206  0
C  C55  1  0.07314185  0.91981544  0.95065367  1  0.079627  0  -0.078868  -0.137414  0  3.927656  0
C  C56  1  0.41327707  0.60487824  0.48424278  1  0.023231  0  -0.010993  -0.071697  0  3.910242  0
C  C57  1  0.60920559  0.41814434  0.49177219  1  0.003309  0  -0.012722  -0.074784  0  3.91306  0
C  C58  1  0.46228161  0.54571387  0.41065736  1  0.018614  0  0.021095  0.133206  0  4.011445  0
C  C59  1  0.56230036  0.47961760  0.56274007  1  0.074235  0  0.022273  0.133264  0  4.010213  0
C  C60  1  0.55814338  0.45437589  0.41608500  1  0.005746  0  -0.085602  -0.152477  0  3.963036  0
C  C61  1  0.46605936  0.57074740  0.55780023  1  0.042425  0  -0.084786  -0.152906  0  3.950436  0
C  C62  1  0.99264653  0.60541377  0.91101282  1  0.082697  0  -0.005777  -0.090577  0  3.936696  0
C  C63  1  0.99851968  0.40714166  0.10096519  1  -0.056903  0  -0.008097  -0.094904  0  3.952901  0
C  C64  1  0.91270075  0.55529433  0.96306895  1  -0.03902  0  0.003194  0.07356  0  3.88064  0
C  C65  1  0.08237092  0.45540083  0.04805013  1  0.010271  0  -0.010265  -0.106943  0  3.968887  0
C  C66  1  0.91441239  0.46031449  0.05625709  1  0.022843  0  0.002836  0.075729  0  3.874106  0
C  C67  1  0.07742841  0.55446910  0.95759554  1  -0.070225  0  -0.007622  -0.099044  0  3.954699  0
C  C68  1  0.80917626  0.56161834  0.95916637  1  0.006405  0  -0.14514  -0.198115  0  3.857072  0
C  C69  1  0.81046374  0.45464628  0.06533040  1  -0.008785  0  -0.14572  -0.195813  0  3.857889  0
C  C70  1  0.40864737  0.98767856  0.50380899  1  0.080218  0  -0.011837  -0.071287  0  3.90686  0
C  C71  1  0.59985599  0.00492429  0.48669192  1  0.07439  0  -0.012576  -0.074256  0  3.909363  0
C  C72  1  0.46371632  0.91004713  0.58133165  1  0.075226  0  0.021573  0.134426  0  4.006891  0
C  C73  1  0.54500207  0.08211339  0.40894220  1  0.058465  0  0.021618  0.138196  0  4.000971  0
C  C74  1  0.55695705  0.92074155  0.57132915  1  -0.015245  0  -0.091031  -0.156645  0  3.977188  0
C  C75  1  0.45121721  0.07214339  0.41936823  1  -0.018423  0  -0.090274  -0.157221  0  3.973638  0
C  C76  1  0.18822205  0.39464414  0.07571115  1  1.540328  0  0.228843  0.582385  0  4.152059  0
C  C77  1  0.16062899  0.60861517  0.91829119  1  1.539736  0  0.229182  0.582965  0  4.145519  0
Cl  Cl78  1  0.23180882  0.33088491  0.43139788  1  -0.183748  0  0.000611  -0.061996  0  1.544949  0
Cl  Cl79  1  0.76217759  0.68115527  0.55016392  1  -0.182019  0  0.004242  -0.062027  0  1.575535  0
Cl  Cl80  1  0.49192225  0.08447095  0.16247042  1  -0.172845  0  0.011044  -0.053606  0  1.580781  0
Cl  Cl81  1  0.51785686  0.90110890  0.84646724  1  -0.188109  0  -0.003114  -0.070987  0  1.540754  0
Cl  Cl82  1  0.77994292  0.16599770  0.94383223  1  -0.179388  0  0.008439  -0.058444  0  1.541343  0
Cl  Cl83  1  0.20141180  0.81690780  0.07288370  1  -0.170441  0  0.00857  -0.05053  0  1.519199  0
Cl  Cl84  1  0.41047372  0.57624569  0.31327645  1  -0.173705  0  0.006377  -0.056186  0  1.51341  0
Cl  Cl85  1  0.61609023  0.45005883  0.65798023  1  -0.169547  0  0.019724  -0.042497  0  1.548992  0
Cl  Cl86  1  0.42373977  0.80054826  0.69022532  1  -0.164289  0  0.014786  -0.040798  0  1.528871  0
Cl  Cl87  1  0.58548311  0.19103234  0.29893828  1  -0.175892  0  0.004811  -0.056226  0  1.517923  0
O  O88  1  0.91538952  0.74162102  0.57235773  1  -1.184025  0  -0.356066  -0.622519  0  2.303595  0
O  O89  1  0.27019929  0.07113004  0.24341475  1  -1.162747  0  -0.354728  -0.61022  0  2.329656  0
O  O90  1  0.07990251  0.26331364  0.41972331  1  -1.181982  0  -0.357971  -0.623168  0  2.336489  0
O  O91  1  0.73625292  0.92160821  0.76075451  1  -1.179793  0  -0.361692  -0.624799  0  2.346225  0
O  O92  1  0.07320806  0.73903344  0.76427701  1  -1.176354  0  -0.352997  -0.613959  0  2.342949  0
O  O93  1  0.74006886  0.08234416  0.41444895  1  -1.172435  0  -0.358804  -0.619685  0  2.346908  0
O  O94  1  0.92450868  0.26519656  0.23525919  1  -1.173143  0  -0.351227  -0.605228  0  2.281462  0
O  O95  1  0.26353050  0.91526462  0.58066943  1  -1.177169  0  -0.35753  -0.616958  0  2.348371  0
O  O96  1  0.26358313  0.73905724  0.41900367  1  -1.179984  0  -0.360458  -0.62013  0  2.372016  0
O  O97  1  0.91370701  0.07510044  0.76728924  1  -1.173304  0  -0.362633  -0.625308  0  2.358439  0
O  O98  1  0.74324950  0.26876376  0.57318858  1  -1.174251  0  -0.357609  -0.618889  0  2.357964  0
O  O99  1  0.07752278  0.91954850  0.23893855  1  -1.176139  0  -0.35997  -0.622111  0  2.372298  0
O  O100  1  0.06561121  0.92164026  0.77037929  1  -1.17807  0  -0.343602  -0.597931  0  2.278809  0
O  O101  1  0.74395663  0.27391172  0.41734924  1  -1.169779  0  -0.346601  -0.608768  0  2.270764  0
O  O102  1  0.92504386  0.07252013  0.23561868  1  -1.181249  0  -0.349908  -0.611086  0  2.272591  0
O  O103  1  0.26711586  0.73646574  0.57147857  1  -1.173662  0  -0.344413  -0.60429  0  2.27578  0
O  O104  1  0.91663018  0.73989696  0.76928425  1  -1.166359  0  -0.335346  -0.5919  0  2.240459  0
O  O105  1  0.26838403  0.06678076  0.42741029  1  -1.171887  0  -0.34943  -0.612806  0  2.318969  0
O  O106  1  0.07620132  0.26557770  0.23906621  1  -1.170335  0  -0.337678  -0.60215  0  2.317288  0
O  O107  1  0.73836014  0.92785350  0.56486150  1  -1.182663  0  -0.349657  -0.613266  0  2.31984  0
O  O108  1  0.73325792  0.07460497  0.76467130  1  -1.168427  0  -0.344473  -0.602177  0  2.260151  0
O  O109  1  0.06978025  0.74041626  0.41915194  1  -1.177736  0  -0.346362  -0.603899  0  2.272174  0
O  O110  1  0.27062859  0.91921454  0.23998477  1  -1.174079  0  -0.349308  -0.610079  0  2.274763  0
O  O111  1  0.92571040  0.26663514  0.57323556  1  -1.177558  0  -0.342772  -0.600291  0  2.259201  0
O  O112  1  0.79807385  0.07077511  0.56394178  1  -1.224165  0  -0.693519  -1.06743  0  2.356491  0
O  O113  1  0.06677984  0.06576493  0.56933249  1  -1.229263  0  -0.693715  -1.068693  0  2.359345  0
O  O114  1  0.07053076  0.06668276  0.29755988  1  -1.226264  0  -0.694466  -1.072087  0  2.358356  0
O  O115  1  0.06460724  0.79828544  0.56685286  1  -1.227018  0  -0.693502  -1.072003  0  2.358101  0
O  O116  1  0.14883238  0.94867233  0.45192201  1  -1.199557  0  -0.7925  -1.150047  0  2.133241  0
O  O117  1  0.95034446  0.95220353  0.44838569  1  -1.200658  0  -0.791616  -1.147649  0  2.128974  0
O  O118  1  0.95289037  0.14863834  0.44973300  1  -1.196528  0  -0.790135  -1.151876  0  2.124718  0
O  O119  1  0.94828084  0.95089180  0.64789037  1  -1.199387  0  -0.790499  -1.151362  0  2.129679  0
O  O120  1  0.19617580  0.41901375  0.14767796  1  -1.089557  0  -0.32232  -0.452714  0  2.233879  0
O  O121  1  0.26761989  0.33273342  0.02634413  1  -1.10251  0  -0.283437  -0.455934  0  2.055345  0
O  O122  1  0.26371369  0.56927477  0.84981860  1  -1.097958  0  -0.326796  -0.461655  0  2.233832  0
O  O123  1  0.13912561  0.67886294  0.95285410  1  -1.096992  0  -0.268777  -0.444025  0  2.115854  0
