# generated using pymatgen
data_CuH13C18N3O4
_symmetry_space_group_name_H-M   'P 1'
_cell_length_a   9.95370987
_cell_length_b   9.95372156
_cell_length_c   19.91515467
_cell_angle_alpha   79.64740381
_cell_angle_beta   79.64735631
_cell_angle_gamma   71.29385524
_symmetry_Int_Tables_number   1
_chemical_formula_structural   CuH13C18N3O4
_chemical_formula_sum   'Cu4 H52 C72 N12 O16'
_cell_volume   1822.62342520
_cell_formula_units_Z   4
loop_
 _symmetry_equiv_pos_site_id
 _symmetry_equiv_pos_as_xyz
  1  'x, y, z'
loop_
 _atom_site_type_symbol
 _atom_site_label
 _atom_site_symmetry_multiplicity
 _atom_site_fract_x
 _atom_site_fract_y
 _atom_site_fract_z
 _atom_site_occupancy
 _atom_site_pbe_bader_charge
 _atom_site_pbe_bader_spin_density
 _atom_site_pbe_cm5_charge
 _atom_site_pbe_ddec_charge
 _atom_site_pbe_ddec_spin_density
 _atom_site_pbe_ddec_sum_bond_order
 _atom_site_pbe_magmom
Cu  Cu0  1  0.07927976  0.58122622  0.06220158  1  1.094126  0.583553  0.732523  0.786693  0.740033  2.257578  0.582
Cu  Cu1  1  0.41877307  0.92071861  0.43779704  1  1.094118  0.583551  0.732505  0.786702  0.740031  2.257548  0.582
Cu  Cu2  1  0.92071974  0.41877448  0.93779790  1  1.094141  0.583552  0.732516  0.786688  0.740031  2.257598  0.582
Cu  Cu3  1  0.58122536  0.07928036  0.56220218  1  1.094139  0.583552  0.732491  0.786651  0.740031  2.257561  0.582
H  H4  1  0.52279420  0.64112720  0.31698327  1  0.545164  1.2e-05  0.307804  0.294157  8e-06  1.000956  0.0
H  H5  1  0.35887331  0.47720546  0.18301657  1  0.545166  1.2e-05  0.307805  0.294133  8e-06  1.000981  0.0
H  H6  1  0.47720530  0.35887247  0.68301730  1  0.545161  1.2e-05  0.307812  0.294137  8e-06  1.000976  0.0
H  H7  1  0.64112619  0.52279626  0.81698332  1  0.545172  1.2e-05  0.307804  0.294152  8e-06  1.000974  0.0
H  H8  1  0.62870705  0.78226231  0.22479055  1  0.081574  0.001016  0.11323  0.131934  0.000513  1.003426  0.001
H  H9  1  0.21773885  0.37129457  0.27520957  1  0.081576  0.001016  0.113208  0.131911  0.000513  1.003442  0.001
H  H10  1  0.37129352  0.21773807  0.77520986  1  0.081577  0.001016  0.113222  0.131923  0.000513  1.003409  0.001
H  H11  1  0.78226172  0.62870580  0.72479034  1  0.081576  0.001016  0.113222  0.131942  0.000513  1.003393  0.001
H  H12  1  0.38211450  0.52353112  0.39399144  1  0.113154  0.001002  0.111991  0.130917  0.000512  1.020206  0.001
H  H13  1  0.47646830  0.61788622  0.10600891  1  0.113138  0.001002  0.111977  0.130898  0.000512  1.020222  0.001
H  H14  1  0.61788500  0.47646957  0.60600904  1  0.113154  0.001002  0.111985  0.130916  0.000512  1.020211  0.001
H  H15  1  0.52353013  0.38211581  0.89399104  1  0.113166  0.001002  0.111995  0.130938  0.000512  1.020209  0.001
H  H16  1  0.09402167  0.01382643  0.05522939  1  0.100653  0.000313  0.105983  0.117125  0.000254  1.013085  0.0
H  H17  1  0.98617396  0.90597717  0.44477050  1  0.100667  0.000313  0.105989  0.117129  0.000254  1.01307  0.0
H  H18  1  0.90597783  0.98617426  0.94477109  1  0.100644  0.000313  0.105982  0.117124  0.000254  1.013104  0.0
H  H19  1  0.01382661  0.09402218  0.55522950  1  0.100653  0.000313  0.105987  0.11714  0.000254  1.013087  0.0
H  H20  1  0.82799491  0.32495559  0.26549270  1  0.067829  0.000955  0.108279  0.122638  0.000485  1.020551  0.001
H  H21  1  0.67504626  0.17200590  0.23450683  1  0.067675  0.000955  0.108263  0.122599  0.000485  1.020581  0.001
H  H22  1  0.17200459  0.67504510  0.73450778  1  0.0677  0.000955  0.108276  0.122623  0.000485  1.020575  0.001
H  H23  1  0.32495431  0.82799652  0.76549290  1  0.067809  0.000955  0.108266  0.122624  0.000485  1.020566  0.001
H  H24  1  0.81638322  0.78398068  0.12293587  1  0.135737  0.001943  0.12457  0.108368  0.000908  0.976601  0.001
H  H25  1  0.21601938  0.18361727  0.37706341  1  0.135747  0.001943  0.124558  0.108379  0.000908  0.976602  0.001
H  H26  1  0.18361628  0.21602001  0.87706410  1  0.135743  0.001943  0.124566  0.108369  0.000908  0.976633  0.001
H  H27  1  0.78398012  0.81638342  0.62293557  1  0.135742  0.001943  0.124562  0.108378  0.000908  0.976621  0.001
H  H28  1  0.84277966  0.33926794  0.36644554  1  0.074859  0.00095  0.111603  0.12967  0.000489  1.003923  0.0
H  H29  1  0.66073242  0.15722149  0.13355509  1  0.074879  0.00095  0.111608  0.129656  0.000489  1.003944  0.0
H  H30  1  0.15722198  0.66073212  0.63355480  1  0.074872  0.00095  0.111593  0.129633  0.000489  1.003979  0.0
H  H31  1  0.33926708  0.84278022  0.86644530  1  0.074872  0.00095  0.111586  0.129624  0.000489  1.003941  0.0
H  H32  1  0.37476198  0.33839677  0.49502179  1  0.133796  0.001668  0.120743  0.101098  0.000732  1.00789  0.001
H  H33  1  0.66160277  0.62523909  0.00497799  1  0.133784  0.001669  0.120745  0.101107  0.000732  1.007863  0.001
H  H34  1  0.62523859  0.66160258  0.50497821  1  0.133794  0.001669  0.12075  0.10111  0.000732  1.007871  0.001
H  H35  1  0.33839673  0.37476262  0.99502190  1  0.133806  0.001669  0.120748  0.101118  0.000732  1.007886  0.001
H  H36  1  0.00847328  0.34922915  0.16621046  1  0.129005  0.001805  0.117918  0.09406  0.000788  1.033806  0.001
H  H37  1  0.65077121  0.99152720  0.33378885  1  0.128981  0.001805  0.117897  0.09405  0.000788  1.033826  0.001
H  H38  1  0.99152622  0.65077154  0.83378952  1  0.128989  0.001805  0.117902  0.094053  0.000788  1.033799  0.001
H  H39  1  0.34922830  0.00847349  0.66621063  1  0.128984  0.001805  0.117913  0.094077  0.000788  1.033804  0.001
H  H40  1  0.81354615  0.15752279  0.46586674  1  0.14131  0.001885  0.123995  0.105417  0.000849  0.995767  0.002
H  H41  1  0.84247768  0.18645420  0.03413343  1  0.141318  0.001885  0.124  0.105433  0.000849  0.995749  0.002
H  H42  1  0.18645335  0.84247586  0.53413342  1  0.141323  0.001885  0.123996  0.105442  0.000849  0.995754  0.002
H  H43  1  0.15752182  0.81354751  0.96586696  1  0.141294  0.001885  0.123979  0.105397  0.000849  0.995792  0.002
H  H44  1  0.35127888  0.76528651  0.21272229  1  0.094878  4e-06  0.099109  0.09862  -6e-06  1.042878  0.0
H  H45  1  0.23471399  0.64872308  0.28727639  1  0.093767  4e-06  0.099109  0.098621  -6e-06  1.042841  0.0
H  H46  1  0.64872169  0.23471387  0.78727763  1  0.094876  4e-06  0.099104  0.098599  -6e-06  1.042884  0.0
H  H47  1  0.76528551  0.35127761  0.71272258  1  0.093773  4e-06  0.099105  0.098625  -6e-06  1.042839  0.0
H  H48  1  0.32563293  0.20946276  0.14979568  1  0.090568  0.000269  0.096053  0.098031  0.000232  1.05016  0.0
H  H49  1  0.79053779  0.67436644  0.35020416  1  0.090571  0.000269  0.096042  0.098  0.000232  1.050184  0.0
H  H50  1  0.67436871  0.79053730  0.85020417  1  0.090579  0.000269  0.096043  0.097994  0.000232  1.05022  0.0
H  H51  1  0.20946172  0.32563221  0.64979601  1  0.090572  0.000269  0.096043  0.098005  0.000232  1.050208  0.0
H  H52  1  0.42026132  0.97764141  0.22443567  1  0.065486  0.000277  0.093389  0.092863  0.000135  1.037269  0.0
H  H53  1  0.02235780  0.57973839  0.27556385  1  0.065461  0.000277  0.093388  0.092851  0.000135  1.037261  0.0
H  H54  1  0.57973925  0.02235794  0.77556433  1  0.065487  0.000277  0.093367  0.092837  0.000135  1.037276  0.0
H  H55  1  0.97764063  0.42026057  0.72443588  1  0.06553  0.000277  0.093393  0.092871  0.000135  1.037269  0.0
C  C56  1  0.71394513  0.55358328  0.25673457  1  0.400434  -0.0025  0.121249  0.285755  -0.002948  4.046463  -0.002
C  C57  1  0.44641822  0.28605477  0.24326563  1  0.400438  -0.002501  0.121294  0.285808  -0.002948  4.04643  -0.002
C  C58  1  0.28605544  0.44641709  0.74326585  1  0.400431  -0.0025  0.121275  0.285722  -0.002948  4.046469  -0.002
C  C59  1  0.55358342  0.71394529  0.75673472  1  0.400454  -0.002501  0.121246  0.285793  -0.002948  4.046412  -0.002
C  C60  1  0.61279242  0.44514011  0.36859604  1  0.40658  -0.003056  0.119256  0.281173  -0.003576  4.033  -0.002
C  C61  1  0.55486056  0.38720791  0.13140418  1  0.40661  -0.003056  0.119277  0.281171  -0.003576  4.032969  -0.002
C  C62  1  0.38720816  0.55486026  0.63140387  1  0.406603  -0.003056  0.119275  0.281206  -0.003576  4.032946  -0.002
C  C63  1  0.44513894  0.61279380  0.86859621  1  0.406586  -0.003056  0.119255  0.281167  -0.003576  4.032902  -0.002
C  C64  1  0.71087114  0.68334149  0.21337028  1  -0.013224  0.005039  -0.091267  -0.236729  0.00334  3.926766  0.004
C  C65  1  0.31665957  0.28912963  0.28662889  1  -0.013239  0.005039  -0.091241  -0.2367  0.00334  3.926807  0.004
C  C66  1  0.28912943  0.31665888  0.78663013  1  -0.013223  0.005039  -0.091235  -0.236641  0.00334  3.926734  0.004
C  C67  1  0.68334100  0.71087074  0.71337052  1  -0.013246  0.005039  -0.091266  -0.236755  0.00334  3.926749  0.004
C  C68  1  0.48051625  0.44395812  0.40790016  1  -0.013354  0.005002  -0.092015  -0.22959  0.003334  3.939587  0.004
C  C69  1  0.55604222  0.51948528  0.09210000  1  -0.013351  0.005002  -0.092011  -0.229586  0.003334  3.939587  0.004
C  C70  1  0.51948432  0.55604225  0.59209975  1  -0.013374  0.005002  -0.092027  -0.229625  0.003334  3.939599  0.004
C  C71  1  0.44395728  0.48051643  0.90790039  1  -0.013354  0.005002  -0.092032  -0.22965  0.003334  3.939562  0.004
C  C72  1  0.20620884  0.12455027  0.09767925  1  -0.001261  0.010388  -0.025891  -0.041418  0.00718  3.986395  0.008
C  C73  1  0.87544985  0.79379054  0.40232112  1  -0.001265  0.010389  -0.025891  -0.041443  0.00718  3.986386  0.008
C  C74  1  0.79379173  0.87545011  0.90232116  1  -0.001446  0.01039  -0.025857  -0.041417  0.007181  3.986382  0.008
C  C75  1  0.12455072  0.20620677  0.59767957  1  -0.001275  0.010389  -0.025852  -0.041352  0.00718  3.986414  0.008
C  C76  1  0.16633531  0.00526080  0.09190807  1  -0.052226  0.000594  -0.080765  -0.104363  0.000135  3.930207  0.001
C  C77  1  0.99473870  0.83366330  0.40809192  1  -0.052216  0.000593  -0.080769  -0.104333  0.000135  3.930217  0.001
C  C78  1  0.83366419  0.99473887  0.90809250  1  -0.052216  0.000594  -0.080781  -0.104369  0.000135  3.930265  0.001
C  C79  1  0.00526080  0.16633433  0.59190834  1  -0.052271  0.000594  -0.080793  -0.104408  0.000135  3.930231  0.001
C  C80  1  0.82191784  0.43040844  0.23731752  1  0.000543  0.005225  -0.103045  -0.256609  0.003482  3.980845  0.004
C  C81  1  0.56959340  0.17808178  0.26268213  1  0.000523  0.005225  -0.103036  -0.25658  0.003482  3.980856  0.004
C  C82  1  0.17808273  0.56959193  0.76268240  1  0.000564  0.005225  -0.10306  -0.256599  0.003482  3.980905  0.004
C  C83  1  0.43040717  0.82191860  0.73731828  1  0.000535  0.005225  -0.103019  -0.256607  0.003482  3.980843  0.004
C  C84  1  0.81455789  0.68542962  0.15684977  1  0.472768  -4.3e-05  0.048035  0.109601  -0.000446  3.947748  0.0
C  C85  1  0.31456955  0.18544211  0.34314962  1  0.472774  -4.3e-05  0.048013  0.109523  -0.000446  3.947781  0.0
C  C86  1  0.18544161  0.31457005  0.84315030  1  0.472774  -4.3e-05  0.048008  0.109538  -0.000446  3.947784  0.0
C  C87  1  0.68542996  0.81455756  0.65685045  1  0.472778  -4.3e-05  0.048022  0.109556  -0.000446  3.947805  0.0
C  C88  1  0.73566184  0.34075845  0.39102336  1  0.004498  0.005606  -0.098842  -0.249911  0.003727  3.955706  0.005
C  C89  1  0.65924217  0.26433947  0.10897675  1  0.004499  0.005606  -0.098862  -0.249878  0.003727  3.955715  0.005
C  C90  1  0.26433873  0.65924091  0.60897715  1  0.004482  0.005606  -0.098854  -0.249894  0.003727  3.955751  0.005
C  C91  1  0.34075733  0.73566225  0.89102364  1  0.004472  0.005606  -0.098816  -0.249801  0.003727  3.955655  0.005
C  C92  1  0.21772209  0.87559012  0.13363073  1  -0.007283  0.009362  -0.023884  -0.041901  0.006485  3.981757  0.007
C  C93  1  0.12441018  0.78227750  0.36636922  1  -0.007298  0.009362  -0.023895  -0.041968  0.006486  3.981811  0.007
C  C94  1  0.78227741  0.12440955  0.86636934  1  -0.007293  0.009361  -0.023884  -0.041931  0.006485  3.981802  0.007
C  C95  1  0.87558932  0.21772217  0.63363085  1  -0.007299  0.009362  -0.023899  -0.041944  0.006485  3.98182  0.007
C  C96  1  0.14577952  0.26532465  0.05515702  1  1.552518  0.000123  0.20414  0.569825  0.000343  4.232511  -0.001
C  C97  1  0.73467430  0.85422297  0.44484270  1  1.553295  0.000122  0.20416  0.569863  0.000343  4.23236  -0.001
C  C98  1  0.85422426  0.73467374  0.94484328  1  1.552638  0.000121  0.204167  0.569845  0.000343  4.232454  -0.001
C  C99  1  0.26532520  0.14577670  0.55515686  1  1.552693  0.000123  0.204105  0.569727  0.000343  4.232596  -0.001
C  C100  1  0.17312160  0.74779530  0.12818281  1  1.551305  -0.00053  0.200174  0.561592  -0.000877  4.225113  -0.002
C  C101  1  0.25220512  0.82687974  0.37181545  1  1.551306  -0.00053  0.20021  0.561608  -0.000877  4.225107  -0.002
C  C102  1  0.82687790  0.25220437  0.87181726  1  1.551306  -0.00053  0.200173  0.561597  -0.000877  4.225129  -0.002
C  C103  1  0.74779545  0.17312166  0.62818387  1  1.551282  -0.00053  0.200187  0.5616  -0.000877  4.225131  -0.002
C  C104  1  0.47566418  0.34071094  0.46395831  1  0.442172  -0.000264  0.041884  0.107964  -0.000696  3.96046  0.0
C  C105  1  0.65928983  0.52433662  0.03604187  1  0.442168  -0.000264  0.041868  0.107939  -0.000695  3.960476  0.0
C  C106  1  0.52433640  0.65928841  0.53604220  1  0.44216  -0.000264  0.041875  0.10795  -0.000695  3.960462  0.0
C  C107  1  0.34071074  0.47566477  0.96395795  1  0.442163  -0.000264  0.041898  0.107978  -0.000695  3.960477  0.0
C  C108  1  0.92196662  0.44266129  0.18048121  1  0.485085  -0.000273  0.039129  0.100839  -0.00063  3.982068  0.0
C  C109  1  0.55734018  0.07803167  0.31951808  1  0.485099  -0.000273  0.039152  0.100849  -0.00063  3.982118  0.0
C  C110  1  0.07803288  0.55733940  0.81951827  1  0.485061  -0.000273  0.039153  0.100868  -0.00063  3.982047  0.0
C  C111  1  0.44266039  0.92196870  0.68048183  1  0.485109  -0.000273  0.039175  0.100873  -0.00063  3.982065  0.0
C  C112  1  0.72070181  0.23978213  0.44749878  1  0.465521  -0.000409  0.044539  0.107069  -0.000844  3.953974  0.0
C  C113  1  0.76021789  0.27929927  0.05250139  1  0.465519  -0.000409  0.044533  0.107029  -0.000844  3.953894  0.0
C  C114  1  0.27929876  0.76021620  0.55250132  1  0.465523  -0.000409  0.044544  0.10703  -0.000844  3.953992  0.0
C  C115  1  0.23978161  0.72070245  0.94749900  1  0.46551  -0.000409  0.044552  0.107051  -0.000844  3.954018  0.0
C  C116  1  0.31168031  0.86585028  0.18019294  1  -0.082465  0.000109  -0.083949  -0.08465  -0.000303  3.963507  0.0
C  C117  1  0.13414856  0.68832139  0.31980644  1  -0.082455  0.000109  -0.083932  -0.084599  -0.000303  3.963512  0.0
C  C118  1  0.68832027  0.13414908  0.81980707  1  -0.082463  0.000109  -0.083934  -0.084606  -0.000303  3.963555  0.0
C  C119  1  0.86585094  0.31167828  0.68019363  1  -0.082458  0.000109  -0.083945  -0.084638  -0.000303  3.96353  0.0
C  C120  1  0.29821789  0.11428092  0.14539977  1  -0.103743  -0.000746  -0.090182  -0.094206  -0.000923  3.972333  -0.001
C  C121  1  0.88572036  0.70178137  0.35459999  1  -0.103725  -0.000746  -0.090189  -0.094161  -0.000923  3.972345  -0.001
C  C122  1  0.70178268  0.88571945  0.85460064  1  -0.10374  -0.000746  -0.090178  -0.094122  -0.000923  3.97242  -0.001
C  C123  1  0.11428128  0.29821562  0.64539962  1  -0.103678  -0.000746  -0.090178  -0.094164  -0.000923  3.97238  -0.001
C  C124  1  0.35118896  0.98507660  0.18631986  1  0.006504  0.001085  -0.099401  -0.0924  0.000664  4.023533  0.001
C  C125  1  0.01492384  0.64880962  0.31367966  1  0.00649  0.001085  -0.09941  -0.092423  0.000664  4.023557  0.001
C  C126  1  0.64881054  0.01492307  0.81368071  1  0.006503  0.001085  -0.099402  -0.092424  0.000664  4.02358  0.001
C  C127  1  0.98507673  0.35118871  0.68631993  1  0.00647  0.001085  -0.099387  -0.092405  0.000664  4.02352  0.001
N  N128  1  0.92122918  0.56737094  0.14053215  1  -1.216823  0.086091  -0.351196  -0.247749  0.056946  3.596251  0.074
N  N129  1  0.43262880  0.07877064  0.35946617  1  -1.216776  0.086094  -0.351141  -0.247664  0.056948  3.596224  0.074
N  N130  1  0.07876925  0.43263006  0.85946790  1  -1.216813  0.086091  -0.351175  -0.247734  0.056946  3.596216  0.074
N  N131  1  0.56737070  0.92123107  0.64053271  1  -1.216797  0.08609  -0.351176  -0.247718  0.056945  3.596238  0.074
N  N132  1  0.59297066  0.23719898  0.48354728  1  -1.21805  0.087717  -0.351103  -0.249983  0.05807  3.593788  0.076
N  N133  1  0.76280096  0.40703014  0.01645345  1  -1.218056  0.087717  -0.351095  -0.249957  0.05807  3.593759  0.076
N  N134  1  0.40702884  0.76279865  0.51645298  1  -1.218025  0.087717  -0.351089  -0.249953  0.05807  3.593771  0.076
N  N135  1  0.23719854  0.59297158  0.98354694  1  -1.218052  0.087718  -0.351112  -0.249985  0.058071  3.593839  0.076
N  N136  1  0.61259106  0.55199459  0.31349463  1  -1.31121  -0.001454  -0.391288  -0.332212  -0.001488  3.555087  -0.001
N  N137  1  0.44800574  0.38740936  0.18650564  1  -1.311288  -0.001454  -0.391338  -0.332225  -0.001488  3.555064  -0.001
N  N138  1  0.38740951  0.44800476  0.68650588  1  -1.311283  -0.001454  -0.391328  -0.332197  -0.001488  3.555024  -0.001
N  N139  1  0.55199484  0.61259102  0.81349528  1  -1.311211  -0.001454  -0.391313  -0.332256  -0.001488  3.555071  -0.001
O  O140  1  0.08176675  0.76902611  0.08622022  1  -1.106768  0.095717  -0.322609  -0.536547  0.060454  2.34725  0.086
O  O141  1  0.23097476  0.91823315  0.41377865  1  -1.106701  0.095717  -0.322641  -0.536581  0.060454  2.34726  0.086
O  O142  1  0.91823275  0.23097356  0.91378035  1  -1.106765  0.095717  -0.322619  -0.536562  0.060454  2.347252  0.086
O  O143  1  0.76902688  0.08176792  0.58622010  1  -1.106744  0.095721  -0.322623  -0.536573  0.060457  2.347207  0.086
O  O144  1  0.22612618  0.62872579  0.16278044  1  -1.212574  0.002085  -0.327479  -0.588421  0.000456  2.255009  0.002
O  O145  1  0.37127366  0.77387417  0.33721797  1  -1.212619  0.002085  -0.327475  -0.58841  0.000456  2.25503  0.002
O  O146  1  0.77387439  0.37127356  0.83721957  1  -1.21257  0.002085  -0.327474  -0.58841  0.000456  2.255  0.002
O  O147  1  0.62872584  0.22612652  0.66278100  1  -1.212589  0.002085  -0.32747  -0.588401  0.000456  2.255032  0.002
O  O148  1  0.08664407  0.26913672  0.00410489  1  -1.175428  0.00753  -0.318803  -0.572395  0.004243  2.341809  0.008
O  O149  1  0.73086166  0.91335703  0.49589402  1  -1.176125  0.007528  -0.318785  -0.572352  0.004242  2.341763  0.008
O  O150  1  0.91335758  0.73086232  0.99589505  1  -1.175333  0.00753  -0.318812  -0.572385  0.004243  2.341831  0.008
O  O151  1  0.26913677  0.08664398  0.50410502  1  -1.175569  0.007527  -0.318798  -0.572359  0.004242  2.341836  0.008
O  O152  1  0.16140074  0.37248507  0.07757087  1  -1.141023  0.091951  -0.333865  -0.576311  0.057941  2.486994  0.084
O  O153  1  0.62751479  0.83859832  0.42242860  1  -1.141087  0.091954  -0.333899  -0.576398  0.057942  2.486923  0.084
O  O154  1  0.83859876  0.62751562  0.92242861  1  -1.141076  0.091954  -0.333869  -0.576335  0.057943  2.48698  0.084
O  O155  1  0.37248471  0.16140033  0.57757056  1  -1.141065  0.091954  -0.333858  -0.576284  0.057942  2.486975  0.084
