# generated using pymatgen
data_CuH7C4NO5
_symmetry_space_group_name_H-M   'P 1'
_cell_length_a   6.00742846
_cell_length_b   9.95128130
_cell_length_c   11.16510738
_cell_angle_alpha   89.99942267
_cell_angle_beta   99.14923911
_cell_angle_gamma   90.00009710
_symmetry_Int_Tables_number   1
_chemical_formula_structural   CuH7C4NO5
_chemical_formula_sum   'Cu4 H28 C16 N4 O20'
_cell_volume   658.97625333
_cell_formula_units_Z   4
loop_
 _symmetry_equiv_pos_site_id
 _symmetry_equiv_pos_as_xyz
  1  'x, y, z'
loop_
 _atom_site_type_symbol
 _atom_site_label
 _atom_site_symmetry_multiplicity
 _atom_site_fract_x
 _atom_site_fract_y
 _atom_site_fract_z
 _atom_site_occupancy
 _atom_site_hle17_ddec_charge
 _atom_site_hle17_ddec_spin_density
 _atom_site_hle17_ddec_sum_bond_order
 _atom_site_hle17_magmom
 _atom_site_hse06_10hf_ddec_charge
 _atom_site_hse06_10hf_ddec_spin_density
 _atom_site_hse06_10hf_ddec_sum_bond_order
 _atom_site_hse06_10hf_magmom
 _atom_site_hse06_ddec_charge
 _atom_site_hse06_ddec_spin_density
 _atom_site_hse06_ddec_sum_bond_order
 _atom_site_hse06_magmom
 _atom_site_pbe_cm5_charge
 _atom_site_pbe_ddec_charge
 _atom_site_pbe_ddec_spin_density
 _atom_site_pbe_ddec_sum_bond_order
 _atom_site_pbe_magmom
Cu  Cu0  1  0.85715734  0.24057718  0.75223211  1  0.904903  -0.720299  1.727901  -0.519  0.889458  -0.812446  2.112821  -0.641  0.979997  -0.883961  2.044796  -0.725  0.706595  0.831418  -0.759141  2.161852  -0.586
Cu  Cu1  1  0.14285124  0.74059084  0.74777163  1  0.905041  0.720294  1.727677  0.519  0.889611  0.812451  2.112622  0.641  0.980189  0.883967  2.044507  0.725  0.706646  0.831474  0.759135  2.161735  0.586
Cu  Cu2  1  0.14283660  0.75941743  0.24777357  1  0.904932  -0.720282  1.727861  -0.519  0.88953  -0.812459  2.112755  -0.641  0.980018  -0.883963  2.044733  -0.725  0.706631  0.831473  -0.759137  2.161732  -0.586
Cu  Cu3  1  0.85713951  0.25941584  0.25222748  1  0.905053  0.720304  1.727815  0.519  0.889629  0.812456  2.112661  0.641  0.980145  0.883969  2.044693  0.725  0.706608  0.831642  0.759144  2.161627  0.586
H  H4  1  0.87845316  0.20889250  0.98264285  1  0.423466  -0.000163  0.878781  0.0  0.398087  -0.000516  0.934281  0.0  0.409868  -0.000352  0.917571  0.0  0.297066  0.38989  -0.000634  0.94593  0.0
H  H5  1  0.12156410  0.70889674  0.51735302  1  0.423546  0.000162  0.878685  0.0  0.398143  0.000516  0.934236  0.0  0.409925  0.000352  0.917526  0.0  0.297084  0.389944  0.000633  0.945888  0.0
H  H6  1  0.12155281  0.79110010  0.01735589  1  0.423515  -0.000163  0.878719  0.0  0.39811  -0.000516  0.934265  0.0  0.409893  -0.000352  0.917553  0.0  0.297059  0.389906  -0.000634  0.945925  0.0
H  H7  1  0.87843999  0.29108280  0.48265271  1  0.423846  0.000162  0.878275  0.0  0.398351  0.000516  0.933994  0.0  0.410135  0.000352  0.917281  0.0  0.297084  0.390144  0.000633  0.945668  0.0
H  H8  1  0.11794928  0.16960896  0.94205295  1  0.429194  0.000409  0.87363  0.001  0.398549  -1.9e-05  0.936714  0.0  0.410994  1.2e-05  0.919268  0.0  0.293117  0.389809  -8e-06  0.948959  0.0
H  H9  1  0.88208131  0.66960548  0.55794989  1  0.429183  -0.000409  0.873657  -0.001  0.398526  2e-05  0.936772  0.0  0.410975  -1.1e-05  0.919319  0.0  0.293118  0.389787  8e-06  0.949018  0.0
H  H10  1  0.88206185  0.83039872  0.05794269  1  0.42924  0.000408  0.873569  0.001  0.398564  -2e-05  0.936676  0.0  0.410996  1.1e-05  0.919253  0.0  0.29315  0.389824  -8e-06  0.948922  0.0
H  H11  1  0.11792444  0.33038009  0.44205690  1  0.429179  -0.000408  0.873663  -0.001  0.398512  2e-05  0.936796  0.0  0.410967  -1.1e-05  0.919331  0.0  0.293092  0.389774  9e-06  0.94904  0.0
H  H12  1  0.49305358  0.29304412  0.83634708  1  0.275481  0.000877  0.916662  0.002  0.261168  3.9e-05  0.98072  0.001  0.269168  0.00026  0.976114  0.001  0.295781  0.255469  -0.000137  0.984311  0.001
H  H13  1  0.50695838  0.79304305  0.66365651  1  0.275467  -0.000875  0.916699  -0.002  0.261118  -3.9e-05  0.980796  -0.001  0.269101  -0.00026  0.97622  -0.001  0.29571  0.255419  0.000137  0.984386  -0.001
H  H14  1  0.50695201  0.70696155  0.16366506  1  0.275505  0.000876  0.916527  0.002  0.261152  3.9e-05  0.98065  0.001  0.269163  0.000261  0.976027  0.001  0.295781  0.255453  -0.000137  0.984241  0.001
H  H15  1  0.49302576  0.20695759  0.33633750  1  0.275468  -0.000877  0.916678  -0.002  0.261119  -3.9e-05  0.980781  -0.001  0.269135  -0.00026  0.976154  -0.001  0.295735  0.255423  0.000137  0.984375  -0.001
H  H16  1  0.49011416  0.49744701  0.64994156  1  0.1189  -5.4e-05  0.926143  0.0  0.131329  -9.9e-05  0.988957  0.0  0.132617  -9.7e-05  0.988684  0.0  0.120888  0.130066  -0.000111  0.989719  0.0
H  H17  1  0.50992353  0.99746590  0.85004831  1  0.118735  5.2e-05  0.926259  0.0  0.131243  9.9e-05  0.989005  0.0  0.132532  9.7e-05  0.988733  0.0  0.120882  0.129974  0.000111  0.989769  0.0
H  H18  1  0.50988474  0.50255061  0.35006816  1  0.11881  -5.7e-05  0.9262  0.0  0.131219  -9.9e-05  0.989025  0.0  0.132507  -9.7e-05  0.98875  0.0  0.120862  0.129956  -0.000111  0.98979  0.0
H  H19  1  0.49009453  0.00254178  0.14994171  1  0.118777  6.4e-05  0.926189  0.0  0.131203  9.9e-05  0.989014  0.0  0.13249  9.7e-05  0.988739  0.0  0.12084  0.129937  0.000111  0.989775  0.0
H  H20  1  0.27171704  0.38716549  0.67318738  1  0.139972  -0.001694  0.944361  -0.002  0.149396  -0.001129  1.006052  -0.001  0.151653  -0.000785  1.00432  -0.001  0.120814  0.14751  -0.001356  1.007703  -0.002
H  H21  1  0.72831031  0.88716980  0.82680966  1  0.139909  0.001696  0.944236  0.002  0.149273  0.00113  1.006033  0.001  0.151557  0.000785  1.00427  0.001  0.120777  0.14735  0.001358  1.007719  0.002
H  H22  1  0.72828858  0.61282611  0.32682387  1  0.139911  -0.001697  0.944337  -0.002  0.149317  -0.001129  1.00604  -0.001  0.151574  -0.000785  1.004307  -0.001  0.120784  0.147419  -0.001357  1.007705  -0.002
H  H23  1  0.27169089  0.11282582  0.17317878  1  0.13996  0.001704  0.944237  0.002  0.149345  0.001129  1.005994  0.001  0.151598  0.000785  1.004271  0.001  0.120789  0.147438  0.001357  1.007652  0.002
H  H24  1  0.72162528  0.43879564  0.95504235  1  0.119029  5.6e-05  0.929024  0.0  0.132521  0.000135  0.985349  0.0  0.134896  5.2e-05  0.984268  0.0  0.118487  0.130719  0.000222  0.986237  0.0
H  H25  1  0.27838857  0.93879570  0.54495387  1  0.118967  -5.9e-05  0.929115  0.0  0.132482  -0.000136  0.98541  0.0  0.134856  -5.3e-05  0.984336  0.0  0.118434  0.130699  -0.000223  0.9863  0.0
H  H26  1  0.27838392  0.56121304  0.04496207  1  0.118879  4.9e-05  0.929107  0.0  0.132352  0.000135  0.985465  0.0  0.134727  5.2e-05  0.98439  0.0  0.118374  0.130583  0.000222  0.98632  0.0
H  H27  1  0.72161419  0.06120997  0.45503919  1  0.118872  -5.3e-05  0.929133  0.0  0.132376  -0.000136  0.985447  0.0  0.134751  -5.2e-05  0.984372  0.0  0.118392  0.130592  -0.000222  0.98633  0.0
H  H28  1  0.53504063  0.54605666  0.85853285  1  0.099193  -0.00496  0.936648  -0.006  0.106883  -0.003076  1.006776  -0.004  0.108417  -0.002188  1.004416  -0.003  0.107015  0.10533  -0.003668  1.00909  -0.004
H  H29  1  0.46497007  0.04606397  0.64145667  1  0.099057  0.004962  0.936694  0.006  0.106722  0.003076  1.006891  0.004  0.108251  0.002188  1.00453  0.003  0.106943  0.105191  0.003669  1.009196  0.004
H  H30  1  0.46497380  0.45394800  0.14146578  1  0.099157  -0.004968  0.936637  -0.006  0.106848  -0.003076  1.006766  -0.004  0.108384  -0.002188  1.004403  -0.003  0.107003  0.105297  -0.003668  1.009087  -0.004
H  H31  1  0.53501215  0.95394672  0.35854523  1  0.099001  0.004965  0.936711  0.006  0.106668  0.003077  1.006884  0.004  0.108203  0.002189  1.004525  0.003  0.106917  0.105138  0.003669  1.009179  0.004
C  C32  1  0.45235241  0.39215692  0.66967388  1  -0.170424  0.000241  3.625267  0.003  -0.223732  -0.00153  3.883538  0.001  -0.224452  -0.000819  3.893226  0.001  -0.079523  -0.223056  -0.002082  3.877472  0.001
C  C33  1  0.54767504  0.89217105  0.83031955  1  -0.170011  -0.000234  3.624858  -0.003  -0.223395  0.001531  3.88319  -0.001  -0.224135  0.00082  3.892874  -0.001  -0.079438  -0.222677  0.002082  3.877105  -0.001
C  C34  1  0.54765331  0.60783870  0.33033380  1  -0.170299  0.000254  3.625431  0.003  -0.223527  -0.001531  3.883619  0.001  -0.224245  -0.000821  3.893312  0.001  -0.07952  -0.222829  -0.002083  3.877543  0.001
C  C35  1  0.45232615  0.10783562  0.16966889  1  -0.170223  -0.000282  3.625135  -0.003  -0.223519  0.00153  3.883393  -0.001  -0.224232  0.000818  3.893085  -0.001  -0.079463  -0.222793  0.002081  3.8773  -0.001
C  C36  1  0.51332492  0.31237788  0.56464790  1  0.699937  0.001447  3.795625  0.003  0.647142  -0.000964  4.107007  0.0  0.682829  -0.000576  4.099708  0.0  0.226017  0.622668  -0.001276  4.111076  0.0
C  C37  1  0.48669354  0.81239174  0.93536508  1  0.699945  -0.00144  3.796309  -0.003  0.647197  0.000967  4.107673  0.0  0.68287  0.00058  4.100385  0.0  0.226009  0.622714  0.00128  4.111728  0.0
C  C38  1  0.48667733  0.68762175  0.43536303  1  0.699594  0.001433  3.796057  0.002  0.646846  -0.000966  4.107408  0.0  0.682525  -0.000577  4.100116  0.0  0.225891  0.622364  -0.001277  4.111479  0.0
C  C39  1  0.51328723  0.18761795  0.06462861  1  0.699947  -0.001433  3.795948  -0.002  0.647107  0.000965  4.107442  0.0  0.682789  0.000579  4.100133  0.0  0.225873  0.622613  0.001278  4.11152  0.0
C  C40  1  0.66951320  0.47095282  0.86050771  1  -0.136652  0.010273  3.609194  0.014  -0.188931  0.004204  3.864521  0.008  -0.18901  0.003325  3.873567  0.006  -0.075604  -0.18839  0.004843  3.858501  0.008
C  C41  1  0.33050750  0.97095787  0.63948528  1  -0.136494  -0.010267  3.608907  -0.014  -0.188814  -0.004209  3.864319  -0.008  -0.188885  -0.00333  3.873367  -0.006  -0.075536  -0.188323  -0.00485  3.858331  -0.008
C  C42  1  0.33049771  0.52904883  0.13949597  1  -0.136528  0.010299  3.609156  0.014  -0.188785  0.004202  3.864446  0.008  -0.188866  0.003326  3.873493  0.006  -0.075543  -0.188281  0.004842  3.858435  0.008
C  C43  1  0.66948004  0.02904880  0.36050815  1  -0.136235  -0.010298  3.608789  -0.014  -0.188577  -0.00421  3.864111  -0.008  -0.188658  -0.003333  3.873179  -0.006  -0.075505  -0.188074  -0.004853  3.858111  -0.008
C  C44  1  0.87582295  0.53020285  0.81469759  1  0.668166  -0.005887  3.859362  -0.01  0.630355  -0.001771  4.162733  -0.005  0.666058  -0.00174  4.157857  -0.004  0.203436  0.606231  -0.001652  4.164853  -0.005
C  C45  1  0.12416547  0.03020126  0.68530252  1  0.668249  0.005895  3.859819  0.01  0.630396  0.001772  4.163244  0.005  0.666091  0.001743  4.158368  0.004  0.203309  0.606286  0.001653  4.165365  0.005
C  C46  1  0.12417781  0.46980483  0.18530604  1  0.668135  -0.00589  3.859517  -0.01  0.630298  -0.001772  4.1629  -0.005  0.666001  -0.001741  4.158009  -0.004  0.20336  0.606182  -0.001652  4.165032  -0.005
C  C47  1  0.87581542  0.96979034  0.31468670  1  0.668139  0.005887  3.859954  0.01  0.630394  0.001772  4.163199  0.005  0.66609  0.001745  4.158317  0.004  0.203446  0.606281  0.001653  4.165328  0.005
N  N48  1  0.58740719  0.35243379  0.78710784  1  -0.342425  -0.098838  3.261289  -0.123  -0.306597  -0.063345  3.547482  -0.084  -0.339415  -0.050249  3.56535  -0.071  -0.487484  -0.286335  -0.070051  3.536852  -0.089
N  N49  1  0.41261158  0.85244110  0.71289408  1  -0.342585  0.098859  3.261561  0.123  -0.306725  0.063361  3.547756  0.084  -0.339551  0.050261  3.56565  0.071  -0.487456  -0.286435  0.070069  3.537111  0.089
N  N50  1  0.41259853  0.64756585  0.21289983  1  -0.342316  -0.098851  3.261254  -0.123  -0.306537  -0.063351  3.547499  -0.084  -0.339353  -0.050257  3.565341  -0.071  -0.487431  -0.286272  -0.070058  3.536861  -0.089
N  N51  1  0.58737923  0.14756558  0.28710324  1  -0.342491  0.098865  3.261389  0.123  -0.306629  0.063357  3.547535  0.084  -0.339471  0.050257  3.565415  0.071  -0.487379  -0.286376  0.070064  3.536905  0.089
O  O52  1  0.70119104  0.24582062  0.58340963  1  -0.631042  -0.069921  2.131141  -0.094  -0.589157  -0.049187  2.411365  -0.072  -0.629021  -0.039  2.398674  -0.06  -0.321575  -0.562713  -0.055052  2.420789  -0.077
O  O53  1  0.29882263  0.74584756  0.91659364  1  -0.63113  0.069925  2.131305  0.094  -0.589357  0.049189  2.411572  0.072  -0.629228  0.039001  2.398877  0.06  -0.321668  -0.562884  0.055058  2.420988  0.078
O  O54  1  0.29881637  0.75417601  0.41659820  1  -0.63077  -0.069915  2.131153  -0.094  -0.589019  -0.049184  2.411421  -0.072  -0.628878  -0.038998  2.398749  -0.06  -0.321509  -0.562573  -0.055048  2.420832  -0.077
O  O55  1  0.70117497  0.25416917  0.08340252  1  -0.631135  0.069943  2.13064  0.094  -0.589388  0.049197  2.410983  0.072  -0.629251  0.039005  2.398296  0.06  -0.32166  -0.562945  0.055067  2.420404  0.078
O  O56  1  0.39234086  0.31630253  0.46210312  1  -0.586414  -0.011284  1.981529  -0.014  -0.525696  -0.006188  2.191116  -0.008  -0.553357  -0.003489  2.183149  -0.005  -0.288933  -0.505852  -0.008946  2.195923  -0.011
O  O57  1  0.60765758  0.81632211  0.03788518  1  -0.586435  0.011282  1.982526  0.014  -0.525618  0.006191  2.191969  0.008  -0.553253  0.003489  2.183999  0.005  -0.288889  -0.505781  0.00895  2.196782  0.011
O  O58  1  0.60765812  0.68369610  0.53790392  1  -0.586271  -0.011279  1.981789  -0.014  -0.525571  -0.006189  2.191336  -0.008  -0.553219  -0.00349  2.183373  -0.005  -0.288837  -0.505726  -0.008948  2.196146  -0.011
O  O59  1  0.39234522  0.18368657  0.96210610  1  -0.586373  0.011275  1.982765  0.014  -0.525587  0.006188  2.192283  0.008  -0.553238  0.003489  2.184323  0.005  -0.288742  -0.505741  0.008946  2.197094  0.011
O  O60  1  0.02316671  0.45109616  0.78820117  1  -0.622006  0.000896  1.978984  0.001  -0.591107  2e-06  2.231839  0.0  -0.618868  -0.00026  2.218746  0.0  -0.322999  -0.572118  0.00024  2.241124  0.001
O  O61  1  0.97686768  0.95111312  0.71178611  1  -0.621818  -0.000905  1.980013  -0.001  -0.590913  -2e-06  2.232947  0.0  -0.618659  0.000259  2.219818  0.0  -0.322777  -0.571912  -0.00024  2.242229  -0.001
O  O62  1  0.97684440  0.54890348  0.21179536  1  -0.621855  0.000892  1.979447  0.001  -0.591012  0.0  2.23237  0.0  -0.618757  -0.00026  2.219265  0.0  -0.322928  -0.572025  0.000238  2.241651  0.001
O  O63  1  0.02308524  0.04888250  0.28817631  1  -0.62182  -0.000899  1.979771  -0.001  -0.591031  -5e-06  2.232723  0.0  -0.618764  0.000259  2.2196  0.0  -0.322924  -0.572055  -0.000243  2.242008  -0.001
O  O64  1  0.88201938  0.65901947  0.80788780  1  -0.584082  0.090132  2.027127  0.118  -0.547803  0.055994  2.296422  0.08  -0.589115  0.043081  2.287823  0.065  -0.326722  -0.519871  0.063948  2.302136  0.088
O  O65  1  0.11799931  0.15901679  0.69211760  1  -0.584165  -0.090183  2.027159  -0.118  -0.547875  -0.05602  2.296454  -0.08  -0.589188  -0.043102  2.287859  -0.065  -0.326721  -0.51997  -0.063978  2.302191  -0.088
O  O66  1  0.11798629  0.34098218  0.19212166  1  -0.584222  0.090142  2.027111  0.118  -0.547813  0.055999  2.296243  0.08  -0.589114  0.043085  2.287651  0.065  -0.32669  -0.519927  0.063955  2.301984  0.088
O  O67  1  0.88199601  0.84098184  0.30789896  1  -0.584261  -0.090166  2.027672  -0.118  -0.547877  -0.056009  2.296751  -0.08  -0.589175  -0.043095  2.28815  -0.065  -0.326722  -0.519968  -0.063967  2.302475  -0.088
O  O68  1  0.94955792  0.16646823  0.91778431  1  -0.805313  -0.053768  1.956144  -0.07  -0.77188  -0.040087  2.170221  -0.055  -0.803285  -0.03219  2.131442  -0.047  -0.5864  -0.750775  -0.044744  2.197699  -0.059
O  O69  1  0.05045910  0.66646963  0.58221998  1  -0.805408  0.053775  1.955991  0.07  -0.771957  0.040091  2.170042  0.055  -0.803372  0.03219  2.131247  0.047  -0.58643  -0.750825  0.044746  2.19753  0.059
O  O70  1  0.05044116  0.83352438  0.08221916  1  -0.805411  -0.053764  1.956086  -0.07  -0.771961  -0.040084  2.170282  -0.055  -0.803354  -0.032188  2.131513  -0.047  -0.586424  -0.750847  -0.044741  2.197749  -0.059
O  O71  1  0.94954156  0.33350891  0.41778723  1  -0.805645  0.053767  1.955661  0.07  -0.772151  0.040088  2.169732  0.055  -0.803563  0.032189  2.130947  0.047  -0.586362  -0.751042  0.044742  2.197207  0.059
