# generated using pymatgen
data_ZnH16(C9N2)2
_symmetry_space_group_name_H-M   'P 1'
_cell_length_a   14.86171281
_cell_length_b   14.88849294
_cell_length_c   15.09779885
_cell_angle_alpha   108.68395173
_cell_angle_beta   110.34131514
_cell_angle_gamma   108.22149879
_symmetry_Int_Tables_number   1
_chemical_formula_structural   ZnH16(C9N2)2
_chemical_formula_sum   'Zn4 H64 C72 N16'
_cell_volume   2607.27686768
_cell_formula_units_Z   4
loop_
 _symmetry_equiv_pos_site_id
 _symmetry_equiv_pos_as_xyz
  1  'x, y, z'
loop_
 _atom_site_type_symbol
 _atom_site_label
 _atom_site_symmetry_multiplicity
 _atom_site_fract_x
 _atom_site_fract_y
 _atom_site_fract_z
 _atom_site_occupancy
 _atom_site_pbe_bader_charge
 _atom_site_pbe_bader_spin_density
 _atom_site_pbe_cm5_charge
 _atom_site_pbe_ddec_charge
 _atom_site_pbe_ddec_spin_density
 _atom_site_pbe_ddec_sum_bond_order
 _atom_site_pbe_magmom
Zn  Zn0  1  0.62087933  0.11849848  0.99496837  1  1.185825  0  0.746645  0.603013  0  2.492312  0
Zn  Zn1  1  0.36716178  0.86779276  0.00709858  1  1.186066  0  0.740952  0.616228  0  2.418596  0
Zn  Zn2  1  0.63502076  0.00186984  0.14373508  1  1.188422  0  0.746362  0.609867  0  2.467392  0
Zn  Zn3  1  0.35477667  0.99862804  0.87247942  1  1.184885  0  0.744283  0.606807  0  2.46379  0
H  H4  1  0.64246968  0.96861979  0.81140897  1  0.08157  0  0.115847  0.102678  0  1.009793  0
H  H5  1  0.10965708  0.78678407  0.97268384  1  0.076349  0  0.108632  0.089318  0  1.075182  0
H  H6  1  0.62375605  0.37787624  0.78014363  1  0.082536  0  0.10318  0.109041  0  0.996689  0
H  H7  1  0.34410709  0.84633380  0.28652544  1  0.04207  0  0.101949  0.11043  0  0.997557  0
H  H8  1  0.75166487  0.17775953  0.65508311  1  0.037851  0  0.10073  0.103239  0  0.996418  0
H  H9  1  0.18607390  0.04411665  0.30223656  1  0.061315  0  0.100453  0.103646  0  0.999264  0
H  H10  1  0.92102257  0.27923201  0.83440789  1  0.042159  0  0.099414  0.094591  0  1.001961  0
H  H11  1  0.01191686  0.88649384  0.14318284  1  0.064382  0  0.100503  0.099564  0  0.997659  0
H  H12  1  0.63684413  0.24265907  0.50943502  1  0.031639  0  0.099002  0.102812  0  1.017226  0
H  H13  1  0.31346514  0.00162079  0.49856326  1  0.065602  0  0.096219  0.099771  0  1.015623  0
H  H14  1  0.90276124  0.42884353  0.43865515  1  0.02818  0  0.094667  0.095312  0  1.020154  0
H  H15  1  0.28934492  0.56042989  0.53318026  1  0.076012  0  0.096808  0.099376  0  1.030572  0
H  H16  1  0.33072549  0.35554136  0.08019387  1  0.056561  0  0.098246  0.094863  0  1.014425  0
H  H17  1  0.68597194  0.68155432  0.25163759  1  0.041789  0  0.09559  0.092408  0  1.017566  0
H  H18  1  0.33489735  0.52626520  0.09965460  1  0.027693  0  0.093325  0.090497  0  1.041181  0
H  H19  1  0.68209369  0.51138255  0.23493141  1  0.055168  0  0.097624  0.096369  0  1.019762  0
H  H20  1  0.75921960  0.72820408  0.91990211  1  0.045319  0  0.095741  0.09541  0  1.008489  0
H  H21  1  0.93103410  0.93690267  0.77205708  1  0.029019  0  0.095305  0.093139  0  1.01182  0
H  H22  1  0.29138778  0.63508905  0.81788033  1  0.093961  0  0.11549  0.105069  0  0.998111  0
H  H23  1  0.87344012  0.33343377  0.15117398  1  0.068542  0  0.113038  0.101179  0  1.02599  0
H  H24  1  0.91906524  0.72350999  0.90953864  1  0.032709  0  0.093972  0.09005  0  1.0319  0
H  H25  1  0.77111180  0.94014986  0.78044159  1  0.041041  0  0.096821  0.09529  0  1.011941  0
H  H26  1  0.68678578  0.83850015  0.24406453  1  0.061892  0  0.114803  0.102329  0  1.003244  0
H  H27  1  0.32211441  0.18790388  0.01068406  1  0.095605  0  0.11586  0.101849  0  1.004375  0
H  H28  1  0.30674287  0.04493126  0.65770456  1  0.086495  0  0.115435  0.103204  0  1.000445  0
H  H29  1  0.66034816  0.15715079  0.36602269  1  0.063676  0  0.113956  0.100106  0  1.009347  0
H  H30  1  0.33435494  0.65970726  0.05207894  1  0.071618  0  0.110332  0.095064  0  1.070408  0
H  H31  1  0.67624933  0.34298955  0.17658734  1  0.075139  0  0.114406  0.100049  0  1.019912  0
H  H32  1  0.65861382  0.17987158  0.81695374  1  0.080848  0  0.110079  0.097181  0  1.055649  0
H  H33  1  0.30856800  0.99658501  0.16284561  1  0.122168  0  0.113511  0.104358  0  1.033598  0
H  H34  1  0.29493892  0.82066948  0.64826575  1  0.075072  0  0.115204  0.106108  0  1.00208  0
H  H35  1  0.87899901  0.18532993  0.35546498  1  0.083861  0  0.115559  0.105  0  0.996743  0
H  H36  1  0.67737543  0.81545009  0.01304498  1  0.082524  0  0.113726  0.099968  0  1.008902  0
H  H37  1  0.09386803  0.94942798  0.78050117  1  0.076323  0  0.113853  0.099675  0  1.005035  0
H  H38  1  0.94009267  0.42765329  0.98651590  1  0.042627  0  0.095236  0.089718  0  1.036144  0
H  H39  1  0.00327230  0.70925336  0.06069287  1  0.008696  0  0.092464  0.083471  0  1.060014  0
H  H40  1  0.92879708  0.67346509  0.20214483  1  0.0368  0  0.081944  0.110333  0  1.019442  0
H  H41  1  0.78888310  0.62350234  0.16644924  1  0.027676  0  0.082055  0.107992  0  1.025136  0
H  H42  1  0.87562249  0.59723979  0.25830314  1  0.016131  0  0.085721  0.113539  0  1.001479  0
H  H43  1  0.75845033  0.43152131  0.07632572  1  0.01784  0  0.08537  0.072426  0  0.994143  0
H  H44  1  0.89713624  0.48451984  0.11096557  1  0.013476  0  0.083039  0.064737  0  1.007155  0
H  H45  1  0.86197909  0.58431907  0.00327473  1  0.025936  0  0.088379  0.083529  0  1.013672  0
H  H46  1  0.72215318  0.51487144  0.95977364  1  0.011852  0  0.095131  0.094532  0  0.974144  0
H  H47  1  0.20934429  0.51163755  0.96704085  1  0.016183  0  0.081429  0.104985  0  1.04603  0
H  H48  1  0.09106675  0.44510823  0.97169357  1  0.004229  0  0.084439  0.11254  0  1.01907  0
H  H49  1  0.07887173  0.45933292  0.85649635  1  0.01197  0  0.089527  0.12422  0  1.011983  0
H  H50  1  0.04148932  0.59380162  0.95268576  1  0.044032  0  0.088514  0.078223  0  0.994933  0
H  H51  1  0.17406769  0.66551065  0.97763780  1  -0.007017  0  0.083798  0.067016  0  1.011053  0
H  H52  1  0.24970904  0.66433023  0.15768094  1  0.006325  0  0.091812  0.089492  0  0.998511  0
H  H53  1  0.11457113  0.59838496  0.13029770  1  0.030945  0  0.091327  0.091034  0  0.979323  0
H  H54  1  0.84276325  0.43982327  0.59317174  1  -0.000603  0  0.082045  0.109004  0  1.003113  0
H  H55  1  0.93522124  0.38751272  0.59453189  1  0.018258  0  0.076921  0.101903  0  1.02688  0
H  H56  1  0.90633673  0.41849287  0.70202645  1  0.016738  0  0.077864  0.106301  0  1.041534  0
H  H57  1  0.08992775  0.56390775  0.75696543  1  0.023964  0  0.080226  0.063848  0  1.010523  0
H  H58  1  0.99783565  0.61423308  0.76017483  1  0.02709  0  0.083207  0.072768  0  1.002628  0
H  H59  1  0.09354730  0.69299690  0.68343809  1  0.07009  0  0.087563  0.088025  0  1.026248  0
H  H60  1  0.95593006  0.60340073  0.58159380  1  0.018767  0  0.089278  0.088099  0  0.977531  0
H  H61  1  0.27136437  0.28053738  0.27172634  1  0.008491  0  0.082911  0.107531  0  1.00517  0
H  H62  1  0.22513164  0.33517314  0.18764960  1  -0.010919  0  0.077936  0.098044  0  1.014734  0
H  H63  1  0.36608227  0.39706127  0.28225305  1  0.050695  0  0.084864  0.115344  0  1.013815  0
H  H64  1  0.28385241  0.50518777  0.35306710  1  0.003742  0  0.086137  0.074816  0  0.974186  0
H  H65  1  0.32693314  0.44837578  0.43475224  1  0.007174  0  0.088917  0.078193  0  0.976595  0
H  H66  1  0.13447515  0.29576667  0.33520364  1  0.03061  0  0.091204  0.088029  0  0.972727  0
H  H67  1  0.09213834  0.35043067  0.25254647  1  0.024723  0  0.087789  0.082182  0  0.993974  0
C  C68  1  0.64344539  0.93877588  0.86843385  1  0.42073  0  0.007583  -0.046896  0  3.961821  0
C  C69  1  0.12258548  0.82852438  0.92752927  1  0.456521  0  0.006229  -0.050923  0  3.987878  0
C  C70  1  0.26326333  0.68471866  0.68852541  1  -0.0426  0  -0.034344  -0.027042  0  4.070949  0
C  C71  1  0.92042083  0.30019243  0.29149156  1  -0.000702  0  -0.035245  -0.023532  0  4.086657  0
C  C72  1  0.51060678  0.71024262  0.15943236  1  0.070463  0  -0.040893  -0.043063  0  4.100596  0
C  C73  1  0.50139175  0.31223408  0.11645864  1  -0.035359  0  -0.038323  -0.044572  0  4.080585  0
C  C74  1  0.48274703  0.12108937  0.69743982  1  -0.016562  0  -0.039929  -0.039969  0  4.082099  0
C  C75  1  0.47927726  0.09138930  0.30726217  1  0.037254  0  -0.037324  -0.035411  0  4.064961  0
C  C76  1  0.78452154  0.41570760  0.89333912  1  -0.062082  0  -0.011245  0.119923  0  3.978721  0
C  C77  1  0.17316439  0.76449805  0.16729242  1  -0.032613  0  -0.013955  0.118684  0  3.976584  0
C  C78  1  0.69017077  0.35782562  0.79190056  1  -0.039049  0  -0.089434  -0.190911  0  3.941095  0
C  C79  1  0.27051824  0.85435447  0.25518647  1  -0.019613  0  -0.091827  -0.193848  0  3.932391  0
C  C80  1  0.67685543  0.27144404  0.70603071  1  -0.056862  0  -0.006042  0.086807  0  4.012178  0
C  C81  1  0.27600932  0.95493349  0.30506458  1  -0.061285  0  -0.004368  0.090877  0  4.010268  0
C  C82  1  0.76205140  0.24543473  0.72139136  1  -0.001922  0  -0.096127  -0.150846  0  4.002263  0
C  C83  1  0.18224310  0.96608016  0.26437007  1  -0.024577  0  -0.096959  -0.151656  0  3.99392  0
C  C84  1  0.85620080  0.30164631  0.82222953  1  -0.049399  0  -0.097691  -0.087116  0  4.080678  0
C  C85  1  0.08470284  0.87762377  0.17590236  1  -0.062185  0  -0.09498  -0.076626  0  4.055623  0
C  C86  1  0.86672376  0.38520591  0.90764836  1  -0.076324  0  -0.10029  -0.156846  0  4.002454  0
C  C87  1  0.08031101  0.77792503  0.12877746  1  -0.043657  0  -0.1026  -0.16239  0  4.019978  0
C  C88  1  0.56473969  0.18928198  0.50638438  1  -0.020396  0  -0.095049  -0.183213  0  3.978158  0
C  C89  1  0.38430094  0.05769325  0.50207804  1  -0.047961  0  -0.09596  -0.184127  0  3.991511  0
C  C90  1  0.30273887  0.69667522  0.79285344  1  0.384202  0  0.005051  -0.056726  0  3.970991  0
C  C91  1  0.85881471  0.28125510  0.18670087  1  0.431963  0  0.000931  -0.068591  0  4.000276  0
C  C92  1  0.47169551  0.11167460  0.40522936  1  -0.013445  0  -0.009244  0.045055  0  4.019754  0
C  C93  1  0.47956131  0.12959913  0.60249864  1  -0.015248  0  -0.011588  0.043456  0  4.026303  0
C  C94  1  0.37860071  0.04586079  0.40448032  1  -0.013125  0  -0.009998  0.020578  0  3.973382  0
C  C95  1  0.57117535  0.19866960  0.60366122  1  0.030287  0  -0.012451  0.017957  0  3.98912  0
C  C96  1  0.06804352  0.55005297  0.55960505  1  -0.01837  0  -0.014576  0.073737  0  3.944454  0
C  C97  1  0.12361599  0.43668712  0.41301037  1  -0.01099  0  -0.01463  0.06792  0  3.959152  0
C  C98  1  0.98867361  0.45766620  0.46107438  1  -0.028348  0  -0.101048  -0.197836  0  4.018598  0
C  C99  1  0.20362828  0.52979245  0.51147821  1  -0.06119  0  -0.100594  -0.199814  0  3.995723  0
C  C100  1  0.01382418  0.39997560  0.38861544  1  -0.032033  0  -0.017892  0.023537  0  4.029504  0
C  C101  1  0.17834783  0.58594329  0.58529426  1  -0.018655  0  -0.012398  0.034841  0  4.005297  0
C  C102  1  0.40935696  0.42675814  0.11818470  1  -0.048919  0  -0.095464  -0.132001  0  4.016954  0
C  C103  1  0.60733910  0.61035552  0.21422079  1  -0.108282  0  -0.100188  -0.140499  0  4.019388  0
C  C104  1  0.41172401  0.52367753  0.12860084  1  -0.046849  0  -0.100413  -0.138162  0  4.007603  0
C  C105  1  0.60508084  0.51357733  0.20473731  1  -0.050904  0  -0.097931  -0.135356  0  4.002168  0
C  C106  1  0.51032285  0.61643156  0.17086527  1  0.031655  0  -0.017481  0.077068  0  4.064722  0
C  C107  1  0.50562239  0.41773710  0.15070664  1  0.051933  0  -0.012759  0.079401  0  4.053991  0
C  C108  1  0.79661455  0.77455324  0.88740146  1  -0.066584  0  -0.098958  -0.139309  0  4.007011  0
C  C109  1  0.89350583  0.88997048  0.80398714  1  -0.015813  0  -0.100731  -0.138913  0  4.022178  0
C  C110  1  0.88766053  0.77238817  0.88209812  1  -0.043865  0  -0.098605  -0.133866  0  4.001725  0
C  C111  1  0.80238186  0.89158506  0.80857081  1  -0.036377  0  -0.098081  -0.132202  0  4.012715  0
C  C112  1  0.59988092  0.80838352  0.19434827  1  0.387832  0  0.000804  -0.065935  0  4.008375  0
C  C113  1  0.40820314  0.21025705  0.04386233  1  0.417575  0  0.009018  -0.044553  0  3.95693  0
C  C114  1  0.94274961  0.83577336  0.84688506  1  -0.019167  0  -0.015967  0.078588  0  4.054326  0
C  C115  1  0.75585149  0.83979614  0.85698996  1  0.007532  0  -0.013964  0.081075  0  4.051811  0
C  C116  1  0.39302338  0.07511931  0.71048855  1  0.419004  0  0.002967  -0.06216  0  4.005295  0
C  C117  1  0.57590402  0.11281477  0.30137089  1  0.420607  0  0.006014  -0.052332  0  3.966883  0
C  C118  1  0.42040599  0.71781589  0.09724588  1  0.380031  0  0.001331  -0.062578  0  3.995077  0
C  C119  1  0.58866798  0.28941870  0.12857452  1  0.4231  0  0.00552  -0.050218  0  3.962093  0
C  C120  1  0.57235691  0.14498874  0.79164050  1  0.427381  0  0.004251  -0.053919  0  3.99357  0
C  C121  1  0.39637221  0.03010748  0.19837330  1  0.372123  0  0.00526  -0.048597  0  3.957737  0
C  C122  1  0.30496530  0.79128210  0.70640880  1  0.441432  0  0.00269  -0.061511  0  3.976029  0
C  C123  1  0.86091116  0.20555444  0.29050040  1  0.39531  0  0.000313  -0.069113  0  4.014544  0
C  C124  1  0.66065542  0.86031216  0.97082746  1  0.398864  0  0.006159  -0.047187  0  3.957505  0
C  C125  1  0.11472778  0.91269198  0.83083106  1  0.413409  0  0.003138  -0.061568  0  4.004582  0
C  C126  1  0.68287650  0.86915827  0.88962946  1  0.003926  0  -0.038253  -0.044443  0  4.07386  0
C  C127  1  0.05113818  0.85400769  0.86343807  1  -0.020049  0  -0.03855  -0.044389  0  4.087965  0
C  C128  1  0.79767407  0.50819139  0.98536873  1  0.003681  0  -0.157704  -0.189599  0  3.944135  0
C  C129  1  0.82747523  0.50104728  0.09017712  1  -0.009743  0  -0.165058  -0.087794  0  3.962306  0
C  C130  1  0.85676919  0.60450669  0.18456334  1  -0.082344  0  -0.246677  -0.355427  0  3.96628  0
C  C131  1  0.16794355  0.65603465  0.11614668  1  0.010275  0  -0.159903  -0.198034  0  3.946303  0
C  C132  1  0.12541970  0.60694485  0.99417253  1  -0.014641  0  -0.166662  -0.095572  0  3.963721  0
C  C133  1  0.12642409  0.50033814  0.94486992  1  -0.043251  0  -0.247269  -0.368669  0  3.961448  0
C  C134  1  0.03271356  0.60721078  0.63226559  1  -0.039901  0  -0.163889  -0.197408  0  3.951794  0
C  C135  1  0.01368094  0.56026833  0.70548510  1  -0.024376  0  -0.16673  -0.079669  0  3.93816  0
C  C136  1  0.91969433  0.44522008  0.64562174  1  -0.054927  0  -0.252581  -0.360452  0  3.979773  0
C  C137  1  0.15102029  0.37353561  0.33515516  1  -0.0165  0  -0.160023  -0.185281  0  3.974669  0
C  C138  1  0.26678221  0.42800304  0.35402837  1  0.009024  0  -0.165732  -0.08854  0  3.972664  0
C  C139  1  0.28351760  0.35648185  0.26956877  1  -0.049961  0  -0.245702  -0.349758  0  3.976676  0
N  N140  1  0.60469752  0.97073008  0.93421093  1  -0.798417  0  -0.286724  -0.180359  0  3.646226  0
N  N141  1  0.21973174  0.86803573  0.93210310  1  -0.813934  0  -0.265274  -0.175886  0  3.506538  0
N  N142  1  0.36174479  0.80261600  0.86657859  1  -0.802862  0  -0.286296  -0.181373  0  3.620595  0
N  N143  1  0.76924163  0.18313537  0.12828294  1  -0.813112  0  -0.273537  -0.176479  0  3.538801  0
N  N144  1  0.56500401  0.86838541  0.15611159  1  -0.771657  0  -0.271921  -0.172572  0  3.560516  0
N  N145  1  0.43865082  0.13461228  0.01408204  1  -0.765555  0  -0.280226  -0.176341  0  3.63046  0
N  N146  1  0.42660495  0.07253700  0.80426508  1  -0.772498  0  -0.273013  -0.175497  0  3.553938  0
N  N147  1  0.55138126  0.06504334  0.19790073  1  -0.781735  0  -0.282497  -0.178852  0  3.61418  0
N  N148  1  0.45305865  0.81195782  0.09549364  1  -0.806872  0  -0.267001  -0.170543  0  3.522537  0
N  N149  1  0.54952642  0.18315517  0.06627028  1  -0.805649  0  -0.283611  -0.179443  0  3.627877  0
N  N150  1  0.53819754  0.11604508  0.85442284  1  -0.823436  0  -0.27507  -0.168705  0  3.560386  0
N  N151  1  0.44083578  0.01394371  0.13440018  1  -0.799945  0  -0.287964  -0.188347  0  3.614218  0
N  N152  1  0.36267058  0.86095810  0.81336524  1  -0.752609  0  -0.284851  -0.186397  0  3.613887  0
N  N153  1  0.77099380  0.13596363  0.19305095  1  -0.79074  0  -0.275752  -0.176754  0  3.576368  0
N  N154  1  0.61502279  0.92258323  0.99712516  1  -0.768774  0  -0.282363  -0.184679  0  3.618451  0
N  N155  1  0.21489948  0.92076490  0.87199060  1  -0.779721  0  -0.273452  -0.177032  0  3.561565  0
