# generated using pymatgen
data_H16RuC22N(ClO3)2
_symmetry_space_group_name_H-M   'P 1'
_cell_length_a   9.79573745
_cell_length_b   10.78714602
_cell_length_c   10.99488575
_cell_angle_alpha   100.78230051
_cell_angle_beta   93.32255789
_cell_angle_gamma   106.20107336
_symmetry_Int_Tables_number   1
_chemical_formula_structural   H16RuC22N(ClO3)2
_chemical_formula_sum   'H32 Ru2 C44 N2 Cl4 O12'
_cell_volume   1088.47625860
_cell_formula_units_Z   2
loop_
 _symmetry_equiv_pos_site_id
 _symmetry_equiv_pos_as_xyz
  1  'x, y, z'
loop_
 _atom_site_type_symbol
 _atom_site_label
 _atom_site_symmetry_multiplicity
 _atom_site_fract_x
 _atom_site_fract_y
 _atom_site_fract_z
 _atom_site_occupancy
 _atom_site_pbe_cm5_charge
 _atom_site_pbe_ddec_charge
 _atom_site_pbe_ddec_spin_density
 _atom_site_pbe_ddec_sum_bond_order
 _atom_site_pbe_magmom
H  H0  1  0.68582607  0.77464282  0.34385775  1  0.10369  0.121206  0.001129  1.063421  0.0
H  H1  1  0.31453085  0.22557381  0.65627646  1  0.103492  0.120936  0.00105  1.064711  0.0
H  H2  1  0.76251761  0.65849867  0.15635787  1  0.093836  0.090121  -0.000245  1.015326  0.0
H  H3  1  0.23761039  0.34163459  0.84363087  1  0.093782  0.089878  -0.000284  1.016202  0.0
H  H4  1  0.01958048  0.72795111  0.11612159  1  0.093728  0.091028  -0.000249  1.01664  0.0
H  H5  1  0.98053207  0.27210170  0.88378291  1  0.093631  0.09084  -0.000218  1.016509  0.0
H  H6  1  0.19785963  0.90264901  0.26968549  1  0.103744  0.120691  0.000623  1.042959  0.0
H  H7  1  0.80235927  0.09730123  0.73011108  1  0.103867  0.12125  0.00065  1.042444  0.0
H  H8  1  0.55588848  0.36269660  0.37310801  1  0.095722  0.100595  5.4e-05  1.028571  0.0
H  H9  1  0.44409152  0.63747255  0.62688999  1  0.095612  0.100634  -6e-06  1.027802  0.0
H  H10  1  0.69434069  0.49509238  0.33732731  1  0.105539  0.118938  -2.6e-05  0.984359  0.0
H  H11  1  0.30565504  0.50501447  0.66265866  1  0.105445  0.118919  -2.9e-05  0.984241  0.0
H  H12  1  0.54683426  0.40094889  0.22117117  1  0.090642  0.088957  -2.1e-05  1.047176  0.0
H  H13  1  0.45322479  0.59907170  0.77877564  1  0.090809  0.089496  -1.6e-05  1.046244  0.0
H  H14  1  0.33465566  0.29005605  0.29442782  1  0.110562  0.145401  2.3e-05  1.016678  0.0
H  H15  1  0.66535383  0.70995676  0.70552129  1  0.110784  0.145765  1.1e-05  1.016341  0.0
H  H16  1  0.94826697  0.40065472  0.34065440  1  0.102371  0.119816  -1e-05  1.01555  0.0
H  H17  1  0.05165879  0.59921635  0.65933777  1  0.102551  0.119989  -1e-05  1.01483  0.0
H  H18  1  0.09365793  0.63698699  0.40744124  1  0.109242  0.119871  -8.1e-05  0.998984  0.0
H  H19  1  0.90624011  0.36293213  0.59232693  1  0.109243  0.119836  -4.7e-05  0.998378  0.0
H  H20  1  0.23372287  0.03044567  0.89496638  1  0.094553  0.102954  1.1e-05  1.03033  0.0
H  H21  1  0.76636023  0.96956153  0.10505849  1  0.094332  0.102457  -1.2e-05  1.03072  0.0
H  H22  1  0.11191590  0.98021144  0.00454175  1  0.100874  0.107721  3e-05  1.018302  0.0
H  H23  1  0.88813296  0.01981945  0.99547000  1  0.100853  0.107751  2.9e-05  1.018055  0.0
H  H24  1  0.19203774  0.15281384  0.00968808  1  0.092725  0.091455  -0.00036  1.019931  0.0
H  H25  1  0.80791218  0.84721364  0.99021947  1  0.092598  0.091144  -0.00034  1.019691  0.0
H  H26  1  0.41235950  0.21117986  0.92188183  1  0.108804  0.138423  4.3e-05  1.024177  0.0
H  H27  1  0.58767887  0.78883409  0.07810179  1  0.108635  0.138192  4.3e-05  1.024165  0.0
H  H28  1  0.84960194  0.34277463  0.09328229  1  0.102423  0.114993  -4.8e-05  1.012362  0.0
H  H29  1  0.15044859  0.65715340  0.90670130  1  0.102352  0.114804  -4.9e-05  1.012758  0.0
H  H30  1  0.77947846  0.19700908  0.24534626  1  0.097571  0.093387  0.000172  1.057515  0.0
H  H31  1  0.22055534  0.80312508  0.75475941  1  0.097466  0.093314  0.000124  1.057856  0.0
Ru  Ru32  1  0.61145722  0.97984123  0.50069228  1  0.72741  0.725607  1.10729  3.839173  1.029
Ru  Ru33  1  0.38781088  0.02039773  0.49902752  1  0.72984  0.727963  1.103721  3.841425  1.024
C  C34  1  0.89751733  0.90576974  0.41582302  1  0.101998  0.156815  -0.009635  4.003173  -0.001
C  C35  1  0.10301453  0.09399515  0.58443787  1  0.101573  0.155987  -0.0107  4.001401  -0.002
C  C36  1  0.79746184  0.80288716  0.32694401  1  -0.102071  -0.169668  -0.011623  3.958676  -0.006
C  C37  1  0.20288491  0.19713285  0.67316202  1  -0.102342  -0.170158  -0.011059  3.960214  -0.006
C  C38  1  0.84089658  0.73816857  0.22270274  1  -0.102176  -0.087814  -0.014136  4.053395  -0.007
C  C39  1  0.15933725  0.26184637  0.77734533  1  -0.10258  -0.087942  -0.015917  4.054024  -0.008
C  C40  1  0.98609057  0.77575419  0.20082895  1  -0.102817  -0.090188  -0.0141  4.046203  -0.007
C  C41  1  0.01412524  0.22420126  0.79917120  1  -0.102584  -0.089844  -0.013257  4.046046  -0.006
C  C42  1  0.08664310  0.87222124  0.28695842  1  -0.097865  -0.155241  -0.011928  3.972829  -0.006
C  C43  1  0.91365171  0.12772207  0.71302022  1  -0.097903  -0.15573  -0.013095  3.972142  -0.007
C  C44  1  0.04754454  0.93611020  0.39899063  1  0.100668  0.154041  -0.013443  4.001862  -0.004
C  C45  1  0.95293407  0.06357426  0.60117670  1  0.101221  0.154935  -0.011453  4.004663  -0.002
C  C46  1  0.37188782  0.74214895  0.42758023  1  0.208723  0.537341  -0.010085  4.147026  -0.006
C  C47  1  0.62785989  0.25783639  0.57215151  1  0.208552  0.536887  -0.010287  4.146732  -0.006
C  C48  1  0.29590902  0.59957658  0.39027569  1  -0.037096  -0.169868  -0.000126  3.988254  0.001
C  C49  1  0.70393324  0.40038253  0.60923552  1  -0.037033  -0.171303  -8.8e-05  3.989025  0.001
C  C50  1  0.36599588  0.50090719  0.35795025  1  0.097967  0.271016  -0.002293  4.004336  -0.001
C  C51  1  0.63392001  0.49911425  0.64176611  1  0.098132  0.271495  -0.002353  4.004075  -0.002
C  C52  1  0.57978076  0.44238279  0.32121694  1  -0.145552  -0.185051  0.000123  3.892043  0.0
C  C53  1  0.42020896  0.55773659  0.67871727  1  -0.145217  -0.185083  9.2e-05  3.889675  0.0
C  C54  1  0.28442144  0.36804592  0.31826836  1  -0.116287  -0.291366  0.000313  3.950147  0.001
C  C55  1  0.71553692  0.63194098  0.68162608  1  -0.116089  -0.291359  0.000378  3.950263  0.001
C  C56  1  0.13585235  0.33463624  0.31163787  1  0.016833  0.177002  -0.003208  4.088517  -0.002
C  C57  1  0.86410416  0.66529462  0.68829381  1  0.017314  0.177549  -0.003285  4.08808  -0.002
C  C58  1  0.06438091  0.42913659  0.34498725  1  -0.114554  -0.200675  0.000373  4.041459  0.001
C  C59  1  0.93552170  0.57075375  0.65491977  1  -0.114214  -0.200048  0.000395  4.040936  0.001
C  C60  1  0.14587299  0.56036561  0.38330080  1  -0.081308  -0.052026  -0.002898  3.990849  -0.002
C  C61  1  0.85399983  0.43957284  0.61639122  1  -0.081661  -0.052149  -0.00296  3.991316  -0.002
C  C62  1  0.52556203  0.05669115  0.27739740  1  0.212709  0.549961  -0.010989  4.118305  -0.006
C  C63  1  0.47420124  0.94365402  0.72273741  1  0.212229  0.549691  -0.010131  4.121841  -0.005
C  C64  1  0.55826063  0.12473113  0.17299974  1  -0.0295  -0.153956  -0.000497  3.968094  0.0
C  C65  1  0.44168322  0.87563621  0.82726795  1  -0.029387  -0.153529  -0.000571  3.966431  0.0
C  C66  1  0.45251860  0.12742872  0.08071686  1  0.098556  0.264767  -0.001744  4.025124  -0.001
C  C67  1  0.54746952  0.87277983  0.91943136  1  0.098301  0.264669  -0.001684  4.026157  -0.001
C  C68  1  0.20834278  0.05447645  0.99100935  1  -0.145892  -0.192567  -0.000188  3.909025  0.0
C  C69  1  0.79167253  0.94557712  0.00898824  1  -0.14583  -0.192074  -0.000199  3.909037  0.0
C  C70  1  0.49105629  0.20813192  0.99432568  1  -0.116676  -0.300242  0.000247  3.968071  0.0
C  C71  1  0.50895217  0.79192274  0.00568628  1  -0.116616  -0.300408  0.000254  3.969417  0.0
C  C72  1  0.63316604  0.28470898  0.00102055  1  0.016878  0.183684  -0.002174  4.078442  -0.001
C  C73  1  0.36686756  0.71530323  0.99899979  1  0.016587  0.183432  -0.002096  4.078749  -0.001
C  C74  1  0.73961981  0.28157698  0.08934214  1  -0.111973  -0.195682  0.000359  4.025976  0.001
C  C75  1  0.26040565  0.71841934  0.91065948  1  -0.112026  -0.195915  0.000344  4.026886  0.0
C  C76  1  0.69992222  0.20069084  0.17391418  1  -0.082539  -0.059283  -0.002131  4.008639  -0.001
C  C77  1  0.30009883  0.79944847  0.82622173  1  -0.082844  -0.059261  -0.002093  4.00932  -0.001
N  N78  1  0.85027458  0.97269090  0.51464492  1  -0.319605  -0.303756  -0.06454  3.391169  -0.055
N  N79  1  0.15037493  0.02682172  0.48573038  1  -0.320225  -0.302414  -0.062756  3.395284  -0.053
Cl  Cl80  1  0.03895647  0.17040018  0.26009649  1  0.045975  -0.021491  -0.001519  1.64279  0.0
Cl  Cl81  1  0.96107169  0.82945120  0.74009784  1  0.046444  -0.020909  -0.001537  1.643343  0.0
Cl  Cl82  1  0.67781612  0.38745926  0.89690553  1  0.006023  -0.066604  -0.000519  1.549183  0.0
Cl  Cl83  1  0.32226842  0.61250135  0.10308841  1  0.005771  -0.067083  -0.000508  1.550227  0.0
O  O84  1  0.50945701  0.78295651  0.44409029  1  -0.297667  -0.453472  0.018031  2.52654  0.019
O  O85  1  0.49025740  0.21702863  0.55640453  1  -0.297324  -0.452878  0.018913  2.5274  0.019
O  O86  1  0.29456804  0.82112604  0.44362452  1  -0.298849  -0.459662  0.016215  2.514389  0.018
O  O87  1  0.70503499  0.17863665  0.55678203  1  -0.299132  -0.458418  0.017531  2.516617  0.02
O  O88  1  0.51033369  0.53989073  0.36543954  1  -0.170461  -0.133738  -0.000263  2.615224  0.0
O  O89  1  0.48959385  0.46019922  0.63434509  1  -0.170571  -0.133837  -0.000342  2.615447  0.0
O  O90  1  0.62173101  0.01234433  0.32293294  1  -0.299049  -0.456285  0.018906  2.441118  0.02
O  O91  1  0.37754438  0.98724160  0.67703880  1  -0.299498  -0.458336  0.016456  2.440253  0.017
O  O92  1  0.40785533  0.05462527  0.32383948  1  -0.294481  -0.450162  0.017697  2.494872  0.019
O  O93  1  0.59161140  0.94521337  0.67602834  1  -0.294495  -0.450677  0.015454  2.49476  0.016
O  O94  1  0.31827666  0.04852551  0.07970270  1  -0.173491  -0.13759  -0.00034  2.601411  0.0
O  O95  1  0.68173133  0.95166503  0.92041066  1  -0.173703  -0.137863  -0.000276  2.601533  0.0
