# generated using pymatgen
data_HgH6C5S5I2
_symmetry_space_group_name_H-M   'P 1'
_cell_length_a   4.40986277
_cell_length_b   15.36327028
_cell_length_c   20.52010610
_cell_angle_alpha   100.47889496
_cell_angle_beta   89.99990776
_cell_angle_gamma   89.99994903
_symmetry_Int_Tables_number   1
_chemical_formula_structural   HgH6C5S5I2
_chemical_formula_sum   'Hg4 H24 C20 S20 I8'
_cell_volume   1367.04902391
_cell_formula_units_Z   4
loop_
 _symmetry_equiv_pos_site_id
 _symmetry_equiv_pos_as_xyz
  1  'x, y, z'
loop_
 _atom_site_type_symbol
 _atom_site_label
 _atom_site_symmetry_multiplicity
 _atom_site_fract_x
 _atom_site_fract_y
 _atom_site_fract_z
 _atom_site_occupancy
 _atom_site_hle17_bader_spin_density
 _atom_site_hle17_ddec_charge
 _atom_site_hle17_ddec_spin_density
 _atom_site_hle17_ddec_sum_bond_order
 _atom_site_hle17_magmom
 _atom_site_hse06_10hf_bader_spin_density
 _atom_site_hse06_10hf_ddec_charge
 _atom_site_hse06_10hf_ddec_spin_density
 _atom_site_hse06_10hf_ddec_sum_bond_order
 _atom_site_hse06_10hf_magmom
 _atom_site_hse06_bader_spin_density
 _atom_site_hse06_ddec_charge
 _atom_site_hse06_ddec_spin_density
 _atom_site_hse06_ddec_sum_bond_order
 _atom_site_hse06_magmom
 _atom_site_pbe_bader_spin_density
 _atom_site_pbe_cm5_charge
 _atom_site_pbe_ddec_charge
 _atom_site_pbe_ddec_spin_density
 _atom_site_pbe_ddec_sum_bond_order
 _atom_site_pbe_magmom
Hg  Hg0  1  0.26319845  0.75707145  0.91313560  1  0  0.416491  0  2.354139  0  0  0.3169  0  2.873569  0  0  0.353479  0  2.852982  0  0  0.284616  0.292415  0  2.887871  0
Hg  Hg1  1  0.76320850  0.74292993  0.58686768  1  0  0.416524  0  2.354081  0  0  0.31693  0  2.873521  0  0  0.353505  0  2.852932  0  0  0.284638  0.292437  0  2.88784  0
Hg  Hg2  1  0.73679091  0.24292855  0.08686364  1  0  0.416532  0  2.354113  0  0  0.316952  0  2.873535  0  0  0.353528  0  2.852949  0  0  0.284633  0.292456  0  2.887865  0
Hg  Hg3  1  0.23678994  0.25707071  0.41313458  1  0  0.416512  0  2.354102  0  0  0.316918  0  2.873542  0  0  0.353493  0  2.852954  0  0  0.284626  0.292424  0  2.887861  0
H  H4  1  0.67379722  0.63015363  0.13492664  1  0  0.123735  0  0.965584  0  0  0.138499  0  1.032127  0  0  0.140018  0  1.032112  0  0  0.082333  0.137371  0  1.032208  0
H  H5  1  0.17380079  0.86985097  0.36507584  1  0  0.123788  0  0.965537  0  0  0.138533  0  1.032103  0  0  0.140053  0  1.032087  0  0  0.082335  0.137385  0  1.032205  0
H  H6  1  0.32619895  0.36984900  0.86507540  1  0  0.123745  0  0.965515  0  0  0.138493  0  1.032084  0  0  0.140011  0  1.032068  0  0  0.082328  0.137354  0  1.032177  0
H  H7  1  0.82619764  0.13015100  0.63492611  1  0  0.123756  0  0.965489  0  0  0.138512  0  1.032038  0  0  0.140029  0  1.032023  0  0  0.082331  0.137364  0  1.032139  0
H  H8  1  0.03591571  0.58463908  0.14917446  1  0  0.131036  0  0.965417  0  0  0.148974  0  1.027633  0  0  0.150803  0  1.027278  0  0  0.087947  0.147604  0  1.028009  0
H  H9  1  0.53592088  0.91536291  0.35082771  1  0  0.131139  0  0.965408  0  0  0.149087  0  1.027599  0  0  0.150915  0  1.027245  0  0  0.087999  0.147717  0  1.027972  0
H  H10  1  0.96407819  0.41536090  0.85082722  1  0  0.131046  0  0.965401  0  0  0.148984  0  1.027616  0  0  0.150814  0  1.027259  0  0  0.087953  0.147614  0  1.027993  0
H  H11  1  0.46407982  0.08463641  0.64917339  1  0  0.131122  0  0.965336  0  0  0.149043  0  1.027577  0  0  0.15087  0  1.027224  0  0  0.087982  0.147673  0  1.02795  0
H  H12  1  0.97753253  0.62723885  0.07497010  1  0  0.122996  0  0.985547  0  0  0.137496  0  1.053735  0  0  0.139467  0  1.052762  0  0  0.072762  0.136069  0  1.054473  0
H  H13  1  0.47754016  0.87276234  0.42503181  1  0  0.123046  0  0.985566  0  0  0.137524  0  1.053785  0  0  0.139495  0  1.052812  0  0  0.07279  0.136098  0  1.05452  0
H  H14  1  0.02246137  0.37275981  0.92503140  1  0  0.122972  0  0.98555  0  0  0.137461  0  1.053768  0  0  0.139432  0  1.052795  0  0  0.072735  0.136035  0  1.054505  0
H  H15  1  0.52246054  0.12723832  0.57496898  1  0  0.123038  0  0.98559  0  0  0.137535  0  1.053783  0  0  0.139497  0  1.052817  0  0  0.072777  0.136107  0  1.054521  0
H  H16  1  0.81577941  0.09471637  0.23790500  1  0  0.119872  0  0.992468  0  0  0.134822  0  1.060442  0  0  0.136751  0  1.059725  0  0  0.069205  0.133227  0  1.061328  0
H  H17  1  0.31578367  0.40528616  0.26209658  1  0  0.119877  0  0.992418  0  0  0.134814  0  1.060394  0  0  0.136745  0  1.059675  0  0  0.069193  0.133215  0  1.061295  0
H  H18  1  0.18421902  0.90528429  0.76209531  1  0  0.119826  0  0.992464  0  0  0.134767  0  1.060438  0  0  0.136697  0  1.05972  0  0  0.069179  0.13317  0  1.061334  0
H  H19  1  0.68421703  0.59471383  0.73790364  1  0  0.119879  0  0.992421  0  0  0.13481  0  1.060406  0  0  0.13674  0  1.059687  0  0  0.069192  0.133212  0  1.061304  0
H  H20  1  0.81663856  0.07375317  0.32077606  1  0  0.126805  0  0.98583  0  0  0.143101  0  1.053304  0  0  0.145045  0  1.05305  0  0  0.078298  0.141615  0  1.053623  0
H  H21  1  0.31663886  0.42624672  0.17922466  1  0  0.126787  0  0.985852  0  0  0.143097  0  1.053311  0  0  0.145041  0  1.053056  0  0  0.078298  0.141611  0  1.05363  0
H  H22  1  0.18336214  0.92624484  0.67922340  1  0  0.126784  0  0.985853  0  0  0.143092  0  1.053303  0  0  0.145036  0  1.053047  0  0  0.078289  0.141607  0  1.05362  0
H  H23  1  0.68335957  0.57375328  0.82077507  1  0  0.126764  0  0.985875  0  0  0.143083  0  1.053327  0  0  0.145026  0  1.053074  0  0  0.078299  0.141595  0  1.053648  0
H  H24  1  0.50389214  0.03572508  0.26728831  1  0  0.114373  0  0.992337  0  0  0.127174  0  1.064689  0  0  0.12862  0  1.065222  0  0  0.078036  0.126101  0  1.064346  0
H  H25  1  0.00388963  0.46427359  0.23271185  1  0  0.114377  0  0.992315  0  0  0.127179  0  1.064669  0  0  0.128621  0  1.065205  0  0  0.078026  0.126105  0  1.064327  0
H  H26  1  0.49610856  0.96427359  0.73271123  1  0  0.114347  0  0.992377  0  0  0.127149  0  1.064729  0  0  0.128591  0  1.065267  0  0  0.078035  0.126077  0  1.064383  0
H  H27  1  0.99610653  0.53572508  0.76728769  1  0  0.114391  0  0.992319  0  0  0.127195  0  1.064669  0  0  0.128636  0  1.065206  0  0  0.078046  0.126121  0  1.064327  0
C  C28  1  0.50665812  0.88473243  0.05916604  1  0  -0.033562  0  3.761986  0  0  -0.027219  0  4.069259  0  0  -0.011817  0  4.082977  0  0  -0.00161  -0.036957  0  4.059457  0
C  C29  1  0.00664604  0.61527025  0.44083331  1  0  -0.033573  0  3.761852  0  0  -0.027268  0  4.069194  0  0  -0.011869  0  4.082915  0  0  -0.001667  -0.037002  0  4.059385  0
C  C30  1  0.49335846  0.11526757  0.94083272  1  0  -0.033522  0  3.76172  0  0  -0.027178  0  4.068996  0  0  -0.011781  0  4.082716  0  0  -0.001621  -0.03691  0  4.059183  0
C  C31  1  0.99334332  0.38472908  0.55916632  1  0  -0.033624  0  3.761907  0  0  -0.027245  0  4.069097  0  0  -0.011848  0  4.082821  0  0  -0.001664  -0.036981  0  4.059297  0
C  C32  1  0.84601315  0.81464708  0.13909086  1  0  -0.104455  0  3.817466  0  0  -0.093869  0  4.108502  0  0  -0.091845  0  4.127846  0  0  -0.035423  -0.095328  0  4.095409  0
C  C33  1  0.34600827  0.68535351  0.36090711  1  0  -0.104383  0  3.817561  0  0  -0.09378  0  4.108537  0  0  -0.091754  0  4.127876  0  0  -0.035368  -0.09524  0  4.095447  0
C  C34  1  0.15400343  0.18535756  0.86090659  1  0  -0.10446  0  3.817422  0  0  -0.093817  0  4.108356  0  0  -0.091791  0  4.127694  0  0  -0.03537  -0.095277  0  4.095267  0
C  C35  1  0.65399243  0.31464384  0.63909226  1  0  -0.104395  0  3.817337  0  0  -0.093741  0  4.108261  0  0  -0.091715  0  4.127601  0  0  -0.035349  -0.095201  0  4.095171  0
C  C36  1  0.80275984  0.90117854  0.16984883  1  0  -0.109712  0  3.811106  0  0  -0.100367  0  4.102942  0  0  -0.098861  0  4.122183  0  0  -0.033984  -0.101421  0  4.089906  0
C  C37  1  0.30276002  0.59882338  0.33015177  1  0  -0.109734  0  3.811099  0  0  -0.100387  0  4.102946  0  0  -0.098881  0  4.122185  0  0  -0.033995  -0.101442  0  4.089913  0
C  C38  1  0.19724993  0.09881882  0.83014809  1  0  -0.109811  0  3.811063  0  0  -0.100471  0  4.102912  0  0  -0.098967  0  4.122153  0  0  -0.034045  -0.101524  0  4.089875  0
C  C39  1  0.69725202  0.40118058  0.66985094  1  0  -0.109809  0  3.811069  0  0  -0.10047  0  4.102905  0  0  -0.098966  0  4.122147  0  0  -0.034021  -0.101523  0  4.08987  0
C  C40  1  0.91887969  0.63570258  0.12779667  1  0  -0.344794  0  3.653017  0  0  -0.407899  0  3.894752  0  0  -0.409215  0  3.90104  0  0  -0.244901  -0.406756  0  3.890312  0
C  C41  1  0.41888323  0.86429995  0.37220545  1  0  -0.34502  0  3.653112  0  0  -0.408115  0  3.894834  0  0  -0.409439  0  3.901131  0  0  -0.24499  -0.406944  0  3.8904  0
C  C42  1  0.08111874  0.36429740  0.87220501  1  0  -0.344802  0  3.652901  0  0  -0.407893  0  3.894617  0  0  -0.409219  0  3.900926  0  0  -0.244867  -0.406731  0  3.890165  0
C  C43  1  0.58111521  0.13570137  0.62779495  1  0  -0.344945  0  3.652977  0  0  -0.408043  0  3.894719  0  0  -0.409356  0  3.90103  0  0  -0.244939  -0.40687  0  3.89028  0
C  C44  1  0.74926256  0.04747774  0.26948815  1  0  -0.347738  0  3.654779  0  0  -0.412296  0  3.892946  0  0  -0.414205  0  3.899637  0  0  -0.247947  -0.41068  0  3.888272  0
C  C45  1  0.24926464  0.45252350  0.23051181  1  0  -0.347695  0  3.654719  0  0  -0.412255  0  3.892909  0  0  -0.414161  0  3.899608  0  0  -0.247904  -0.410627  0  3.8882  0
C  C46  1  0.25074041  0.95252159  0.73051149  1  0  -0.347649  0  3.654757  0  0  -0.412202  0  3.892949  0  0  -0.414108  0  3.899649  0  0  -0.247924  -0.410579  0  3.888248  0
C  C47  1  0.75073606  0.54747584  0.76948783  1  0  -0.347673  0  3.654769  0  0  -0.412237  0  3.892954  0  0  -0.414139  0  3.899654  0  0  -0.247905  -0.410614  0  3.888256  0
S  S48  1  0.27687631  0.90568689  0.99824928  1  0  -0.185662  0  2.316791  0  0  -0.17397  0  2.696308  0  0  -0.19077  0  2.699855  0  0  -0.131859  -0.162773  0  2.693618  0
S  S49  1  0.77687389  0.59431582  0.50175174  1  0  -0.185706  0  2.316746  0  0  -0.174015  0  2.696299  0  0  -0.190811  0  2.699843  0  0  -0.13187  -0.162819  0  2.693608  0
S  S50  1  0.72313346  0.09431377  0.00175006  1  0  -0.185713  0  2.316758  0  0  -0.174042  0  2.696315  0  0  -0.190839  0  2.699862  0  0  -0.131874  -0.162844  0  2.693623  0
S  S51  1  0.22312001  0.40568416  0.49824945  1  0  -0.185636  0  2.316773  0  0  -0.173957  0  2.696282  0  0  -0.190753  0  2.699825  0  0  -0.131848  -0.162762  0  2.693592  0
S  S52  1  0.67294462  0.78499893  0.06223036  1  0  0.177104  0  2.787794  0  0  0.177562  0  3.151425  0  0  0.176385  0  3.157101  0  0  0.106921  0.177702  0  3.147702  0
S  S53  1  0.17294132  0.71500304  0.43776738  1  0  0.17709  0  2.787759  0  0  0.17755  0  3.15143  0  0  0.176374  0  3.157106  0  0  0.106918  0.177693  0  3.147703  0
S  S54  1  0.32706969  0.21500240  0.93776664  1  0  0.177147  0  2.787695  0  0  0.177578  0  3.151366  0  0  0.176407  0  3.157037  0  0  0.106958  0.177722  0  3.14764  0
S  S55  1  0.82705258  0.28499564  0.56223168  1  0  0.1771  0  2.787759  0  0  0.177518  0  3.151394  0  0  0.176344  0  3.157068  0  0  0.106906  0.17766  0  3.147668  0
S  S56  1  0.59357880  0.96631254  0.12539560  1  0  0.210922  0  2.709179  0  0  0.205507  0  3.06957  0  0  0.207327  0  3.072213  0  0  0.117275  0.2036  0  3.067907  0
S  S57  1  0.09356523  0.53369012  0.37460323  1  0  0.210977  0  2.709164  0  0  0.205581  0  3.069554  0  0  0.207401  0  3.072198  0  0  0.117325  0.203671  0  3.067895  0
S  S58  1  0.40642870  0.03368879  0.87460236  1  0  0.210904  0  2.709309  0  0  0.205497  0  3.069695  0  0  0.207319  0  3.072342  0  0  0.117252  0.203584  0  3.068051  0
S  S59  1  0.90642640  0.46630988  0.62539553  1  0  0.210956  0  2.709344  0  0  0.20553  0  3.069724  0  0  0.20735  0  3.072369  0  0  0.117296  0.203633  0  3.068039  0
S  S60  1  0.05974377  0.73947189  0.17348041  1  0  0.084751  0  2.557649  0  0  0.080177  0  2.931133  0  0  0.074841  0  2.936046  0  0  0.014911  0.083957  0  2.92777  0
S  S61  1  0.55974510  0.76053210  0.32651862  1  0  0.084766  0  2.557569  0  0  0.080219  0  2.931014  0  0  0.074884  0  2.935924  0  0  0.014933  0.083997  0  2.92764  0
S  S62  1  0.94026600  0.26052943  0.82651756  1  0  0.084819  0  2.557684  0  0  0.08023  0  2.931158  0  0  0.074896  0  2.936074  0  0  0.014928  0.08401  0  2.927788  0
S  S63  1  0.44026014  0.23946988  0.67348188  1  0  0.084762  0  2.557717  0  0  0.080182  0  2.931158  0  0  0.074849  0  2.936067  0  0  0.0149  0.083961  0  2.927783  0
S  S64  1  0.95460094  0.94464748  0.24717757  1  0  0.104047  0  2.520969  0  0  0.117506  0  2.875913  0  0  0.11291  0  2.877865  0  0  0.031928  0.120785  0  2.874553  0
S  S65  1  0.45459505  0.55535372  0.25282192  1  0  0.103997  0  2.5209  0  0  0.117443  0  2.875864  0  0  0.112845  0  2.877815  0  0  0.031894  0.120724  0  2.874498  0
S  S66  1  0.04540203  0.05535252  0.75282168  1  0  0.104101  0  2.521098  0  0  0.117547  0  2.876062  0  0  0.112954  0  2.878012  0  0  0.031962  0.120824  0  2.874707  0
S  S67  1  0.54539885  0.44464561  0.74717772  1  0  0.104065  0  2.521044  0  0  0.117519  0  2.875986  0  0  0.112925  0  2.877933  0  0  0.03192  0.120789  0  2.874638  0
I  I68  1  0.29267570  0.59262218  0.94337933  1  0  -0.319931  0  1.180343  0  0  -0.278586  0  1.519464  0  0  -0.294693  0  1.504396  0  0  -0.177063  -0.267764  0  1.530469  0
I  I69  1  0.79268773  0.90737919  0.55662442  1  0  -0.319947  0  1.180326  0  0  -0.2786  0  1.519457  0  0  -0.294703  0  1.504385  0  0  -0.177081  -0.267799  0  1.530518  0
I  I70  1  0.70730912  0.40737846  0.05662390  1  0  -0.319946  0  1.180368  0  0  -0.278598  0  1.5195  0  0  -0.294704  0  1.504429  0  0  -0.177079  -0.267803  0  1.530572  0
I  I71  1  0.20731297  0.09262080  0.44337677  1  0  -0.319947  0  1.180342  0  0  -0.278593  0  1.519475  0  0  -0.294698  0  1.504401  0  0  -0.177075  -0.267789  0  1.53053  0
I  I72  1  0.77776119  0.80007098  0.83209299  1  0  -0.286303  0  1.401383  0  0  -0.233542  0  1.792119  0  0  -0.254271  0  1.774659  0  0  -0.151474  -0.218797  0  1.805279  0
I  I73  1  0.27778271  0.69992974  0.66790970  1  0  -0.286303  0  1.401404  0  0  -0.233524  0  1.792113  0  0  -0.254247  0  1.774647  0  0  -0.151459  -0.218766  0  1.805256  0
I  I74  1  0.22221910  0.19992968  0.16790780  1  0  -0.286312  0  1.401361  0  0  -0.233547  0  1.7921  0  0  -0.254272  0  1.774632  0  0  -0.15147  -0.218784  0  1.805227  0
I  I75  1  0.72221572  0.30006959  0.33209091  1  0  -0.286306  0  1.401365  0  0  -0.233543  0  1.792105  0  0  -0.254268  0  1.774637  0  0  -0.151465  -0.218781  0  1.805233  0
