# generated using pymatgen
data_CdH29C24S4N5
_symmetry_space_group_name_H-M   'P 1'
_cell_length_a   9.56749507
_cell_length_b   11.05572470
_cell_length_c   12.98900000
_cell_angle_alpha   90.00000000
_cell_angle_beta   100.03166465
_cell_angle_gamma   90.00000000
_symmetry_Int_Tables_number   1
_chemical_formula_structural   CdH29C24S4N5
_chemical_formula_sum   'Cd2 H58 C48 S8 N10'
_cell_volume   1352.91418154
_cell_formula_units_Z   2
loop_
 _symmetry_equiv_pos_site_id
 _symmetry_equiv_pos_as_xyz
  1  'x, y, z'
loop_
 _atom_site_type_symbol
 _atom_site_label
 _atom_site_symmetry_multiplicity
 _atom_site_fract_x
 _atom_site_fract_y
 _atom_site_fract_z
 _atom_site_occupancy
 _atom_site_hle17_bader_spin_density
 _atom_site_hle17_ddec_charge
 _atom_site_hle17_ddec_spin_density
 _atom_site_hle17_ddec_sum_bond_order
 _atom_site_hle17_magmom
 _atom_site_hse06_10hf_bader_spin_density
 _atom_site_hse06_10hf_ddec_charge
 _atom_site_hse06_10hf_ddec_spin_density
 _atom_site_hse06_10hf_ddec_sum_bond_order
 _atom_site_hse06_10hf_magmom
 _atom_site_hse06_bader_spin_density
 _atom_site_hse06_ddec_charge
 _atom_site_hse06_ddec_spin_density
 _atom_site_hse06_ddec_sum_bond_order
 _atom_site_hse06_magmom
 _atom_site_pbe_bader_charge
 _atom_site_pbe_bader_spin_density
 _atom_site_pbe_cm5_charge
 _atom_site_pbe_ddec_charge
 _atom_site_pbe_ddec_spin_density
 _atom_site_pbe_ddec_sum_bond_order
 _atom_site_pbe_magmom
Cd  Cd0  1  0.07725536  0.11792985  0.28429999  1  0  0.711793  0  2.200755  0  0  0.547811  0  2.664928  0  0  0.588099  0  2.639207  0  0.998439  0  0.560237  0.518453  0  2.683505  0
Cd  Cd1  1  0.92274425  0.61792964  0.71570034  1  0  0.711768  0  2.200771  0  0  0.54778  0  2.664965  0  0  0.588068  0  2.639244  0  0.998469  0  0.560219  0.518428  0  2.683541  0
H  H2  1  0.95097307  0.55337485  0.33818750  1  0  0.0702  0  0.971888  0  0  0.084156  0  1.040372  0  0  0.085527  0  1.039424  0  0.096306  0  0.094872  0.083031  0  1.041297  0
H  H3  1  0.04902548  0.05337325  0.66181193  1  0  0.070139  0  0.971965  0  0  0.084103  0  1.040419  0  0  0.085465  0  1.039485  0  0.096318  0  0.094864  0.082975  0  1.041348  0
H  H4  1  0.02167871  0.67712612  0.27644618  1  0  0.052782  0  0.94324  0  0  0.069759  0  1.009043  0  0  0.069932  0  1.009451  0  0.055149  0  0.098835  0.069737  0  1.008734  0
H  H5  1  0.97831983  0.17712543  0.72355325  1  0  0.052753  0  0.943299  0  0  0.069714  0  1.009102  0  0  0.069891  0  1.009509  0  0.055178  0  0.098808  0.069692  0  1.008791  0
H  H6  1  0.06659538  0.69639126  0.47597635  1  0  0.106722  0  0.961457  0  0  0.131614  0  1.020402  0  0  0.132117  0  1.021485  0  0.045164  0  0.085043  0.130873  0  1.020324  0
H  H7  1  0.93340422  0.19639056  0.52402475  1  0  0.106736  0  0.961481  0  0  0.131599  0  1.020456  0  0  0.132101  0  1.021544  0  0.045195  0  0.085041  0.130859  0  1.020377  0
H  H8  1  0.22745665  0.69076431  0.42561443  1  0  0.100341  0  0.960011  0  0  0.12134  0  1.022027  0  0  0.12217  0  1.022926  0  0.016909  0  0.083929  0.120642  0  1.021557  0
H  H9  1  0.77254083  0.19076361  0.57438486  1  0  0.100304  0  0.960031  0  0  0.121304  0  1.022051  0  0  0.122136  0  1.022949  0  0.0169  0  0.083912  0.120606  0  1.021581  0
H  H10  1  0.16445847  0.55957164  0.48308292  1  0  0.103179  0  0.973504  0  0  0.121889  0  1.039638  0  0  0.122258  0  1.042451  0  0.055671  0  0.084425  0.121675  0  1.037494  0
H  H11  1  0.83554008  0.05957095  0.51691497  1  0  0.103187  0  0.973522  0  0  0.121903  0  1.039644  0  0  0.122274  0  1.042457  0  0.055637  0  0.084432  0.121689  0  1.0375  0
H  H12  1  0.33568145  0.51366239  0.23331986  1  0  0.091739  0  0.945855  0  0  0.103749  0  1.01069  0  0  0.105413  0  1.009379  0  0.095687  0  0.105962  0.102079  0  1.012481  0
H  H13  1  0.66431710  0.01366261  0.76668034  1  0  0.09178  0  0.94585  0  0  0.103797  0  1.010669  0  0  0.105457  0  1.009358  0  0.095685  0  0.105994  0.102128  0  1.012459  0
H  H14  1  0.26745252  0.65883967  0.25772364  1  0  0.083326  0  0.953186  0  0  0.093815  0  1.0262  0  0  0.095399  0  1.024575  0  0.084081  0  0.10589  0.091703  0  1.028872  0
H  H15  1  0.73254709  0.15883898  0.74227592  1  0  0.083333  0  0.9532  0  0  0.093827  0  1.026218  0  0  0.095405  0  1.024596  0  0.084064  0  0.10589  0.091714  0  1.02889  0
H  H16  1  0.26415995  0.41728517  0.05746593  1  0  0.10173  0  0.99089  0  0  0.107262  0  1.060188  0  0  0.110433  0  1.059574  0  0.088186  0  0.096208  0.105087  0  1.060318  0
H  H17  1  0.73583965  0.91728496  0.94253440  1  0  0.101709  0  0.990904  0  0  0.107239  0  1.060211  0  0  0.11041  0  1.059597  0  0.088204  0  0.096201  0.105064  0  1.06034  0
H  H18  1  0.14073013  0.44079697  0.87266600  1  0  0.074057  0  0.943731  0  0  0.085031  0  1.001753  0  0  0.087318  0  1.000505  0  0.067664  0  0.112037  0.082993  0  1.003438  0
H  H19  1  0.85926948  0.94079857  0.12733510  1  0  0.074086  0  0.94376  0  0  0.085038  0  1.001802  0  0  0.087319  0  1.000557  0  0.067637  0  0.112029  0.083  0  1.003485  0
H  H20  1  0.96286642  0.76702435  0.93705741  1  0  0.066579  0  0.980445  0  0  0.072316  0  1.051285  0  0  0.07437  0  1.050596  0  0.137635  0  0.101364  0.070727  0  1.051797  0
H  H21  1  0.03713318  0.26702275  0.06294061  1  0  0.066536  0  0.980508  0  0  0.072252  0  1.051363  0  0  0.074303  0  1.050678  0  0.137741  0  0.101356  0.070663  0  1.051876  0
H  H22  1  0.07997899  0.75807423  0.12550249  1  0  0.104536  0  0.966342  0  0  0.114355  0  1.03065  0  0  0.117612  0  1.029264  0  0.060845  0  0.099897  0.111793  0  1.032168  0
H  H23  1  0.92002273  0.25807263  0.87449581  1  0  0.104554  0  0.9663  0  0  0.114382  0  1.030608  0  0  0.117639  0  1.029222  0  0.060842  0  0.09991  0.111825  0  1.032118  0
H  H24  1  0.46623030  0.00133686  0.57899472  1  0  0.067504  0  0.943326  0  0  0.084231  0  1.00455  0  0  0.08531  0  1.003634  0  0.060311  0  0.097613  0.083367  0  1.005469  0
H  H25  1  0.53376824  0.50133756  0.42100317  1  0  0.067502  0  0.943294  0  0  0.084271  0  1.004482  0  0  0.085351  0  1.003564  0  0.060258  0  0.097617  0.083406  0  1.005402  0
H  H26  1  0.59982866  0.89155350  0.56969401  1  0  0.066244  0  0.938084  0  0  0.081674  0  1.002586  0  0  0.081979  0  1.003489  0  0.050776  0  0.09978  0.081399  0  1.001928  0
H  H27  1  0.40017095  0.39155461  0.43030479  1  0  0.066302  0  0.938115  0  0  0.081736  0  1.002609  0  0  0.08204  0  1.003514  0  0.050756  0  0.099797  0.081459  0  1.001953  0
H  H28  1  0.46023851  0.82976198  0.70525880  1  0  0.095562  0  0.969041  0  0  0.115965  0  1.034609  0  0  0.117346  0  1.034355  0  -0.005704  0  0.079145  0.114113  0  1.035958  0
H  H29  1  0.53976003  0.32976219  0.29473908  1  0  0.095541  0  0.969  0  0  0.115929  0  1.034589  0  0  0.117308  0  1.034337  0  -0.005737  0  0.079137  0.114077  0  1.035938  0
H  H30  1  0.43167535  0.72573533  0.59982244  1  0  0.096973  0  0.959296  0  0  0.119162  0  1.021048  0  0  0.12008  0  1.022131  0  0.036176  0  0.083505  0.118344  0  1.020277  0
H  H31  1  0.56832320  0.22573554  0.40017545  1  0  0.096921  0  0.959369  0  0  0.119124  0  1.021106  0  0  0.120042  0  1.022188  0  0.036195  0  0.08348  0.118306  0  1.020334  0
H  H32  1  0.29924881  0.83676921  0.61193345  1  0  0.103344  0  0.981622  0  0  0.121158  0  1.052015  0  0  0.122441  0  1.052537  0  0.026853  0  0.076026  0.119041  0  1.053301  0
H  H33  1  0.70075079  0.33677033  0.38806380  1  0  0.10336  0  0.981559  0  0  0.121172  0  1.051953  0  0  0.122455  0  1.052471  0  0.026958  0  0.076024  0.119055  0  1.053239  0
H  H34  1  0.45125030  0.78221919  0.31695488  1  0  0.091078  0  0.986343  0  0  0.098516  0  1.064618  0  0  0.100983  0  1.061764  0  0.105397  0  0.103989  0.096073  0  1.06772  0
H  H35  1  0.54875143  0.28221940  0.68304418  1  0  0.091115  0  0.986279  0  0  0.098527  0  1.064591  0  0  0.100993  0  1.061737  0  0.105411  0  0.103992  0.096085  0  1.067691  0
H  H36  1  0.55234544  0.73633889  0.43857654  1  0  0.085204  0  0.932179  0  0  0.098471  0  0.999668  0  0  0.100151  0  0.99803  0  0.067245  0  0.107259  0.096782  0  1.00161  0
H  H37  1  0.44765204  0.23634091  0.56142199  1  0  0.085194  0  0.932204  0  0  0.098458  0  0.999693  0  0  0.100144  0  0.998053  0  0.067247  0  0.10726  0.096769  0  1.001636  0
H  H38  1  0.79783160  0.74966140  0.42998030  1  0  0.111527  0  0.976403  0  0  0.122777  0  1.038146  0  0  0.12578  0  1.037434  0  0.106962  0  0.097934  0.120712  0  1.038552  0
H  H39  1  0.20217013  0.24966251  0.57001799  1  0  0.111532  0  0.976382  0  0  0.122751  0  1.038153  0  0  0.125753  0  1.037442  0  0.106976  0  0.097934  0.120685  0  1.03856  0
H  H40  1  0.00251135  0.87096235  0.38575220  1  0  0.069925  0  0.977817  0  0  0.074557  0  1.052588  0  0  0.076394  0  1.051534  0  0.132963  0  0.104031  0.07375  0  1.052551  0
H  H41  1  0.99749250  0.37096437  0.61424714  1  0  0.069948  0  0.977861  0  0  0.074577  0  1.052625  0  0  0.076424  0  1.051563  0  0.132978  0  0.104043  0.07377  0  1.052588  0
H  H42  1  0.73486844  0.14246375  0.25063829  1  0  0.07646  0  0.929765  0  0  0.08807  0  0.988874  0  0  0.090367  0  0.987285  0  0.109  0  0.113213  0.086535  0  0.989691  0
H  H43  1  0.26513116  0.64246625  0.74936436  1  0  0.076472  0  0.929879  0  0  0.088081  0  0.988979  0  0  0.090379  0  0.98739  0  0.108942  0  0.113229  0.086547  0  0.989795  0
H  H44  1  0.51960766  0.03475665  0.29074065  1  0  0.108685  0  0.968133  0  0  0.117762  0  1.031011  0  0  0.120517  0  1.030808  0  0.094508  0  0.101387  0.115084  0  1.033284  0
H  H45  1  0.48039513  0.53475735  0.70926394  1  0  0.108696  0  0.968141  0  0  0.117797  0  1.030996  0  0  0.120552  0  1.030793  0  0.094471  0  0.101415  0.115117  0  1.033268  0
H  H46  1  0.31268231  0.02496716  0.76781828  1  0  0.074122  0  0.944427  0  0  0.082372  0  1.010721  0  0  0.085078  0  1.008754  0  0.067754  0  0.105109  0.080322  0  1.01221  0
H  H47  1  0.68731305  0.52496604  0.23218228  1  0  0.07414  0  0.94452  0  0  0.082426  0  1.010777  0  0  0.085133  0  1.008808  0  0.06772  0  0.105124  0.080377  0  1.012265  0
H  H48  1  0.33646903  0.11186603  0.09381971  1  0  0.098533  0  0.951776  0  0  0.109563  0  1.015453  0  0  0.112259  0  1.013787  0  0.099398  0  0.096126  0.107496  0  1.016767  0
H  H49  1  0.66353482  0.61186220  0.90618194  1  0  0.098574  0  0.951794  0  0  0.109608  0  1.015457  0  0  0.112304  0  1.013791  0  0.09941  0  0.096156  0.107542  0  1.016769  0
H  H50  1  0.49887893  0.28359878  0.06772301  1  0  0.094993  0  0.950052  0  0  0.10835  0  1.004472  0  0  0.11148  0  1.003508  0  0.059082  0  0.100919  0.106008  0  1.005437  0
H  H51  1  0.50112598  0.78359223  0.93227955  1  0  0.095013  0  0.95012  0  0  0.108354  0  1.004552  0  0  0.111482  0  1.003592  0  0.059154  0  0.100946  0.106014  0  1.005514  0
H  H52  1  0.55995804  0.31558221  0.88897588  1  0  0.060874  0  0.963198  0  0  0.065274  0  1.037143  0  0  0.06811  0  1.035105  0  0.061439  0  0.098147  0.062921  0  1.039344  0
H  H53  1  0.44004262  0.81558109  0.11102305  1  0  0.060877  0  0.963176  0  0  0.065275  0  1.037133  0  0  0.068111  0  1.035094  0  0.061442  0  0.098154  0.062922  0  1.039335  0
H  H54  1  0.26398269  0.88023085  0.99355375  1  0  0.100495  0  0.971014  0  0  0.122178  0  1.035088  0  0  0.122497  0  1.036038  0  0.057724  0  0.085881  0.122059  0  1.03452  0
H  H55  1  0.73601904  0.38022564  0.00644994  1  0  0.10047  0  0.970982  0  0  0.122151  0  1.035066  0  0  0.122467  0  1.036019  0  0.058091  0  0.085867  0.122032  0  1.034498  0
H  H56  1  0.17052562  0.91105470  0.86556667  1  0  0.105877  0  0.978298  0  0  0.120083  0  1.052194  0  0  0.121671  0  1.052018  0  0.074155  0  0.080635  0.118736  0  1.052606  0
H  H57  1  0.82947505  0.41105220  0.13443688  1  0  0.105833  0  0.978304  0  0  0.120029  0  1.052205  0  0  0.121617  0  1.052029  0  0.074157  0  0.080606  0.118684  0  1.052618  0
H  H58  1  0.12087602  0.98266828  0.97658558  1  0  0.107349  0  0.968896  0  0  0.127484  0  1.032227  0  0  0.127385  0  1.035159  0  0.071591  0  0.086027  0.127455  0  1.030335  0
H  H59  1  0.87912465  0.48266488  0.02341951  1  0  0.107413  0  0.968873  0  0  0.127513  0  1.032241  0  0  0.127414  0  1.035172  0  0.071632  0  0.08604  0.127484  0  1.030349  0
C  C60  1  0.11664090  0.39333740  0.28185711  1  0  0.250524  0  3.785656  0  0  0.222835  0  4.086809  0  0  0.247952  0  4.095692  0  0.265293  0  0.12027  0.205852  0  4.079984  0
C  C61  1  0.88335871  0.89333719  0.71814323  1  0  0.250482  0  3.785644  0  0  0.222788  0  4.086836  0  0  0.247904  0  4.095719  0  0.265255  0  0.120243  0.205805  0  4.080007  0
C  C62  1  0.04950206  0.59934832  0.32872734  1  0  0.040114  0  3.657225  0  0  -0.017253  0  3.912482  0  0  -0.012643  0  3.924629  0  0.253609  0  -0.068771  -0.020314  0  3.903834  0
C  C63  1  0.95049648  0.09934763  0.67127209  1  0  0.04019  0  3.657336  0  0  -0.017117  0  3.912498  0  0  -0.012511  0  3.924666  0  0.253584  0  -0.068732  -0.020174  0  3.903843  0
C  C64  1  0.13218559  0.63907796  0.43431354  1  0  -0.303348  0  3.667124  0  0  -0.378044  0  3.905864  0  0  -0.380974  0  3.917093  0  -0.064899  0  -0.249208  -0.375631  0  3.898084  0
C  C65  1  0.86781189  0.13907636  0.56568576  1  0  -0.303325  0  3.667209  0  0  -0.378026  0  3.905938  0  0  -0.380954  0  3.917169  0  -0.064907  0  -0.249196  -0.375615  0  3.898156  0
C  C66  1  0.23997944  0.56985771  0.22244254  1  0  -0.05423  0  3.64061  0  0  -0.118299  0  3.884131  0  0  -0.113585  0  3.892091  0  0.301628  0  -0.05761  -0.121073  0  3.879772  0
C  C67  1  0.76001910  0.06985702  0.77755612  1  0  -0.054266  0  3.640779  0  0  -0.11839  0  3.884232  0  0  -0.113657  0  3.892163  0  0.302054  0  -0.057627  -0.121166  0  3.879874  0
C  C68  1  0.17893217  0.58455055  0.10779934  1  0  0.140495  0  3.696015  0  0  0.154233  0  3.934234  0  0  0.158217  0  3.956409  0  -0.048521  0  0.014222  0.151142  0  3.920128  0
C  C69  1  0.82106637  0.08454805  0.89219932  1  0  0.140387  0  3.696052  0  0  0.154374  0  3.933964  0  0  0.158356  0  3.956133  0  -0.04888  0  0.014242  0.151283  0  3.91986  0
C  C70  1  0.19825875  0.49622980  0.03416545  1  0  -0.168068  0  3.718881  0  0  -0.183512  0  3.962259  0  0  -0.191073  0  3.983602  0  -0.037325  0  -0.087267  -0.178346  0  3.947695  0
C  C71  1  0.80174086  0.99622958  0.96583488  1  0  -0.168002  0  3.71895  0  0  -0.183523  0  3.962257  0  0  -0.191084  0  3.983599  0  -0.037369  0  -0.087272  -0.178356  0  3.94769  0
C  C72  1  0.12934307  0.50905844  0.93130658  1  0  0.119751  0  3.732634  0  0  0.091263  0  3.983378  0  0  0.097939  0  4.001218  0  0.515251  0  0.038664  0.086802  0  3.971438  0
C  C73  1  0.87065441  0.00905775  0.06869425  1  0  0.119696  0  3.732652  0  0  0.091221  0  3.983417  0  0  0.097906  0  4.001252  0  0.515226  0  0.038649  0.086758  0  3.971476  0
C  C74  1  0.03045252  0.69097053  0.96759733  1  0  0.128355  0  3.72479  0  0  0.102895  0  3.970666  0  0  0.109517  0  3.989199  0  0.412599  0  0.042601  0.098584  0  3.957845  0
C  C75  1  0.96954709  0.19096803  0.03239993  1  0  0.128433  0  3.724836  0  0  0.102993  0  3.970737  0  0  0.109619  0  3.98927  0  0.412942  0  0.04266  0.098679  0  3.957919  0
C  C76  1  0.09449091  0.68463264  0.07225399  1  0  -0.17075  0  3.703326  0  0  -0.187276  0  3.946566  0  0  -0.194785  0  3.967493  0  0.018813  0  -0.085527  -0.182388  0  3.932674  0
C  C77  1  0.90551188  0.18463104  0.92774521  1  0  -0.170723  0  3.703167  0  0  -0.187339  0  3.946333  0  0  -0.194848  0  3.967259  0  0.018774  0  -0.085542  -0.182456  0  3.93244  0
C  C78  1  0.31246790  0.95018104  0.39674296  1  0  0.252048  0  3.791575  0  0  0.224414  0  4.091289  0  0  0.248844  0  4.100875  0  0.283365  0  0.121  0.209593  0  4.081856  0
C  C79  1  0.68753170  0.45018035  0.60325506  1  0  0.252154  0  3.791468  0  0  0.224515  0  4.091177  0  0  0.248946  0  4.100761  0  0.283372  0  0.121038  0.209694  0  4.081746  0
C  C80  1  0.48473321  0.90744210  0.55730226  1  0  0.046419  0  3.645385  0  0  -0.008021  0  3.899967  0  0  -0.003187  0  3.91169  0  0.277737  0  -0.068434  -0.01141  0  3.891753  0
C  C81  1  0.51526427  0.40744231  0.44269626  1  0  0.046279  0  3.645295  0  0  -0.008226  0  3.899939  0  0  -0.003385  0  3.911644  0  0.277827  0  -0.068479  -0.011615  0  3.891729  0
C  C82  1  0.41383902  0.81948676  0.62226637  1  0  -0.31899  0  3.720373  0  0  -0.397175  0  3.964032  0  0  -0.40039  0  3.974538  0  -0.014292  0  -0.25553  -0.393693  0  3.957367  0
C  C83  1  0.58616058  0.31948697  0.37773242  1  0  -0.318819  0  3.720235  0  0  -0.396993  0  3.963906  0  0  -0.40021  0  3.97442  0  -0.014447  0  -0.25546  -0.393511  0  3.957236  0
C  C84  1  0.51633420  0.81514783  0.38945684  1  0  -0.064004  0  3.669967  0  0  -0.130656  0  3.918041  0  0  -0.126777  0  3.926294  0  0.308862  0  -0.058123  -0.133406  0  3.912466  0
C  C85  1  0.48366435  0.31514895  0.61054259  1  0  -0.06399  0  3.669843  0  0  -0.130615  0  3.917931  0  0  -0.126742  0  3.926187  0  0.308517  0  -0.058119  -0.133364  0  3.912357  0
C  C86  1  0.64242079  0.88251564  0.36305403  1  0  0.144512  0  3.70313  0  0  0.157856  0  3.9438  0  0  0.162625  0  3.964852  0  0.069985  0  0.016035  0.155504  0  3.929312  0
C  C87  1  0.35758094  0.38251586  0.63694811  1  0  0.144533  0  3.703072  0  0  0.157816  0  3.943817  0  0  0.162583  0  3.964871  0  0.069783  0  0.016034  0.155463  0  3.929331  0
C  C88  1  0.77963970  0.83588731  0.38918822  1  0  -0.161986  0  3.697295  0  0  -0.181067  0  3.943422  0  0  -0.188676  0  3.96398  0  -0.137982  0  -0.083077  -0.175893  0  3.92871  0
C  C89  1  0.22036415  0.33588843  0.61081343  1  0  -0.161951  0  3.69727  0  0  -0.180967  0  3.943391  0  0  -0.188576  0  3.96395  0  -0.13776  0  -0.083119  -0.175791  0  3.928677  0
C  C90  1  0.89301775  0.90194087  0.36433906  1  0  0.121509  0  3.733836  0  0  0.090053  0  3.988192  0  0  0.097805  0  4.005441  0  0.499753  0  0.040741  0.084657  0  3.976914  0
C  C91  1  0.10698398  0.40194290  0.63565616  1  0  0.121416  0  3.733888  0  0  0.089964  0  3.988246  0  0  0.097712  0  4.005489  0  0.499592  0  0.040728  0.084569  0  3.976967  0
C  C92  1  0.74349683  0.05462690  0.28978756  1  0  0.123276  0  3.726012  0  0  0.094444  0  3.976466  0  0  0.101303  0  3.994532  0  0.39221  0  0.042648  0.090548  0  3.96337  0
C  C93  1  0.25650383  0.55462940  0.71021445  1  0  0.123244  0  3.726246  0  0  0.094421  0  3.976706  0  0  0.101279  0  3.994776  0  0.392599  0  0.042605  0.090524  0  3.96361  0
C  C94  1  0.62487318  0.99495332  0.31247242  1  0  -0.165208  0  3.70018  0  0  -0.183459  0  3.944253  0  0  -0.190878  0  3.965453  0  0.011695  0  -0.08535  -0.179754  0  3.932367  0
C  C95  1  0.37512749  0.49495353  0.68752959  1  0  -0.165204  0  3.700272  0  0  -0.183456  0  3.944359  0  0  -0.190875  0  3.965558  0  0.012082  0  -0.085321  -0.179747  0  3.932469  0
C  C96  1  0.35326409  0.08021184  0.83658362  1  0  0.037696  0  3.724097  0  0  0.010309  0  3.971688  0  0  0.013827  0  3.989793  0  0.480608  0  0.032571  0.008393  0  3.958935  0
C  C97  1  0.64673658  0.58020891  0.16341762  1  0  0.037663  0  3.724065  0  0  0.010263  0  3.971663  0  0  0.013782  0  3.989766  0  0.480609  0  0.032578  0.008347  0  3.958911  0
C  C98  1  0.31117508  0.05413395  0.93236198  1  0  0.091433  0  3.770042  0  0  0.125098  0  3.996476  0  0  0.121856  0  4.023232  0  -0.037206  0  -0.010152  0.126953  0  3.977417  0
C  C99  1  0.68882347  0.55413192  0.06763745  1  0  0.091468  0  3.770049  0  0  0.125085  0  3.996544  0  0  0.121842  0  4.0233  0  -0.037259  0  -0.010164  0.12694  0  3.97749  0
C  C100  1  0.36574760  0.12849180  0.01741008  1  0  -0.087567  0  3.717093  0  0  -0.110504  0  3.956532  0  0  -0.11034  0  3.977448  0  -0.040538  0  -0.081433  -0.11006  0  3.941323  0
C  C101  1  0.63425412  0.62848526  0.98259207  1  0  -0.087665  0  3.717132  0  0  -0.110588  0  3.956585  0  0  -0.110424  0  3.977502  0  -0.040533  0  -0.081448  -0.11014  0  3.94137  0
C  C102  1  0.45597474  0.22369587  0.00312731  1  0  -0.130825  0  3.792154  0  0  -0.139823  0  4.038087  0  0  -0.145522  0  4.06035  0  -0.103617  0  -0.095777  -0.136033  0  4.022726  0
C  C103  1  0.54402487  0.72369385  0.99687379  1  0  -0.1308  0  3.792029  0  0  -0.139776  0  4.037974  0  0  -0.145473  0  4.060235  0  -0.103635  0  -0.095773  -0.135986  0  4.022612  0
C  C104  1  0.49029618  0.24158434  0.90398339  1  0  0.093628  0  3.770005  0  0  0.068409  0  4.028637  0  0  0.072415  0  4.048018  0  0.525062  0  0.028416  0.066009  0  4.015652  0
C  C105  1  0.50970236  0.74158232  0.09601912  1  0  0.093649  0  3.769903  0  0  0.068409  0  4.028557  0  0  0.072415  0  4.047937  0  0.525152  0  0.028372  0.06601  0  4.015571  0
C  C106  1  0.21150862  0.95171599  0.94202149  1  0  -0.334096  0  3.734417  0  0  -0.412644  0  3.9648  0  0  -0.414683  0  3.976212  0  -0.131794  0  -0.246766  -0.410853  0  3.957025  0
C  C107  1  0.78849205  0.45171259  0.05798206  1  0  -0.334126  0  3.734358  0  0  -0.412631  0  3.964785  0  0  -0.414667  0  3.976199  0  -0.132259  0  -0.246781  -0.41084  0  3.957012  0
S  S108  1  0.23420206  0.29887955  0.23482852  1  0  -0.419774  0  2.104251  0  0  -0.385409  0  2.448258  0  0  -0.403548  0  2.442773  0  -0.274193  0  -0.18505  -0.370455  0  2.451383  0
S  S109  1  0.76579755  0.79887843  0.76517104  1  0  -0.419725  0  2.104198  0  0  -0.385365  0  2.448222  0  0  -0.403503  0  2.442738  0  -0.274203  0  -0.185011  -0.370426  0  2.451374  0
S  S110  1  0.97899915  0.33388585  0.33487222  1  0  -0.418382  0  2.043562  0  0  -0.393514  0  2.38666  0  0  -0.41063  0  2.381092  0  -0.267573  0  -0.197722  -0.380896  0  2.39087  0
S  S111  1  0.02100152  0.83388383  0.66513056  1  0  -0.418358  0  2.043563  0  0  -0.393479  0  2.386652  0  0  -0.410593  0  2.38108  0  -0.267563  0  -0.197718  -0.380859  0  2.390861  0
S  S112  1  0.22533060  0.04632261  0.46764128  1  0  -0.408611  0  2.071806  0  0  -0.379018  0  2.412933  0  0  -0.39644  0  2.407747  0  -0.242103  0  -0.190465  -0.367339  0  2.415809  0
S  S113  1  0.77466794  0.54632420  0.53235738  1  0  -0.40862  0  2.071749  0  0  -0.379032  0  2.412883  0  0  -0.396459  0  2.407703  0  -0.242103  0  -0.190465  -0.367353  0  2.415758  0
S  S114  1  0.24961301  0.92710069  0.26497893  1  0  -0.452043  0  1.992993  0  0  -0.423629  0  2.332272  0  0  -0.439977  0  2.324758  0  -0.313484  0  -0.213742  -0.410683  0  2.339068  0
S  S115  1  0.75038872  0.42709819  0.73501783  1  0  -0.452083  0  1.993016  0  0  -0.423694  0  2.332347  0  0  -0.440041  0  2.324834  0  -0.313482  0  -0.21376  -0.410747  0  2.339144  0
N  N116  1  0.13349327  0.51466640  0.27722364  1  0  -0.135576  0  3.388234  0  0  -0.035166  0  3.60657  0  0  -0.054594  0  3.629831  0  -1.124273  0  -0.263383  -0.021761  0  3.590458  0
N  N117  1  0.86650421  0.01466571  0.72277411  1  0  -0.135546  0  3.38826  0  0  -0.035188  0  3.606651  0  0  -0.054617  0  3.629909  0  -1.124252  0  -0.263398  -0.021781  0  3.590535  0
N  N118  1  0.04602799  0.60422091  0.89801136  1  0  -0.314787  0  3.24963  0  0  -0.243589  0  3.510337  0  0  -0.261258  0  3.529972  0  -1.237388  0  -0.328519  -0.231659  0  3.497084  0
N  N119  1  0.95397161  0.10422474  0.10198743  1  0  -0.314821  0  3.249564  0  0  -0.243645  0  3.510313  0  0  -0.261323  0  3.529954  0  -1.237742  0  -0.328563  -0.231708  0  3.497056  0
N  N120  1  0.43064257  0.89285147  0.44491435  1  0  -0.137642  0  3.418718  0  0  -0.036661  0  3.636498  0  0  -0.055524  0  3.660165  0  -1.155946  0  -0.266701  -0.024049  0  3.619302  0
N  N121  1  0.56935703  0.39285168  0.55508368  1  0  -0.137747  0  3.418578  0  0  -0.036724  0  3.636339  0  0  -0.055588  0  3.660005  0  -1.155925  0  -0.26671  -0.024114  0  3.619146  0
N  N122  1  0.87529181  0.00899534  0.31507185  1  0  -0.320146  0  3.310601  0  0  -0.244024  0  3.570459  0  0  -0.262207  0  3.589855  0  -1.26161  0  -0.339041  -0.231472  0  3.558067  0
N  N123  1  0.12470885  0.50899603  0.68492708  1  0  -0.320125  0  3.310564  0  0  -0.244029  0  3.570465  0  0  -0.262214  0  3.589869  0  -1.261876  0  -0.339042  -0.231478  0  3.558072  0
N  N124  1  0.44086417  0.17089156  0.82172974  1  0  -0.305473  0  3.119344  0  0  -0.263791  0  3.386757  0  0  -0.275068  0  3.405111  0  -1.201075  0  -0.324948  -0.255844  0  3.373916  0
N  N125  1  0.55913225  0.67089044  0.17827095  1  0  -0.305473  0  3.119274  0  0  -0.263779  0  3.386707  0  0  -0.275056  0  3.40506  0  -1.201119  0  -0.324923  -0.255832  0  3.373866  0
