# generated using pymatgen
data_LaH29C33NO11
_symmetry_space_group_name_H-M   'P 1'
_cell_length_a   9.45937116
_cell_length_b   12.13227660
_cell_length_c   16.09782976
_cell_angle_alpha   80.82935146
_cell_angle_beta   79.96271024
_cell_angle_gamma   67.04955784
_symmetry_Int_Tables_number   1
_chemical_formula_structural   LaH29C33NO11
_chemical_formula_sum   'La2 H58 C66 N2 O22'
_cell_volume   1666.63481801
_cell_formula_units_Z   2
loop_
 _symmetry_equiv_pos_site_id
 _symmetry_equiv_pos_as_xyz
  1  'x, y, z'
loop_
 _atom_site_type_symbol
 _atom_site_label
 _atom_site_symmetry_multiplicity
 _atom_site_fract_x
 _atom_site_fract_y
 _atom_site_fract_z
 _atom_site_occupancy
 _atom_site_pbe_bader_spin_density
 _atom_site_pbe_cm5_charge
 _atom_site_pbe_ddec_charge
 _atom_site_pbe_ddec_spin_density
 _atom_site_pbe_ddec_sum_bond_order
 _atom_site_pbe_magmom
La  La0  1  0.18611395  0.04255161  0.51055671  1  0  1.378567  1.907232  0  2.404772  0
La  La1  1  0.81388538  0.95744816  0.48944656  1  0  1.37863  1.907273  0  2.40476  0
H  H2  1  0.68156599  0.21669454  0.35627419  1  0  0.104527  0.097863  0  1.057656  0
H  H3  1  0.31843939  0.78330413  0.64372181  1  0  0.104535  0.097857  0  1.05765  0
H  H4  1  0.49765368  0.38079510  0.26798480  1  0  0.096678  0.09805  0  1.039515  0
H  H5  1  0.50234942  0.61920818  0.73201643  1  0  0.096653  0.098037  0  1.039529  0
H  H6  1  0.53165194  0.57392358  0.22674650  1  0  0.102608  0.109147  0  1.00594  0
H  H7  1  0.46834345  0.42608442  0.77326232  1  0  0.102586  0.109176  0  1.005931  0
H  H8  1  0.75549608  0.60463923  0.26977292  1  0  0.097334  0.101301  0  1.008706  0
H  H9  1  0.24450315  0.39536513  0.73023537  1  0  0.097334  0.101358  0  1.008618  0
H  H10  1  0.93318319  0.44359690  0.36063904  1  0  0.098491  0.09959  0  1.061805  0
H  H11  1  0.06681520  0.55640022  0.63936589  1  0  0.098507  0.09962  0  1.06172  0
H  H12  1  0.29902850  0.05849162  0.21506460  1  0  0.094794  0.091959  0  1.06957  0
H  H13  1  0.70094025  0.94153000  0.78494129  1  0  0.094768  0.091995  0  1.069476  0
H  H14  1  0.78838129  0.73170365  0.66547477  1  0  0.1084  0.107669  0  1.052935  0
H  H15  1  0.21163527  0.26829402  0.33452092  1  0  0.108444  0.1078  0  1.052874  0
H  H16  1  0.85792642  0.62237211  0.80596896  1  0  0.102535  0.101767  0  1.007631  0
H  H17  1  0.14209754  0.37762364  0.19402379  1  0  0.10251  0.101841  0  1.007659  0
H  H18  1  0.66079888  0.66502283  0.93385159  1  0  0.102528  0.097338  0  1.00158  0
H  H19  1  0.33921993  0.33495861  0.06614158  1  0  0.102521  0.097394  0  1.001638  0
H  H20  1  0.39714135  0.81864539  0.92112786  1  0  0.099205  0.095141  0  1.023947  0
H  H21  1  0.60286986  0.18132713  0.07886468  1  0  0.099209  0.095114  0  1.02384  0
H  H22  1  0.32663622  0.92494908  0.77908082  1  0  0.104343  0.105071  0  1.009656  0
H  H23  1  0.67337308  0.07503429  0.22091488  1  0  0.104322  0.105042  0  1.009681  0
H  H24  1  0.34037668  0.06688747  0.05730781  1  0  0.096199  0.091799  0  1.013662  0
H  H25  1  0.65959551  0.93313142  0.94269747  1  0  0.096232  0.091932  0  1.013596  0
H  H26  1  0.03202520  0.87946476  0.06767949  1  0  0.097025  0.093746  0  1.031357  0
H  H27  1  0.96797717  0.12053057  0.93232778  1  0  0.097046  0.093752  0  1.031307  0
H  H28  1  0.98881203  0.87465037  0.22542662  1  0  0.09819  0.093201  0  1.031126  0
H  H29  1  0.01118359  0.12535037  0.77457874  1  0  0.098192  0.093209  0  1.031165  0
H  H30  1  0.20462914  0.97816382  0.98372791  1  0  0.098763  0.090945  0  1.016312  0
H  H31  1  0.79536320  0.02183698  0.01627899  1  0  0.098828  0.091041  0  1.016286  0
H  H32  1  0.45980212  0.88379265  0.39519177  1  0  0.32885  0.406528  0  0.873622  0
H  H33  1  0.54019255  0.11620802  0.60480996  1  0  0.328835  0.40658  0  0.873604  0
H  H34  1  0.52212708  0.86605446  0.48374148  1  0  0.301855  0.381592  0  0.968504  0
H  H35  1  0.47786829  0.13394707  0.51625883  1  0  0.301842  0.381617  0  0.968462  0
H  H36  1  0.20842551  0.16345178  0.65330766  1  0  0.319219  0.39256  0  0.90147  0
H  H37  1  0.79157545  0.83654441  0.34669715  1  0  0.319199  0.392484  0  0.901541  0
H  H38  1  0.11374623  0.28401579  0.60108080  1  0  0.292472  0.371876  0  0.978265  0
H  H39  1  0.88625880  0.71598310  0.39892577  1  0  0.292501  0.371902  0  0.978205  0
H  H40  1  0.15245571  0.73184380  0.37142800  1  0  0.137038  0.124981  0  1.023205  0
H  H41  1  0.84754335  0.26814968  0.62857484  1  0  0.137034  0.125002  0  1.023118  0
H  H42  1  0.39335266  0.69788108  0.43071208  1  0  0.11754  0.132236  0  1.016685  0
H  H43  1  0.60664541  0.30211687  0.56928968  1  0  0.117513  0.132234  0  1.016678  0
H  H44  1  0.17382286  0.38549175  0.45567379  1  0  0.141205  0.137529  0  0.989436  0
H  H45  1  0.82616634  0.61450645  0.54433623  1  0  0.141203  0.137528  0  0.989378  0
H  H46  1  0.41821719  0.33393162  0.51764007  1  0  0.114135  0.126973  0  1.036072  0
H  H47  1  0.58178620  0.66606439  0.48235646  1  0  0.114139  0.126953  0  1.036089  0
H  H48  1  0.03387470  0.61097460  0.28544315  1  0  0.299068  0.339172  0  1.011094  0
H  H49  1  0.96613364  0.38902420  0.71456063  1  0  0.299181  0.339414  0  1.010981  0
H  H50  1  0.38840591  0.59669111  0.89581533  1  0  0.098664  0.096767  0  1.034677  0
H  H51  1  0.61159232  0.40333451  0.10417919  1  0  0.098669  0.096817  0  1.034734  0
H  H52  1  0.39379252  0.58239541  0.05256061  1  0  0.103126  0.103287  0  1.019457  0
H  H53  1  0.60619640  0.41762490  0.94743359  1  0  0.103084  0.103264  0  1.019434  0
H  H54  1  0.90542415  0.65760367  0.09535995  1  0  0.10391  0.107708  0  1.002901  0
H  H55  1  0.09458311  0.34236351  0.90463302  1  0  0.103963  0.107723  0  1.002968  0
H  H56  1  0.13983691  0.64611453  0.84005547  1  0  0.098062  0.095542  0  1.03249  0
H  H57  1  0.86016493  0.35390823  0.15993285  1  0  0.098057  0.095539  0  1.032603  0
H  H58  1  0.89792326  0.67764510  0.93958073  1  0  0.096829  0.089716  0  1.04387  0
H  H59  1  0.10208894  0.32234359  0.06041339  1  0  0.096819  0.0897  0  1.043827  0
C  C60  1  0.69560580  0.30237912  0.33766992  1  0  -0.081901  -0.088037  0  3.94603  0
C  C61  1  0.30439666  0.69761875  0.66232957  1  0  -0.081875  -0.087988  0  3.945891  0
C  C62  1  0.59414937  0.39350492  0.28787899  1  0  -0.093668  -0.088675  0  3.995873  0
C  C63  1  0.40585410  0.60649297  0.71212226  1  0  -0.093679  -0.088697  0  3.995969  0
C  C64  1  0.61384433  0.50308189  0.26438970  1  0  -0.083056  -0.068762  0  3.981496  0
C  C65  1  0.38615972  0.49691694  0.73561386  1  0  -0.083001  -0.068725  0  3.981494  0
C  C66  1  0.73764482  0.52027709  0.28922126  1  0  -0.096227  -0.094462  0  4.004698  0
C  C67  1  0.26235622  0.47972358  0.71078297  1  0  -0.096241  -0.094592  0  4.004673  0
C  C68  1  0.83922374  0.42946734  0.33911725  1  0  -0.088386  -0.09261  0  3.967064  0
C  C69  1  0.16077838  0.57053332  0.66088688  1  0  -0.088381  -0.092565  0  3.966941  0
C  C70  1  0.81728066  0.32060548  0.36474199  1  0  -0.024025  -0.058195  0  3.990409  0
C  C71  1  0.18272388  0.67939498  0.63525386  1  0  -0.02405  -0.058217  0  3.990183  0
C  C72  1  0.11358775  0.96389545  0.32447739  1  0  0.230236  0.627044  0  4.150415  0
C  C73  1  0.88639713  0.03611248  0.67552373  1  0  0.230248  0.627092  0  4.150344  0
C  C74  1  0.24103504  0.01984375  0.18210304  1  0  -0.087023  -0.088647  0  3.965489  0
C  C75  1  0.75893569  0.98017603  0.81790103  1  0  -0.086921  -0.088574  0  3.964992  0
C  C76  1  0.14078861  0.96682229  0.22973576  1  0  -0.0222  -0.049844  0  3.963861  0
C  C77  1  0.85919437  0.03319196  0.77026661  1  0  -0.022311  -0.049978  0  3.963913  0
C  C78  1  0.50925041  0.89424898  0.62878110  1  0  0.23124  0.603606  0  4.169389  0
C  C79  1  0.49076033  0.10574513  0.37121372  1  0  0.23125  0.603757  0  4.169345  0
C  C80  1  0.55329875  0.83463316  0.71396475  1  0  -0.019533  -0.059813  0  3.985552  0
C  C81  1  0.44671454  0.16536004  0.28603057  1  0  -0.01935  -0.059797  0  3.985598  0
C  C82  1  0.70315526  0.74950617  0.72163731  1  0  -0.075511  -0.083588  0  3.935619  0
C  C83  1  0.29685943  0.25049328  0.27835709  1  0  -0.075627  -0.08372  0  3.935764  0
C  C84  1  0.74171604  0.68922879  0.80061522  1  0  -0.087373  -0.079228  0  3.984598  0
C  C85  1  0.25830053  0.31076434  0.19937855  1  0  -0.087394  -0.079322  0  3.984882  0
C  C86  1  0.63153056  0.71399897  0.87228597  1  0  -0.081676  -0.069926  0  3.984056  0
C  C87  1  0.36848532  0.28598878  0.12770731  1  0  -0.081601  -0.070052  0  3.984409  0
C  C88  1  0.48283146  0.80018519  0.86512503  1  0  -0.090129  -0.089549  0  4.012298  0
C  C89  1  0.51717480  0.19980003  0.13487197  1  0  -0.0901  -0.089363  0  4.012279  0
C  C90  1  0.44329763  0.86001187  0.78615692  1  0  -0.080961  -0.088766  0  3.963391  0
C  C91  1  0.55671416  0.13997515  0.21384243  1  0  -0.081097  -0.088886  0  3.963564  0
C  C92  1  0.26375661  0.02407683  0.09390486  1  0  -0.096406  -0.092217  0  4.030961  0
C  C93  1  0.73622266  0.97593839  0.90609960  1  0  -0.096437  -0.09239  0  4.030953  0
C  C94  1  0.08903053  0.92004146  0.09984224  1  0  -0.095718  -0.090096  0  4.014208  0
C  C95  1  0.91096059  0.07996202  0.90016382  1  0  -0.095724  -0.09001  0  4.014158  0
C  C96  1  0.06508926  0.91691403  0.18791550  1  0  -0.087203  -0.086384  0  3.971936  0
C  C97  1  0.93489640  0.08309213  0.81208763  1  0  -0.087192  -0.086456  0  3.972127  0
C  C98  1  0.91914078  0.22898326  0.42374430  1  0  0.21642  0.601022  0  4.180595  0
C  C99  1  0.08086012  0.77101556  0.57625707  1  0  0.216495  0.601092  0  4.180392  0
C  C100  1  0.18771776  0.97434690  0.05274178  1  0  -0.087356  -0.073382  0  4.007489  0
C  C101  1  0.81227229  0.02565659  0.94726376  1  0  -0.087437  -0.073508  0  4.007758  0
C  C102  1  0.21923594  0.64585760  0.40345293  1  0  0.05297  -0.015493  0  3.84749  0
C  C103  1  0.78076276  0.35414127  0.59654989  1  0  0.052997  -0.015479  0  3.84725  0
C  C104  1  0.35326841  0.62389253  0.43704955  1  0  -0.066463  -0.133379  0  3.931453  0
C  C105  1  0.64672890  0.37610718  0.56295019  1  0  -0.06643  -0.133398  0  3.931492  0
C  C106  1  0.23069849  0.44882374  0.45240917  1  0  0.053433  -0.015122  0  3.818562  0
C  C107  1  0.76929837  0.55116979  0.54759512  1  0  0.053372  -0.015224  0  3.818503  0
C  C108  1  0.42988855  0.51184366  0.48075169  1  0  0.013884  0.088584  0  3.972701  0
C  C109  1  0.57010895  0.48815335  0.51924775  1  0  0.013904  0.088607  0  3.972665  0
C  C110  1  0.36531968  0.42389064  0.48636910  1  0  -0.067926  -0.130578  0  3.927935  0
C  C111  1  0.63468020  0.57610556  0.51363581  1  0  -0.067885  -0.130509  0  3.92796  0
C  C112  1  0.15024131  0.61950903  0.08301080  1  0  -0.023914  -0.056737  0  4.012626  0
C  C113  1  0.84975494  0.38048873  0.91698120  1  0  -0.023806  -0.056439  0  4.012448  0
C  C114  1  0.15764565  0.60973990  0.17558513  1  0  0.221213  0.563613  0  4.165041  0
C  C115  1  0.84237522  0.39026224  0.82441207  1  0  0.221211  0.563676  0  4.165188  0
C  C116  1  0.28272120  0.61051659  0.93967983  1  0  -0.093739  -0.094039  0  4.011692  0
C  C117  1  0.71727965  0.38950550  0.06031861  1  0  -0.093714  -0.094106  0  4.011793  0
C  C118  1  0.28644880  0.60205605  0.02668372  1  0  -0.084428  -0.100135  0  3.976577  0
C  C119  1  0.71354851  0.39795075  0.97331201  1  0  -0.084376  -0.100143  0  3.976164  0
C  C120  1  0.01039530  0.64561768  0.05126998  1  0  -0.085962  -0.096867  0  3.971872  0
C  C121  1  0.98960307  0.35438009  0.94872307  1  0  -0.086034  -0.097056  0  3.971687  0
C  C122  1  0.14257696  0.63840562  0.90820398  1  0  -0.083343  -0.06102  0  3.96868  0
C  C123  1  0.85741999  0.36161109  0.09179303  1  0  -0.083403  -0.060986  0  3.968945  0
C  C124  1  0.00687631  0.65583699  0.96413292  1  0  -0.092995  -0.084879  0  4.017491  0
C  C125  1  0.99312353  0.34415279  0.03586472  1  0  -0.092985  -0.084877  0  4.017114  0
N  N126  1  0.15838101  0.55959399  0.41278588  1  0  -0.113258  0.319763  0  3.939632  0
N  N127  1  0.84162335  0.44039950  0.58721957  1  0  -0.113256  0.319856  0  3.939804  0
O  O128  1  0.36847518  0.96181301  0.62257280  1  0  -0.373396  -0.620943  0  2.266884  0
O  O129  1  0.63153111  0.03817671  0.37742486  1  0  -0.373353  -0.620946  0  2.266948  0
O  O130  1  0.61417151  0.87261179  0.56452626  1  0  -0.369273  -0.624413  0  2.316887  0
O  O131  1  0.38583881  0.12738322  0.43546850  1  0  -0.369331  -0.624533  0  2.316834  0
O  O132  1  0.03111670  0.24756462  0.44515617  1  0  -0.370954  -0.594993  0  2.231027  0
O  O133  1  0.96887880  0.75243879  0.55484762  1  0  -0.371013  -0.595048  0  2.230941  0
O  O134  1  0.19471073  0.99944106  0.36127054  1  0  -0.373398  -0.620506  0  2.244845  0
O  O135  1  0.80526645  0.00057413  0.63873163  1  0  -0.373397  -0.620435  0  2.244646  0
O  O136  1  0.00997192  0.92431394  0.36333859  1  0  -0.392603  -0.657799  0  2.315954  0
O  O137  1  0.99002157  0.07568681  0.63666635  1  0  -0.392587  -0.657829  0  2.316036  0
O  O138  1  0.89338011  0.13270170  0.45376538  1  0  -0.404894  -0.680332  0  2.35875  0
O  O139  1  0.10661665  0.86729899  0.54623801  1  0  -0.40493  -0.680374  0  2.358755  0
O  O140  1  0.43648979  0.86420339  0.45571920  1  0  -0.599209  -0.784701  0  2.099237  0
O  O141  1  0.56350832  0.13579906  0.54428322  1  0  -0.599199  -0.784831  0  2.099064  0
O  O142  1  0.20422766  0.20545038  0.59642812  1  0  -0.609843  -0.784283  0  2.068133  0
O  O143  1  0.79577246  0.79455214  0.40357846  1  0  -0.609854  -0.784234  0  2.068161  0
O  O144  1  0.02502048  0.58321450  0.38374986  1  0  -0.221439  -0.474489  0  2.067595  0
O  O145  1  0.97497154  0.41678262  0.61625257  1  0  -0.221455  -0.474618  0  2.067839  0
O  O146  1  0.01932416  0.62943261  0.22239141  1  0  -0.348709  -0.50974  0  2.336854  0
O  O147  1  0.98067476  0.37057773  0.77760248  1  0  -0.348757  -0.509844  0  2.337257  0
O  O148  1  0.27772555  0.58504062  0.20674887  1  0  -0.297536  -0.509324  0  2.148849  0
O  O149  1  0.72227884  0.41495348  0.79324283  1  0  -0.297573  -0.509493  0  2.148499  0
