# generated using pymatgen
data_Zn3H24C37N2O13
_symmetry_space_group_name_H-M   'P 1'
_cell_length_a   12.65367894
_cell_length_b   14.63387081
_cell_length_c   25.82666131
_cell_angle_alpha   100.02080727
_cell_angle_beta   90.00009582
_cell_angle_gamma   90.00002956
_symmetry_Int_Tables_number   1
_chemical_formula_structural   Zn3H24C37N2O13
_chemical_formula_sum   'Zn12 H96 C148 N8 O52'
_cell_volume   4709.42532258
_cell_formula_units_Z   4
loop_
 _symmetry_equiv_pos_site_id
 _symmetry_equiv_pos_as_xyz
  1  'x, y, z'
loop_
 _atom_site_type_symbol
 _atom_site_label
 _atom_site_symmetry_multiplicity
 _atom_site_fract_x
 _atom_site_fract_y
 _atom_site_fract_z
 _atom_site_occupancy
 _atom_site_pbe_bader_charge
 _atom_site_pbe_bader_spin_density
 _atom_site_pbe_cm5_charge
 _atom_site_pbe_ddec_charge
 _atom_site_pbe_ddec_spin_density
 _atom_site_pbe_ddec_sum_bond_order
 _atom_site_pbe_magmom
Zn  Zn0  1  0.10366331  0.88428586  0.87790264  1  1.330685  0  0.693223  0.946673  0  2.384043  0
Zn  Zn1  1  0.73242528  0.01570842  0.19559184  1  1.309185  0  0.694819  0.853923  0  2.355476  0
Zn  Zn2  1  0.92711485  0.93056041  0.47020020  1  1.303993  0  0.671885  0.84647  0  2.374464  0
Zn  Zn3  1  0.60366363  0.61571417  0.62209674  1  1.330702  0  0.693213  0.946623  0  2.384086  0
Zn  Zn4  1  0.23242556  0.48429162  0.30440838  1  1.309218  0  0.694833  0.853946  0  2.355424  0
Zn  Zn5  1  0.42711079  0.56944037  0.02979972  1  1.304387  0  0.671916  0.846566  0  2.374344  0
Zn  Zn6  1  0.89633482  0.11571458  0.12209669  1  1.330697  0  0.693231  0.946701  0  2.384003  0
Zn  Zn7  1  0.26757602  0.98429272  0.80440794  1  1.309207  0  0.694784  0.853882  0  2.355525  0
Zn  Zn8  1  0.07288487  0.06944073  0.52979958  1  1.304271  0  0.671878  0.846531  0  2.374401  0
Zn  Zn9  1  0.39633846  0.38428627  0.37790336  1  1.330706  0  0.69322  0.946664  0  2.384144  0
Zn  Zn10  1  0.76757179  0.51570813  0.69559242  1  1.309222  0  0.694819  0.853947  0  2.35544  0
Zn  Zn11  1  0.57288498  0.43056007  0.97020000  1  1.303913  0  0.671882  0.846534  0  2.374282  0
H  H12  1  0.81837617  0.70169242  0.30626131  1  0.054057  0  0.108052  0.113508  0  0.996559  0
H  H13  1  0.59063390  0.49737722  0.45381892  1  0.090572  0  0.107412  0.112689  0  1.013757  0
H  H14  1  0.04588535  0.99556060  0.68453224  1  0.101101  0  0.106632  0.112224  0  1.015822  0
H  H15  1  0.51216284  0.07111066  0.18010906  1  0.607339  0  0.333153  0.358432  0  0.874886  0
H  H16  1  0.77700910  0.78776348  0.49845816  1  0.088942  0  0.128376  0.105661  0  0.981908  0
H  H17  1  0.61613287  0.84182917  0.20300587  1  0.098013  0  0.123948  0.096146  0  0.987693  0
H  H18  1  0.71088235  0.07154469  0.31116248  1  0.103063  0  0.12768  0.108011  0  0.967902  0
H  H19  1  0.89758488  0.84553218  0.35872983  1  0.101939  0  0.117593  0.096985  0  1.013101  0
H  H20  1  0.52131303  0.70776299  0.23183181  1  0.072793  0  0.105906  0.106869  0  0.998693  0
H  H21  1  0.71711861  0.55046442  0.30706075  1  0.074535  0  0.104061  0.106697  0  0.993415  0
H  H22  1  0.44999316  0.63444153  0.30442652  1  0.10631  0  0.102301  0.114748  0  1.019426  0
H  H23  1  0.61967112  0.44900829  0.35818963  1  0.074431  0  0.105605  0.109039  0  1.012123  0
H  H24  1  0.64547460  0.00279092  0.38684689  1  0.082258  0  0.118108  0.13059  0  0.995153  0
H  H25  1  0.66281224  0.64717825  0.50093555  1  0.091728  0  0.108416  0.119315  0  1.00942  0
H  H26  1  0.46852945  0.71425750  0.39746151  1  0.104239  0  0.102304  0.100066  0  1.025119  0
H  H27  1  0.55441997  0.86809891  0.41883104  1  0.059707  0  0.112928  0.118697  0  0.977109  0
H  H28  1  0.93556693  0.89528957  0.01140512  1  0.134332  0  0.106217  0.110509  0  1.043212  0
H  H29  1  0.91153089  0.77591152  0.75491547  1  0.139633  0  0.113642  0.130096  0  0.99424  0
H  H30  1  0.67565999  0.76744418  0.07934763  1  0.097366  0  0.105905  0.111819  0  1.010351  0
H  H31  1  0.82358467  0.80611609  0.59756062  1  0.11914  0  0.111148  0.119429  0  1.008064  0
H  H32  1  0.80952524  0.63647035  0.93171062  1  0.084407  0  0.104736  0.106727  0  1.027679  0
H  H33  1  0.46358429  0.91002123  0.15506071  1  0.029591  0  0.082713  0.067577  0  1.048816  0
H  H34  1  0.43156824  0.98017992  0.10675966  1  0.053642  0  0.095646  0.093394  0  0.991346  0
H  H35  1  0.55052018  0.91269139  0.10080036  1  0.081557  0  0.105384  0.117167  0  0.98686  0
H  H36  1  0.31837517  0.79830550  0.19373823  1  0.054077  0  0.108063  0.113486  0  0.996641  0
H  H37  1  0.09063459  0.00262272  0.04618079  1  0.090577  0  0.107407  0.11267  0  1.013785  0
H  H38  1  0.54588468  0.50443800  0.81546810  1  0.101129  0  0.10664  0.112246  0  1.015784  0
H  H39  1  0.01216552  0.42889130  0.31989195  1  0.607377  0  0.333137  0.358514  0  0.874858  0
H  H40  1  0.27700898  0.71223649  0.00154155  1  0.088916  0  0.128373  0.105674  0  0.981916  0
H  H41  1  0.11613136  0.65817068  0.29699408  1  0.098004  0  0.123938  0.096097  0  0.987759  0
H  H42  1  0.21088141  0.42845672  0.18883785  1  0.103083  0  0.127693  0.108048  0  0.967932  0
H  H43  1  0.39758362  0.65446579  0.14126978  1  0.101878  0  0.117588  0.097009  0  1.013087  0
H  H44  1  0.02131307  0.79223610  0.26816722  1  0.072798  0  0.10592  0.106909  0  0.998713  0
H  H45  1  0.21711850  0.94953481  0.19293923  1  0.074557  0  0.104056  0.106634  0  0.9934  0
H  H46  1  0.94999308  0.86555787  0.19557327  1  0.106251  0  0.102302  0.114748  0  1.01942  0
H  H47  1  0.11967217  0.05098959  0.14180951  1  0.074461  0  0.105619  0.109027  0  1.01218  0
H  H48  1  0.14547345  0.49720975  0.11315410  1  0.082313  0  0.118104  0.130599  0  0.995145  0
H  H49  1  0.16281232  0.85282113  0.99906303  1  0.091684  0  0.10841  0.119346  0  1.009372  0
H  H50  1  0.96853059  0.78574261  0.10253759  1  0.104185  0  0.102292  0.10005  0  1.025091  0
H  H51  1  0.05442086  0.63190091  0.08116924  1  0.059658  0  0.112946  0.118729  0  0.977164  0
H  H52  1  0.43556446  0.60470982  0.48859621  1  0.134366  0  0.10619  0.110427  0  1.043194  0
H  H53  1  0.41153161  0.72408873  0.74508379  1  0.139616  0  0.113636  0.130096  0  0.994232  0
H  H54  1  0.17565894  0.73255711  0.42065329  1  0.09737  0  0.105898  0.111805  0  1.010393  0
H  H55  1  0.32358669  0.69388479  0.90243941  1  0.119138  0  0.11115  0.119429  0  1.008086  0
H  H56  1  0.30952623  0.86353330  0.56828967  1  0.084434  0  0.104759  0.106751  0  1.027611  0
H  H57  1  0.96358456  0.58997957  0.34493885  1  0.029476  0  0.082719  0.067612  0  1.048833  0
H  H58  1  0.93156943  0.51982086  0.39323987  1  0.053661  0  0.09566  0.093405  0  0.991382  0
H  H59  1  0.05052055  0.58731050  0.39919974  1  0.081547  0  0.105369  0.117154  0  0.986847  0
H  H60  1  0.18162434  0.29830733  0.69373795  1  0.054075  0  0.108052  0.113486  0  0.996626  0
H  H61  1  0.40936503  0.50262253  0.54618111  1  0.090589  0  0.107415  0.112672  0  1.013776  0
H  H62  1  0.95411357  0.00443914  0.31546895  1  0.101082  0  0.106636  0.112229  0  1.015846  0
H  H63  1  0.48783293  0.92888978  0.81989181  1  0.607391  0  0.333178  0.358498  0  0.87482  0
H  H64  1  0.22299140  0.21223696  0.50154155  1  0.088925  0  0.128359  0.105652  0  0.981911  0
H  H65  1  0.38386764  0.15817057  0.79699454  1  0.098002  0  0.123934  0.096129  0  0.987698  0
H  H66  1  0.28911579  0.92845506  0.68883793  1  0.103052  0  0.127676  0.108001  0  0.967875  0
H  H67  1  0.10241642  0.15446826  0.64126988  1  0.101899  0  0.117589  0.096992  0  1.013074  0
H  H68  1  0.47868748  0.29223675  0.76816783  1  0.072787  0  0.105916  0.106899  0  0.998685  0
H  H69  1  0.28288110  0.44953532  0.69293889  1  0.074548  0  0.104068  0.106713  0  0.99341  0
H  H70  1  0.55000735  0.36555891  0.69557358  1  0.106405  0  0.102304  0.114766  0  1.019392  0
H  H71  1  0.38032860  0.55099146  0.64181001  1  0.07444  0  0.105617  0.109031  0  1.01216  0
H  H72  1  0.35452512  0.99720814  0.61315346  1  0.082255  0  0.118093  0.1306  0  0.995125  0
H  H73  1  0.33718827  0.35282150  0.49906409  1  0.091699  0  0.108401  0.119296  0  1.009451  0
H  H74  1  0.53147026  0.28574363  0.60253711  1  0.104182  0  0.1023  0.100065  0  1.025059  0
H  H75  1  0.44557975  0.13190154  0.58116828  1  0.059719  0  0.112944  0.118737  0  0.977131  0
H  H76  1  0.06443357  0.10470948  0.98859600  1  0.134341  0  0.106173  0.11044  0  1.043189  0
H  H77  1  0.08846962  0.22408822  0.24508456  1  0.139634  0  0.113638  0.130102  0  0.994247  0
H  H78  1  0.32433894  0.23255626  0.92065401  1  0.097399  0  0.105945  0.111861  0  1.010376  0
H  H79  1  0.17641821  0.19388296  0.40243857  1  0.119128  0  0.111207  0.119476  0  1.008082  0
H  H80  1  0.19047447  0.36353009  0.06828987  1  0.084336  0  0.104741  0.106719  0  1.027669  0
H  H81  1  0.53641780  0.08997782  0.84493809  1  0.029674  0  0.082704  0.067553  0  1.048868  0
H  H82  1  0.56843306  0.01982052  0.89323967  1  0.053781  0  0.09565  0.093393  0  0.991318  0
H  H83  1  0.44948270  0.08731044  0.89919949  1  0.081576  0  0.105356  0.117105  0  0.986953  0
H  H84  1  0.68162455  0.20169216  0.80626159  1  0.05407  0  0.108048  0.113476  0  0.996626  0
H  H85  1  0.90936829  0.99737425  0.95381896  1  0.090578  0  0.107413  0.112673  0  1.013758  0
H  H86  1  0.45411662  0.49556175  0.18453270  1  0.101623  0  0.106651  0.112247  0  1.015799  0
H  H87  1  0.98783657  0.57110844  0.68010963  1  0.607243  0  0.333149  0.358418  0  0.87491  0
H  H88  1  0.72299311  0.28776117  0.99845827  1  0.08891  0  0.128381  0.105694  0  0.981893  0
H  H89  1  0.88386678  0.34183045  0.70300570  1  0.098012  0  0.123914  0.096097  0  0.987688  0
H  H90  1  0.78911752  0.57154511  0.81116238  1  0.103043  0  0.127677  0.107987  0  0.967912  0
H  H91  1  0.60241531  0.34553326  0.85872979  1  0.101887  0  0.117588  0.096983  0  1.013095  0
H  H92  1  0.97868744  0.20776365  0.73183204  1  0.0728  0  0.105915  0.106898  0  0.998691  0
H  H93  1  0.78288359  0.05046424  0.80706112  1  0.07457  0  0.104081  0.106719  0  0.993403  0
H  H94  1  0.05000742  0.13444188  0.80442637  1  0.106355  0  0.102303  0.114795  0  1.019367  0
H  H95  1  0.88032992  0.94900877  0.85819000  1  0.074418  0  0.105619  0.109034  0  1.012152  0
H  H96  1  0.85452706  0.50279208  0.88684575  1  0.082275  0  0.118108  0.130624  0  0.995161  0
H  H97  1  0.83718977  0.14717653  0.00093563  1  0.091715  0  0.108425  0.119365  0  1.009371  0
H  H98  1  0.03147150  0.21425853  0.89746218  1  0.104237  0  0.102307  0.100079  0  1.025107  0
H  H99  1  0.94558123  0.36810023  0.91883209  1  0.059712  0  0.112922  0.11869  0  0.977089  0
H  H100  1  0.56443210  0.39529062  0.51140389  1  0.134328  0  0.106225  0.110537  0  1.043202  0
H  H101  1  0.58847285  0.27591171  0.25491514  1  0.139645  0  0.113641  0.130133  0  0.994243  0
H  H102  1  0.82433999  0.26744264  0.57934442  1  0.097472  0  0.105923  0.111848  0  1.010406  0
H  H103  1  0.67641619  0.30611774  0.09756012  1  0.119115  0  0.111174  0.119423  0  1.00812  0
H  H104  1  0.69047033  0.13646923  0.43170947  1  0.084343  0  0.104731  0.106732  0  1.027709  0
H  H105  1  0.03641595  0.41001879  0.65506182  1  0.029523  0  0.0827  0.067563  0  1.048862  0
H  H106  1  0.06842950  0.48017889  0.60676093  1  0.053688  0  0.095666  0.093417  0  0.991357  0
H  H107  1  0.94947917  0.41269063  0.60080120  1  0.081564  0  0.105381  0.117155  0  0.986874  0
C  C108  1  0.57784770  0.83074727  0.28395949  1  -0.007173  0  -0.007218  0.020489  0  4.024221  0
C  C109  1  0.80755330  0.71782861  0.34881380  1  0.007786  0  -0.085286  -0.183265  0  4.007886  0
C  C110  1  0.05031897  0.91737798  0.77257511  1  1.557164  0  0.221475  0.600358  0  4.178552  0
C  C111  1  0.63579939  0.54261354  0.43275492  1  0.06587  0  -0.080187  -0.063803  0  3.963748  0
C  C112  1  0.73574039  0.69330970  0.00582560  1  0.016749  0  -0.015613  -0.028248  0  3.965059  0
C  C113  1  0.94964922  0.95230455  0.58910892  1  1.588478  0  0.215871  0.595553  0  4.178919  0
C  C114  1  0.65487851  0.61761522  0.00310021  1  1.590114  0  0.212396  0.597375  0  4.17339  0
C  C115  1  0.98284057  0.89049441  0.72508301  1  0.008218  0  -0.022808  -0.050918  0  3.99805  0
C  C116  1  0.99163558  0.93729731  0.68246160  1  -0.075085  0  -0.067629  -0.085347  0  3.913824  0
C  C117  1  0.93375272  0.90745217  0.63653450  1  0.031527  0  -0.016082  -0.037497  0  3.976235  0
C  C118  1  0.74942320  0.65660210  0.37497812  1  -0.140535  0  0.003879  0.092727  0  4.026526  0
C  C119  1  0.78378966  0.76612649  0.45592496  1  0.531129  0  0.072409  0.069535  0  3.873442  0
C  C120  1  0.61990340  0.87536532  0.24422523  1  0.478162  0  0.060221  0.053152  0  3.9087  0
C  C121  1  0.67397052  0.00332377  0.30531958  1  0.411813  0  0.040564  0.080014  0  3.93271  0
C  C122  1  0.85131061  0.79705958  0.37705158  1  0.431828  0  0.029832  0.057863  0  3.966815  0
C  C123  1  0.52766067  0.74271194  0.27267061  1  -0.028029  0  -0.084169  -0.128114  0  3.984624  0
C  C124  1  0.70633211  0.57125357  0.34939619  1  0.003701  0  -0.08928  -0.147069  0  3.987095  0
C  C125  1  0.73547874  0.68303452  0.43064924  1  0.064992  0  -0.003329  0.020799  0  4.010017  0
C  C126  1  0.48836860  0.70215797  0.31303402  1  -0.04449  0  -0.085624  -0.076348  0  3.976722  0
C  C127  1  0.65189975  0.51506821  0.37796797  1  -0.031952  0  -0.076323  -0.054887  0  3.966526  0
C  C128  1  0.63685677  0.96518145  0.34678190  1  0.048969  0  -0.068312  -0.148616  0  3.927092  0
C  C129  1  0.58714075  0.87717077  0.33744655  1  -0.00947  0  0.007986  0.100156  0  4.000462  0
C  C130  1  0.67643508  0.62536371  0.45886336  1  -0.13197  0  -0.076608  -0.114318  0  3.940292  0
C  C131  1  0.49853807  0.74776879  0.36594077  1  -0.061894  0  -0.074485  -0.045657  0  3.967442  0
C  C132  1  0.54657000  0.83338930  0.37807440  1  0.010924  0  -0.079762  -0.131591  0  3.947904  0
C  C133  1  0.87976338  0.83849260  0.00971307  1  -0.076141  0  -0.076126  -0.10067  0  3.940937  0
C  C134  1  0.91649541  0.81319864  0.72196101  1  -0.079047  0  -0.068551  -0.088015  0  3.899135  0
C  C135  1  0.88093224  0.76620080  0.96668336  1  0.001063  0  -0.019116  -0.033744  0  3.972871  0
C  C136  1  0.80703520  0.83925423  0.05056529  1  -0.052911  0  -0.026553  -0.062717  0  4.025687  0
C  C137  1  0.73410381  0.76697158  0.04836811  1  -0.033565  0  -0.072088  -0.094071  0  3.92595  0
C  C138  1  0.85930642  0.78307396  0.67591370  1  0.006627  0  -0.021253  -0.05271  0  4.001909  0
C  C139  1  0.86733960  0.83062332  0.63353151  1  -0.006739  0  -0.061169  -0.068467  0  3.88902  0
C  C140  1  0.80939650  0.69286918  0.96530465  1  -0.012034  0  -0.067179  -0.088806  0  3.905819  0
C  C141  1  0.95566063  0.77065647  0.92158386  1  1.573399  0  0.1969  0.572065  0  4.234208  0
C  C142  1  0.80834321  0.91954806  0.09485458  1  1.546947  0  0.225887  0.605574  0  4.164829  0
C  C143  1  0.79361324  0.69770100  0.67014995  1  1.545187  0  0.221996  0.601255  0  4.175548  0
C  C144  1  0.49641187  0.95411289  0.12854706  1  0.373837  0  -0.150221  -0.116588  0  3.930299  0
C  C145  1  0.07784354  0.66925395  0.21604096  1  -0.007142  0  -0.007249  0.020406  0  4.024314  0
C  C146  1  0.30754978  0.78216861  0.15118605  1  0.007799  0  -0.08524  -0.183077  0  4.007927  0
C  C147  1  0.55032042  0.58262271  0.72742544  1  1.557197  0  0.221485  0.600383  0  4.178598  0
C  C148  1  0.13579806  0.95738564  0.06724460  1  0.065861  0  -0.080188  -0.063795  0  3.96371  0
C  C149  1  0.23574043  0.80669232  0.49417351  1  0.016623  0  -0.015613  -0.028204  0  3.964983  0
C  C150  1  0.44965356  0.54769503  0.91089069  1  1.588303  0  0.215892  0.595556  0  4.179079  0
C  C151  1  0.15487939  0.88238813  0.49689857  1  1.590166  0  0.212462  0.597416  0  4.173493  0
C  C152  1  0.48283974  0.60950381  0.77491727  1  0.008249  0  -0.022785  -0.050914  0  3.998052  0
C  C153  1  0.49163250  0.56270092  0.81753830  1  -0.075098  0  -0.067684  -0.085459  0  3.913867  0
C  C154  1  0.43375139  0.59254810  0.86346671  1  0.031512  0  -0.016116  -0.037537  0  3.976279  0
C  C155  1  0.24942200  0.84339508  0.12502129  1  -0.140537  0  0.003795  0.092595  0  4.026641  0
C  C156  1  0.28378733  0.73387211  0.04407423  1  0.531213  0  0.072455  0.069525  0  3.873377  0
C  C157  1  0.11989935  0.62463384  0.25577505  1  0.478478  0  0.060179  0.053183  0  3.908718  0
C  C158  1  0.17396965  0.49667623  0.19468058  1  0.414174  0  0.04043  0.079734  0  3.932812  0
C  C159  1  0.35130695  0.70293698  0.12294824  1  0.431875  0  0.029812  0.057719  0  3.966777  0
C  C160  1  0.02766055  0.75728855  0.22733011  1  -0.028083  0  -0.084146  -0.128135  0  3.984657  0
C  C161  1  0.20632946  0.92874496  0.15060332  1  0.003816  0  -0.089307  -0.147047  0  3.98705  0
C  C162  1  0.23547891  0.81696334  0.06935062  1  0.06488  0  -0.003294  0.020949  0  4.009906  0
C  C163  1  0.98836845  0.79784147  0.18696542  1  -0.044535  0  -0.085642  -0.076373  0  3.976524  0
C  C164  1  0.15189783  0.98493098  0.12203156  1  -0.032034  0  -0.076258  -0.054779  0  3.966541  0
C  C165  1  0.13685390  0.53481773  0.15321839  1  0.046541  0  -0.068302  -0.148553  0  3.926986  0
C  C166  1  0.08713639  0.62282837  0.16255293  1  -0.009457  0  0.007972  0.100221  0  4.00032  0
C  C167  1  0.17643439  0.87463480  0.04113613  1  -0.131935  0  -0.076655  -0.114472  0  3.940175  0
C  C168  1  0.99853930  0.75223134  0.13405913  1  -0.061977  0  -0.074472  -0.045598  0  3.967356  0
C  C169  1  0.04657026  0.66660982  0.12192504  1  0.011187  0  -0.079752  -0.131654  0  3.947987  0
C  C170  1  0.37976174  0.66150883  0.49028803  1  -0.076121  0  -0.076073  -0.100546  0  3.94064  0
C  C171  1  0.41649543  0.68680231  0.77803910  1  -0.079042  0  -0.068547  -0.088007  0  3.899189  0
C  C172  1  0.38093224  0.73380290  0.53331738  1  0.000998  0  -0.019067  -0.033729  0  3.972818  0
C  C173  1  0.30703341  0.66074646  0.44943567  1  -0.053401  0  -0.026523  -0.062591  0  4.025558  0
C  C174  1  0.23410366  0.73303044  0.45163254  1  -0.033057  0  -0.072135  -0.094201  0  3.926132  0
C  C175  1  0.35930977  0.71692625  0.82408706  1  0.006633  0  -0.021225  -0.052736  0  4.001963  0
C  C176  1  0.36733991  0.66937759  0.86646932  1  -0.006776  0  -0.061151  -0.068395  0  3.888987  0
C  C177  1  0.30939813  0.80713239  0.53469504  1  -0.012043  0  -0.067209  -0.088841  0  3.905694  0
C  C178  1  0.45566157  0.72934381  0.57841583  1  1.573383  0  0.196869  0.572033  0  4.234173  0
C  C179  1  0.30833570  0.58045193  0.40514594  1  1.547694  0  0.225984  0.605712  0  4.164758  0
C  C180  1  0.29361903  0.80230194  0.82985103  1  1.545266  0  0.221956  0.601195  0  4.175516  0
C  C181  1  0.99641141  0.54588794  0.37145330  1  0.374082  0  -0.150262  -0.116626  0  3.930323  0
C  C182  1  0.42215202  0.16925456  0.71604036  1  -0.007177  0  -0.007183  0.020437  0  4.024267  0
C  C183  1  0.19244799  0.28217044  0.65118616  1  0.007791  0  -0.085233  -0.183132  0  4.007959  0
C  C184  1  0.94968074  0.08262524  0.22742565  1  1.557214  0  0.221417  0.600322  0  4.178809  0
C  C185  1  0.36420032  0.45738621  0.56724472  1  0.065829  0  -0.080178  -0.063795  0  3.96371  0
C  C186  1  0.26425695  0.30669143  0.99417418  1  0.016977  0  -0.015584  -0.028248  0  3.965171  0
C  C187  1  0.05034971  0.04769797  0.41089061  1  1.58835  0  0.215905  0.595606  0  4.179052  0
C  C188  1  0.34512200  0.38238383  0.99689820  1  1.590189  0  0.212351  0.597318  0  4.173466  0
C  C189  1  0.01715915  0.10950603  0.27491748  1  0.008283  0  -0.022757  -0.0508  0  3.998105  0
C  C190  1  0.00836493  0.06270313  0.31753888  1  -0.075151  0  -0.0676  -0.085419  0  3.913832  0
C  C191  1  0.06624779  0.09254896  0.36346721  1  0.031585  0  -0.016099  -0.037384  0  3.976206  0
C  C192  1  0.25057731  0.34339695  0.62502145  1  -0.140519  0  0.00383  0.09265  0  4.026571  0
C  C193  1  0.21621164  0.23387257  0.54407461  1  0.53123  0  0.07241  0.069485  0  3.873495  0
C  C194  1  0.38009711  0.12463512  0.75577487  1  0.478179  0  0.060238  0.053222  0  3.908623  0
C  C195  1  0.32602682  0.99667736  0.69468097  1  0.411813  0  0.04051  0.079998  0  3.932821  0
C  C196  1  0.14869069  0.20293878  0.62294792  1  0.431871  0  0.029839  0.057825  0  3.966805  0
C  C197  1  0.47233826  0.25728920  0.72732995  1  -0.028102  0  -0.084148  -0.128096  0  3.98455  0
C  C198  1  0.29366919  0.42874617  0.65060384  1  0.003707  0  -0.08931  -0.147141  0  3.987159  0
C  C199  1  0.26452177  0.31696384  0.56935027  1  0.064893  0  -0.003281  0.020878  0  4.009952  0
C  C200  1  0.51163112  0.29784317  0.68696537  1  -0.044516  0  -0.085661  -0.076409  0  3.976535  0
C  C201  1  0.34809997  0.48493153  0.62203205  1  -0.031954  0  -0.076329  -0.054855  0  3.966567  0
C  C202  1  0.36314058  0.03481969  0.65321788  1  0.048985  0  -0.068276  -0.148649  0  3.927128  0
C  C203  1  0.41285817  0.12282967  0.66255278  1  -0.009464  0  0.007937  0.100199  0  4.000419  0
C  C204  1  0.32356543  0.37463534  0.54113583  1  -0.131934  0  -0.076608  -0.114295  0  3.940266  0
C  C205  1  0.50146006  0.25223234  0.63405939  1  -0.061644  0  -0.074479  -0.045622  0  3.96738  0
C  C206  1  0.45342656  0.16661184  0.62192538  1  0.010711  0  -0.079741  -0.131632  0  3.947867  0
C  C207  1  0.12023792  0.16150853  0.99028748  1  -0.076077  0  -0.076072  -0.100633  0  3.940713  0
C  C208  1  0.08350589  0.18680111  0.27803902  1  -0.079035  0  -0.068532  -0.088028  0  3.899136  0
C  C209  1  0.11906668  0.23380172  0.03331734  1  0.000952  0  -0.019111  -0.033829  0  3.9729  0
C  C210  1  0.19296610  0.16074413  0.94943499  1  -0.052949  0  -0.026488  -0.062434  0  4.025473  0
C  C211  1  0.26589512  0.23302955  0.95163244  1  -0.033565  0  -0.072155  -0.094256  0  3.926036  0
C  C212  1  0.14069488  0.21692579  0.32408633  1  0.006629  0  -0.021265  -0.052691  0  4.001912  0
C  C213  1  0.13266170  0.16937712  0.36646858  1  -0.006759  0  -0.061255  -0.068619  0  3.889078  0
C  C214  1  0.19060085  0.30713196  0.03469590  1  -0.012299  0  -0.067182  -0.088706  0  3.905797  0
C  C215  1  0.04433830  0.22934258  0.07841494  1  1.573383  0  0.196847  0.572014  0  4.234215  0
C  C216  1  0.19166441  0.08045168  0.90514700  1  1.547584  0  0.22589  0.605587  0  4.164958  0
C  C217  1  0.20638806  0.30230014  0.32984905  1  1.545024  0  0.221951  0.601183  0  4.17562  0
C  C218  1  0.50358864  0.04588686  0.87145180  1  0.373739  0  -0.150202  -0.116498  0  3.930405  0
C  C219  1  0.92215143  0.33074719  0.78395921  1  -0.007179  0  -0.007177  0.020452  0  4.024136  0
C  C220  1  0.69244756  0.21782836  0.84881409  1  0.007827  0  -0.085242  -0.18314  0  4.007888  0
C  C221  1  0.44968009  0.41737496  0.27257399  1  1.557245  0  0.221485  0.600399  0  4.178545  0
C  C222  1  0.86420087  0.04261133  0.93275516  1  0.065813  0  -0.080204  -0.063845  0  3.963714  0
C  C223  1  0.76425929  0.19330743  0.50582420  1  0.016884  0  -0.015612  -0.028225  0  3.965166  0
C  C224  1  0.55034853  0.45230402  0.08911004  1  1.588295  0  0.21592  0.595644  0  4.179142  0
C  C225  1  0.84512033  0.11761162  0.50309913  1  1.589794  0  0.212514  0.597536  0  4.173357  0
C  C226  1  0.51716156  0.39049594  0.22508276  1  0.00829  0  -0.022729  -0.050811  0  3.998024  0
C  C227  1  0.50836959  0.43730022  0.18246226  1  -0.075656  0  -0.067696  -0.085493  0  3.91388  0
C  C228  1  0.56624911  0.40745512  0.13653405  1  0.03155  0  -0.016081  -0.037455  0  3.976248  0
C  C229  1  0.75057535  0.15660051  0.87497872  1  -0.140552  0  0.003852  0.092709  0  4.026562  0
C  C230  1  0.71621318  0.26612556  0.95592559  1  0.531219  0  0.072459  0.069555  0  3.873534  0
C  C231  1  0.88009642  0.37536591  0.74422498  1  0.478155  0  0.060285  0.053281  0  3.908609  0
C  C232  1  0.82602928  0.50332491  0.80531881  1  0.41444  0  0.040555  0.080089  0  3.932851  0
C  C233  1  0.64869040  0.29706138  0.87705243  1  0.431916  0  0.02985  0.057918  0  3.966796  0
C  C234  1  0.97233837  0.24271259  0.77267044  1  -0.02802  0  -0.084185  -0.128121  0  3.984496  0
C  C235  1  0.79366868  0.07125062  0.84939630  1  0.00373  0  -0.089294  -0.14713  0  3.987151  0
C  C236  1  0.76452001  0.18303433  0.93064882  1  0.064896  0  -0.003385  0.020713  0  4.009963  0
C  C237  1  0.01163048  0.20215759  0.81303454  1  -0.044529  0  -0.085654  -0.076436  0  3.976582  0
C  C238  1  0.84810110  0.01506600  0.87796781  1  -0.032025  0  -0.076356  -0.054822  0  3.966547  0
C  C239  1  0.86314424  0.46518340  0.84678139  1  0.04633  0  -0.068317  -0.148716  0  3.927224  0
C  C240  1  0.91285938  0.37717138  0.83744633  1  -0.009449  0  0.007959  0.100243  0  4.000436  0
C  C241  1  0.82356690  0.12536217  0.95886363  1  -0.131933  0  -0.076567  -0.114298  0  3.940067  0
C  C242  1  0.00146121  0.24776841  0.86594051  1  -0.061876  0  -0.07449  -0.045679  0  3.967445  0
C  C243  1  0.95342946  0.33338993  0.87807422  1  0.010927  0  -0.079757  -0.131611  0  3.947859  0
C  C244  1  0.62023640  0.33849161  0.50971362  1  -0.076117  0  -0.076078  -0.100654  0  3.940857  0
C  C245  1  0.58350824  0.31320021  0.22196159  1  -0.078905  0  -0.0685  -0.088  0  3.89911  0
C  C246  1  0.61906748  0.26619893  0.46668440  1  0.00107  0  -0.01914  -0.033799  0  3.972806  0
C  C247  1  0.69296631  0.33925398  0.55056442  1  -0.05294  0  -0.026546  -0.06258  0  4.025655  0
C  C248  1  0.76589606  0.26697000  0.54836562  1  -0.033721  0  -0.072177  -0.094302  0  3.926173  0
C  C249  1  0.64069469  0.28307488  0.17591272  1  0.006559  0  -0.021268  -0.052792  0  4.001898  0
C  C250  1  0.63266060  0.33062424  0.13353052  1  -0.006828  0  -0.061182  -0.06843  0  3.888933  0
C  C251  1  0.69060159  0.19286667  0.46530376  1  -0.012088  0  -0.067139  -0.088737  0  3.905884  0
C  C252  1  0.54433736  0.27066010  0.42158500  1  1.573832  0  0.196862  0.57209  0  4.233791  0
C  C253  1  0.69166007  0.41954712  0.59485364  1  1.547699  0  0.225895  0.605609  0  4.164961  0
C  C254  1  0.70638701  0.19769989  0.17014843  1  1.5452  0  0.221974  0.601259  0  4.17564  0
C  C255  1  0.00358910  0.45411111  0.62854782  1  0.382819  0  -0.150257  -0.116603  0  3.930321  0
N  N256  1  0.66597463  0.95832817  0.25432012  1  -1.266316  0  -0.332101  -0.238271  0  3.601811  0
N  N257  1  0.84070510  0.82049106  0.43047536  1  -1.236807  0  -0.322981  -0.208522  0  3.536258  0
N  N258  1  0.16597287  0.54167103  0.24568098  1  -1.266605  0  -0.331941  -0.238065  0  3.601594  0
N  N259  1  0.34070203  0.67950757  0.06952427  1  -1.236856  0  -0.323004  -0.208554  0  3.536249  0
N  N260  1  0.33402351  0.04167158  0.74568030  1  -1.266307  0  -0.332082  -0.238282  0  3.601875  0
N  N261  1  0.15929541  0.17950938  0.56952474  1  -1.236858  0  -0.323003  -0.208538  0  3.536359  0
N  N262  1  0.83402448  0.45832872  0.75431983  1  -1.266345  0  -0.33211  -0.238364  0  3.601821  0
N  N263  1  0.65929690  0.32048871  0.93047580  1  -1.236795  0  -0.323024  -0.208684  0  3.536461  0
O  O264  1  0.74430578  0.91797473  0.13312463  1  -1.168384  0  -0.315303  -0.544726  0  2.367672  0
O  O265  1  0.79388831  0.65132269  0.70783248  1  -1.166108  0  -0.318315  -0.548809  0  2.344624  0
O  O266  1  0.01800293  0.84353754  0.93065762  1  -1.18313  0  -0.345929  -0.590443  0  2.354139  0
O  O267  1  0.03428258  0.87184423  0.80973178  1  -1.171976  0  -0.311326  -0.555163  0  2.412895  0
O  O268  1  0.11874257  0.98112363  0.77242964  1  -1.180481  0  -0.319783  -0.571388  0  2.361971  0
O  O269  1  0.90130035  0.91587431  0.54735296  1  -1.172501  0  -0.316156  -0.554694  0  2.331093  0
O  O270  1  0.56840884  0.64008846  0.02706604  1  -1.171879  0  -0.321061  -0.559918  0  2.330972  0
O  O271  1  0.01261158  0.02104580  0.59433748  1  -1.181362  0  -0.316706  -0.5493  0  2.340117  0
O  O272  1  0.67886448  0.53840916  0.97678212  1  -1.169038  0  -0.322288  -0.550321  0  2.296376  0
O  O273  1  0.55804510  0.02917076  0.15684589  1  -1.119156  0  -0.40129  -0.445239  0  2.388206  0
O  O274  1  0.74257662  0.67600755  0.62722936  1  -1.171355  0  -0.316186  -0.55598  0  2.364846  0
O  O275  1  0.87390677  0.98377982  0.09109394  1  -1.186522  0  -0.313624  -0.558727  0  2.406961  0
O  O276  1  0.95355128  0.71122431  0.88105845  1  -1.153055  0  -0.339191  -0.547442  0  2.055254  0
O  O277  1  0.24430050  0.58202660  0.36687558  1  -1.168413  0  -0.315361  -0.544836  0  2.367521  0
O  O278  1  0.29389321  0.84867817  0.79216713  1  -1.166119  0  -0.318296  -0.548802  0  2.34465  0
O  O279  1  0.51800072  0.65646103  0.56934231  1  -1.183161  0  -0.34591  -0.590466  0  2.354202  0
O  O280  1  0.53428630  0.62815852  0.69027090  1  -1.171993  0  -0.311313  -0.555081  0  2.412912  0
O  O281  1  0.61874240  0.51887572  0.72756852  1  -1.18052  0  -0.319815  -0.571451  0  2.36203  0
O  O282  1  0.40130090  0.58412316  0.95264756  1  -1.172433  0  -0.316154  -0.554656  0  2.330995  0
O  O283  1  0.06841121  0.85991761  0.47293217  1  -1.17188  0  -0.321033  -0.559855  0  2.331152  0
O  O284  1  0.51261624  0.47895704  0.90566264  1  -1.181339  0  -0.316708  -0.549306  0  2.340258  0
O  O285  1  0.17887011  0.96159370  0.52321643  1  -1.169014  0  -0.32237  -0.550403  0  2.29642  0
O  O286  1  0.05804867  0.47083193  0.34315368  1  -1.119358  0  -0.401249  -0.445339  0  2.388167  0
O  O287  1  0.24258178  0.82399813  0.87277184  1  -1.171405  0  -0.316182  -0.555939  0  2.364819  0
O  O288  1  0.37389528  0.51621675  0.40890706  1  -1.18724  0  -0.313698  -0.558798  0  2.407147  0
O  O289  1  0.45355871  0.78877597  0.61894162  1  -1.153024  0  -0.339211  -0.547428  0  2.05521  0
O  O290  1  0.25569315  0.08202640  0.86687554  1  -1.168326  0  -0.315298  -0.544781  0  2.367722  0
O  O291  1  0.20611299  0.34867706  0.29216600  1  -1.165991  0  -0.318298  -0.54878  0  2.34471  0
O  O292  1  0.98199600  0.15646290  0.06934093  1  -1.183172  0  -0.345961  -0.590483  0  2.354161  0
O  O293  1  0.96571556  0.12815829  0.19027046  1  -1.172052  0  -0.311301  -0.555136  0  2.412851  0
O  O294  1  0.88125873  0.01887681  0.22756853  1  -1.180465  0  -0.319812  -0.571437  0  2.362079  0
O  O295  1  0.09870095  0.08412544  0.45264745  1  -1.172448  0  -0.316155  -0.554709  0  2.331078  0
O  O296  1  0.43158772  0.35990990  0.97293269  1  -1.171863  0  -0.32099  -0.559856  0  2.331022  0
O  O297  1  0.98738418  0.97895881  0.40566342  1  -1.181334  0  -0.316683  -0.549309  0  2.340147  0
O  O298  1  0.32113287  0.46159197  0.02321650  1  -1.168912  0  -0.32232  -0.550295  0  2.296396  0
O  O299  1  0.44195383  0.97083246  0.84315371  1  -1.119374  0  -0.401299  -0.445308  0  2.38819  0
O  O300  1  0.25742389  0.32399358  0.37277003  1  -1.171325  0  -0.316167  -0.555953  0  2.364874  0
O  O301  1  0.12610797  0.01621506  0.90891064  1  -1.187246  0  -0.313653  -0.558754  0  2.407031  0
O  O302  1  0.04644844  0.28877336  0.11894137  1  -1.15301  0  -0.339162  -0.547402  0  2.055219  0
O  O303  1  0.75569605  0.41797592  0.63312356  1  -1.168402  0  -0.315251  -0.544714  0  2.36765  0
O  O304  1  0.70610809  0.15132296  0.20783265  1  -1.166062  0  -0.318285  -0.548776  0  2.344574  0
O  O305  1  0.48199505  0.34354218  0.43066077  1  -1.183119  0  -0.345893  -0.590505  0  2.354008  0
O  O306  1  0.46571579  0.37183845  0.30973002  1  -1.172094  0  -0.311415  -0.555199  0  2.41277  0
O  O307  1  0.38125811  0.48112334  0.27243183  1  -1.180468  0  -0.319786  -0.571437  0  2.361965  0
O  O308  1  0.59869882  0.41587519  0.04735465  1  -1.172424  0  -0.316175  -0.554727  0  2.331178  0
O  O309  1  0.93158851  0.14008283  0.52706715  1  -1.171805  0  -0.32105  -0.559928  0  2.331106  0
O  O310  1  0.48738110  0.52104132  0.09433532  1  -1.181377  0  -0.316711  -0.54934  0  2.340128  0
O  O311  1  0.82113198  0.03840536  0.47678120  1  -1.168832  0  -0.322401  -0.550444  0  2.29637  0
O  O312  1  0.94195421  0.52916642  0.65684815  1  -1.128057  0  -0.401253  -0.445205  0  2.388158  0
O  O313  1  0.75742189  0.17600509  0.12722853  1  -1.171426  0  -0.316195  -0.556018  0  2.365022  0
O  O314  1  0.62609812  0.48378022  0.59109270  1  -1.187252  0  -0.313697  -0.558788  0  2.4071  0
O  O315  1  0.54644970  0.21123002  0.38105903  1  -1.153492  0  -0.339174  -0.547423  0  2.055118  0
