# generated using pymatgen
data_CuH4C5N3O
_symmetry_space_group_name_H-M   'P 1'
_cell_length_a   5.86628574
_cell_length_b   8.61891977
_cell_length_c   11.90060793
_cell_angle_alpha   90.00047838
_cell_angle_beta   89.99982021
_cell_angle_gamma   90.00123545
_symmetry_Int_Tables_number   1
_chemical_formula_structural   CuH4C5N3O
_chemical_formula_sum   'Cu4 H16 C20 N12 O4'
_cell_volume   601.70718627
_cell_formula_units_Z   4
loop_
 _symmetry_equiv_pos_site_id
 _symmetry_equiv_pos_as_xyz
  1  'x, y, z'
loop_
 _atom_site_type_symbol
 _atom_site_label
 _atom_site_symmetry_multiplicity
 _atom_site_fract_x
 _atom_site_fract_y
 _atom_site_fract_z
 _atom_site_occupancy
 _atom_site_hle17_bader_spin_density
 _atom_site_hle17_ddec_charge
 _atom_site_hle17_ddec_spin_density
 _atom_site_hle17_ddec_sum_bond_order
 _atom_site_hle17_magmom
 _atom_site_hse06_10hf_bader_spin_density
 _atom_site_hse06_10hf_ddec_charge
 _atom_site_hse06_10hf_ddec_spin_density
 _atom_site_hse06_10hf_ddec_sum_bond_order
 _atom_site_hse06_10hf_magmom
 _atom_site_hse06_bader_spin_density
 _atom_site_hse06_ddec_charge
 _atom_site_hse06_ddec_spin_density
 _atom_site_hse06_ddec_sum_bond_order
 _atom_site_hse06_magmom
 _atom_site_pbe_bader_spin_density
 _atom_site_pbe_cm5_charge
 _atom_site_pbe_ddec_charge
 _atom_site_pbe_ddec_spin_density
 _atom_site_pbe_ddec_sum_bond_order
 _atom_site_pbe_magmom
Cu  Cu0  1  0.82449457  0.35652507  0.74999860  1  0  0.554982  0  1.96265  0  0  0.451864  0  2.450949  0  0  0.428488  0  2.42215  0  0  0.601964  0.471304  0  2.466913  0
Cu  Cu1  1  0.32447302  0.14347373  0.75000150  1  0  0.555032  0  1.962704  0  0  0.451956  0  2.450985  0  0  0.428625  0  2.422197  0  0  0.601999  0.471411  0  2.466986  0
Cu  Cu2  1  0.67551098  0.85651294  0.24999964  1  0  0.554835  0  1.962872  0  0  0.451733  0  2.451203  0  0  0.428373  0  2.422419  0  0  0.601938  0.471199  0  2.467114  0
Cu  Cu3  1  0.17552864  0.64349756  0.25000002  1  0  0.554782  0  1.963013  0  0  0.451604  0  2.451357  0  0  0.428267  0  2.422581  0  0  0.601885  0.471057  0  2.467249  0
H  H4  1  0.07923502  0.23410044  0.55448075  1  0  0.086462  0  0.972857  0  0  0.090027  0  1.043189  0  0  0.093707  0  1.04056  0  0  0.114081  0.08741  0  1.045086  0
H  H5  1  0.57923332  0.26590400  0.55449159  1  0  0.086345  0  0.972881  0  0  0.089929  0  1.043224  0  0  0.093633  0  1.040534  0  0  0.114089  0.087318  0  1.04511  0
H  H6  1  0.07921265  0.23409691  0.94551372  1  0  0.086405  0  0.972845  0  0  0.089973  0  1.043184  0  0  0.093675  0  1.040498  0  0  0.114095  0.087363  0  1.045069  0
H  H7  1  0.42077135  0.73408155  0.05449003  1  0  0.086261  0  0.972711  0  0  0.089857  0  1.043029  0  0  0.093547  0  1.040373  0  0  0.114087  0.087238  0  1.044914  0
H  H8  1  0.92077625  0.76591059  0.44550274  1  0  0.086368  0  0.97282  0  0  0.089947  0  1.043147  0  0  0.093654  0  1.04045  0  0  0.114131  0.087329  0  1.045027  0
H  H9  1  0.42076602  0.73409078  0.44550450  1  0  0.086349  0  0.972844  0  0  0.089939  0  1.043173  0  0  0.093644  0  1.040482  0  0  0.114118  0.08732  0  1.045056  0
H  H10  1  0.92080374  0.76591180  0.05450003  1  0  0.08631  0  0.97293  0  0  0.089884  0  1.043249  0  0  0.093591  0  1.040552  0  0  0.114095  0.087271  0  1.045127  0
H  H11  1  0.57922458  0.26589815  0.94551363  1  0  0.086392  0  0.972899  0  0  0.089976  0  1.043231  0  0  0.093673  0  1.04056  0  0  0.11412  0.087359  0  1.045138  0
H  H12  1  0.79226653  0.66233857  0.63220806  1  0  0.10121  0  0.955607  0  0  0.106028  0  1.023344  0  0  0.110303  0  1.019472  0  0  0.119554  0.102861  0  1.026434  0
H  H13  1  0.29226632  0.83766304  0.63221129  1  0  0.101223  0  0.955501  0  0  0.106073  0  1.023255  0  0  0.110322  0  1.019408  0  0  0.119562  0.102906  0  1.026347  0
H  H14  1  0.79229435  0.66235038  0.86779099  1  0  0.101235  0  0.955568  0  0  0.106015  0  1.023332  0  0  0.110321  0  1.019426  0  0  0.119564  0.102849  0  1.02642  0
H  H15  1  0.70772395  0.16232689  0.13222121  1  0  0.101205  0  0.95549  0  0  0.106071  0  1.023182  0  0  0.110379  0  1.019268  0  0  0.119558  0.102901  0  1.026258  0
H  H16  1  0.20774133  0.33768407  0.36777963  1  0  0.10132  0  0.955614  0  0  0.106173  0  1.023304  0  0  0.110437  0  1.019437  0  0  0.119551  0.103004  0  1.026382  0
H  H17  1  0.70772620  0.16233174  0.36778061  1  0  0.101202  0  0.955468  0  0  0.106018  0  1.023227  0  0  0.110325  0  1.019316  0  0  0.11958  0.102847  0  1.026304  0
H  H18  1  0.20771862  0.33766993  0.13221855  1  0  0.101171  0  0.955557  0  0  0.106091  0  1.023191  0  0  0.1104  0  1.019276  0  0  0.119556  0.102923  0  1.026268  0
H  H19  1  0.29227710  0.83765629  0.86778329  1  0  0.101284  0  0.955422  0  0  0.106106  0  1.02319  0  0  0.110379  0  1.019313  0  0  0.119561  0.10294  0  1.026283  0
C  C20  1  0.38703760  0.49370834  0.75000673  1  0  0.597891  0  4.07265  0  0  0.564829  0  4.357743  0  0  0.593132  0  4.36322  0  0  0.257598  0.545709  0  4.353649  0
C  C21  1  0.88702617  0.00626471  0.75000004  1  0  0.597561  0  4.073006  0  0  0.564463  0  4.358134  0  0  0.592758  0  4.363614  0  0  0.25736  0.545349  0  4.354041  0
C  C22  1  0.11295783  0.99373936  0.25000194  1  0  0.597703  0  4.073095  0  0  0.564619  0  4.358213  0  0  0.592912  0  4.363684  0  0  0.2573  0.545478  0  4.354116  0
C  C23  1  0.61296856  0.50627136  0.25000030  1  0  0.597425  0  4.07242  0  0  0.564315  0  4.357588  0  0  0.592615  0  4.363082  0  0  0.257247  0.545174  0  4.353486  0
C  C24  1  0.04455746  0.35331451  0.52955971  1  0  0.065819  0  3.680132  0  0  0.038877  0  3.935331  0  0  0.041431  0  3.947196  0  0  0.038956  0.036755  0  3.928221  0
C  C25  1  0.54455037  0.14668796  0.52956227  1  0  0.066044  0  3.680194  0  0  0.039067  0  3.935378  0  0  0.041623  0  3.947262  0  0  0.039016  0.036946  0  3.92826  0
C  C26  1  0.04454848  0.35331359  0.97043886  1  0  0.065941  0  3.679988  0  0  0.039005  0  3.935183  0  0  0.041554  0  3.947064  0  0  0.038977  0.036885  0  3.928063  0
C  C27  1  0.45544261  0.85331007  0.02956223  1  0  0.066237  0  3.680153  0  0  0.039361  0  3.935274  0  0  0.041922  0  3.947152  0  0  0.039092  0.037252  0  3.92813  0
C  C28  1  0.95544188  0.64669188  0.47043219  1  0  0.066116  0  3.680415  0  0  0.039203  0  3.935548  0  0  0.041765  0  3.947442  0  0  0.039002  0.037089  0  3.928411  0
C  C29  1  0.45543363  0.85331146  0.47043383  1  0  0.066173  0  3.680199  0  0  0.039236  0  3.935379  0  0  0.041802  0  3.947257  0  0  0.039051  0.037124  0  3.928239  0
C  C30  1  0.95546109  0.64669396  0.02957068  1  0  0.066009  0  3.680644  0  0  0.039091  0  3.935741  0  0  0.041651  0  3.947631  0  0  0.038938  0.036969  0  3.928613  0
C  C31  1  0.54454991  0.14668472  0.97043891  1  0  0.065992  0  3.68027  0  0  0.039018  0  3.935481  0  0  0.04157  0  3.947371  0  0  0.038975  0.036891  0  3.928366  0
C  C32  1  0.88296873  0.58854079  0.57290076  1  0  0.069184  0  3.659936  0  0  0.038195  0  3.915624  0  0  0.041773  0  3.926314  0  0  0.040784  0.035341  0  3.909251  0
C  C33  1  0.38295546  0.91146033  0.57290611  1  0  0.069288  0  3.659593  0  0  0.038254  0  3.915235  0  0  0.041852  0  3.925927  0  0  0.040782  0.035399  0  3.908867  0
C  C34  1  0.88298063  0.58854749  0.92709695  1  0  0.069234  0  3.659769  0  0  0.03827  0  3.915431  0  0  0.041817  0  3.9261  0  0  0.040788  0.035418  0  3.909062  0
C  C35  1  0.61702687  0.08852776  0.07291229  1  0  0.069251  0  3.659347  0  0  0.038256  0  3.914992  0  0  0.041822  0  3.925664  0  0  0.040706  0.035416  0  3.90859  0
C  C36  1  0.11704936  0.41147372  0.42707938  1  0  0.069271  0  3.659214  0  0  0.038269  0  3.914803  0  0  0.041871  0  3.92549  0  0  0.040882  0.035424  0  3.908408  0
C  C37  1  0.61702513  0.08853213  0.42708831  1  0  0.069306  0  3.65953  0  0  0.038341  0  3.91514  0  0  0.041906  0  3.925813  0  0  0.040682  0.035499  0  3.908736  0
C  C38  1  0.11703576  0.41146934  0.07291680  1  0  0.06939  0  3.659122  0  0  0.038289  0  3.914767  0  0  0.041846  0  3.925442  0  0  0.040798  0.035446  0  3.908366  0
C  C39  1  0.38295883  0.91145311  0.92709053  1  0  0.069178  0  3.659577  0  0  0.038179  0  3.91523  0  0  0.041764  0  3.925915  0  0  0.040747  0.035323  0  3.908865  0
N  N40  1  0.47213036  0.36567438  0.75000631  1  0  -0.782628  0  3.165491  0  0  -0.731257  0  3.535383  0  0  -0.742704  0  3.523111  0  0  -0.521464  -0.724292  0  3.543092  0
N  N41  1  0.97210584  0.13429879  0.75000124  1  0  -0.782642  0  3.165422  0  0  -0.731249  0  3.535302  0  0  -0.742709  0  3.523056  0  0  -0.521375  -0.724268  0  3.542977  0
N  N42  1  0.02787646  0.86570992  0.25000494  1  0  -0.782477  0  3.165402  0  0  -0.731041  0  3.535173  0  0  -0.742518  0  3.522974  0  0  -0.521274  -0.724078  0  3.54282  0
N  N43  1  0.52787751  0.63430417  0.24999903  1  0  -0.782358  0  3.165252  0  0  -0.730955  0  3.535146  0  0  -0.742398  0  3.522872  0  0  -0.52132  -0.724004  0  3.542823  0
N  N44  1  0.92635490  0.44034523  0.60398862  1  0  -0.258505  0  3.3577  0  0  -0.193441  0  3.656432  0  0  -0.191112  0  3.65841  0  0  -0.353486  -0.195613  0  3.65504  0
N  N45  1  0.42634951  0.05965804  0.60399354  1  0  -0.258705  0  3.357602  0  0  -0.193605  0  3.656336  0  0  -0.191272  0  3.658305  0  0  -0.353482  -0.195787  0  3.654965  0
N  N46  1  0.92636199  0.44034809  0.89600900  1  0  -0.258595  0  3.357612  0  0  -0.193526  0  3.656312  0  0  -0.191176  0  3.658267  0  0  -0.353489  -0.195699  0  3.654919  0
N  N47  1  0.57362911  0.94032809  0.10399563  1  0  -0.258718  0  3.357601  0  0  -0.193729  0  3.656429  0  0  -0.191419  0  3.658433  0  0  -0.353567  -0.195899  0  3.654999  0
N  N48  1  0.07364444  0.55967508  0.39600159  1  0  -0.258798  0  3.357522  0  0  -0.193731  0  3.656272  0  0  -0.191428  0  3.658278  0  0  -0.353627  -0.195893  0  3.654841  0
N  N49  1  0.57362597  0.94033559  0.39600256  1  0  -0.258856  0  3.357806  0  0  -0.193809  0  3.656581  0  0  -0.191502  0  3.658588  0  0  -0.353596  -0.195977  0  3.655147  0
N  N50  1  0.07364758  0.55967106  0.10400222  1  0  -0.258687  0  3.357698  0  0  -0.193566  0  3.656373  0  0  -0.191249  0  3.658374  0  0  -0.353507  -0.195727  0  3.654944  0
N  N51  1  0.42635489  0.05965741  0.89600467  1  0  -0.258679  0  3.357574  0  0  -0.193616  0  3.656332  0  0  -0.191289  0  3.658319  0  0  -0.35348  -0.195797  0  3.654966  0
O  O52  1  0.30374497  0.62183514  0.75000546  1  0  -0.498639  0  2.043333  0  0  -0.444954  0  2.246479  0  0  -0.471319  0  2.244616  0  0  -0.257916  -0.42639  0  2.247137  0
O  O53  1  0.80374844  0.87814712  0.74999849  1  0  -0.49834  0  2.043794  0  0  -0.444606  0  2.246878  0  0  -0.470977  0  2.245042  0  0  -0.257743  -0.426043  0  2.247524  0
O  O54  1  0.19624408  0.12185694  0.24999929  1  0  -0.498447  0  2.043923  0  0  -0.44475  0  2.247044  0  0  -0.471119  0  2.2452  0  0  -0.257733  -0.426207  0  2.24769  0
O  O55  1  0.69626460  0.37814572  0.25000072  1  0  -0.498311  0  2.04335  0  0  -0.444566  0  2.246456  0  0  -0.470936  0  2.244613  0  0  -0.257708  -0.426019  0  2.247098  0
