# generated using pymatgen
data_AgH3C5(NO2)2
_symmetry_space_group_name_H-M   'P 1'
_cell_length_a   7.41429129
_cell_length_b   7.71234956
_cell_length_c   11.35934160
_cell_angle_alpha   89.99992155
_cell_angle_beta   89.38196580
_cell_angle_gamma   89.99982331
_symmetry_Int_Tables_number   1
_chemical_formula_structural   AgH3C5(NO2)2
_chemical_formula_sum   'Ag4 H12 C20 N8 O16'
_cell_volume   649.50760916
_cell_formula_units_Z   4
loop_
 _symmetry_equiv_pos_site_id
 _symmetry_equiv_pos_as_xyz
  1  'x, y, z'
loop_
 _atom_site_type_symbol
 _atom_site_label
 _atom_site_symmetry_multiplicity
 _atom_site_fract_x
 _atom_site_fract_y
 _atom_site_fract_z
 _atom_site_occupancy
 _atom_site_hle17_bader_spin_density
 _atom_site_hle17_ddec_charge
 _atom_site_hle17_ddec_spin_density
 _atom_site_hle17_ddec_sum_bond_order
 _atom_site_hle17_magmom
 _atom_site_hse06_10hf_bader_spin_density
 _atom_site_hse06_10hf_ddec_charge
 _atom_site_hse06_10hf_ddec_spin_density
 _atom_site_hse06_10hf_ddec_sum_bond_order
 _atom_site_hse06_10hf_magmom
 _atom_site_hse06_bader_spin_density
 _atom_site_hse06_ddec_charge
 _atom_site_hse06_ddec_spin_density
 _atom_site_hse06_ddec_sum_bond_order
 _atom_site_hse06_magmom
 _atom_site_pbe_bader_spin_density
 _atom_site_pbe_cm5_charge
 _atom_site_pbe_ddec_charge
 _atom_site_pbe_ddec_spin_density
 _atom_site_pbe_ddec_sum_bond_order
 _atom_site_pbe_magmom
Ag  Ag0  1  0.85911771  0.66762791  0.07339227  1  0  0.632068  0  1.285707  0  0  0.495339  0  1.715899  0  0  0.527055  0  1.668468  0  0  0.457336  0.472954  0  1.749089  0
Ag  Ag1  1  0.64087931  0.16762546  0.92660760  1  0  0.632063  0  1.285701  0  0  0.495341  0  1.715897  0  0  0.527057  0  1.668467  0  0  0.457331  0.472957  0  1.749086  0
Ag  Ag2  1  0.14087815  0.33237495  0.92660749  1  0  0.632087  0  1.285664  0  0  0.495348  0  1.715866  0  0  0.527065  0  1.668434  0  0  0.45733  0.472962  0  1.749057  0
Ag  Ag3  1  0.35912056  0.83237610  0.07339392  1  0  0.632062  0  1.285686  0  0  0.495331  0  1.715888  0  0  0.527047  0  1.668459  0  0  0.457323  0.472947  0  1.749077  0
H  H4  1  0.50257584  0.81621673  0.77802857  1  0  0.385736  0  0.923836  0  0  0.353798  0  1.003575  0  0  0.366808  0  0.99151  0  0  0.291263  0.34476  0  1.011686  0
H  H5  1  0.99742201  0.31622234  0.22197292  1  0  0.385723  0  0.923854  0  0  0.353788  0  1.003582  0  0  0.366798  0  0.99152  0  0  0.291271  0.344752  0  1.01169  0
H  H6  1  0.49742542  0.18378223  0.22197031  1  0  0.385734  0  0.923846  0  0  0.353798  0  1.003584  0  0  0.366806  0  0.991516  0  0  0.291252  0.344759  0  1.011694  0
H  H7  1  0.00257784  0.68378052  0.77802948  1  0  0.385748  0  0.923825  0  0  0.353811  0  1.00356  0  0  0.366819  0  0.991493  0  0  0.291259  0.344775  0  1.01167  0
H  H8  1  0.29931581  0.38494789  0.55351565  1  0  0.325546  0  0.895077  0  0  0.302377  0  0.961413  0  0  0.311961  0  0.952871  0  0  0.319055  0.295559  0  0.967574  0
H  H9  1  0.20068546  0.88494881  0.44648395  1  0  0.325535  0  0.895087  0  0  0.302377  0  0.961412  0  0  0.311959  0  0.952871  0  0  0.319055  0.295557  0  0.967575  0
H  H10  1  0.70068812  0.61504849  0.44648500  1  0  0.325544  0  0.895053  0  0  0.302382  0  0.961385  0  0  0.311966  0  0.952844  0  0  0.319046  0.295564  0  0.967548  0
H  H11  1  0.79931578  0.11505016  0.55351670  1  0  0.325591  0  0.895009  0  0  0.302397  0  0.961385  0  0  0.31198  0  0.952843  0  0  0.319063  0.295577  0  0.967547  0
H  H12  1  0.40838942  0.12592020  0.66696934  1  0  0.113527  0  0.946226  0  0  0.120753  0  1.007984  0  0  0.124364  0  1.003671  0  0  0.139236  0.118034  0  1.011193  0
H  H13  1  0.09160594  0.62592165  0.33303050  1  0  0.113625  0  0.946224  0  0  0.120852  0  1.007964  0  0  0.124464  0  1.003651  0  0  0.139279  0.118135  0  1.011174  0
H  H14  1  0.59160908  0.87407876  0.33303306  1  0  0.113546  0  0.946183  0  0  0.120767  0  1.007952  0  0  0.124378  0  1.003638  0  0  0.139257  0.118048  0  1.01116  0
H  H15  1  0.90838988  0.37407861  0.66697102  1  0  0.113577  0  0.94627  0  0  0.120803  0  1.00801  0  0  0.124413  0  1.003701  0  0  0.139267  0.118086  0  1.011219  0
C  C16  1  0.61695228  0.59548089  0.87388963  1  0  0.639757  0  3.914709  0  0  0.585933  0  4.200278  0  0  0.620865  0  4.194335  0  0  0.208674  0.562188  0  4.203537  0
C  C17  1  0.88304633  0.09548571  0.12610944  1  0  0.639745  0  3.914803  0  0  0.585952  0  4.200325  0  0  0.620885  0  4.194383  0  0  0.208722  0.562208  0  4.203583  0
C  C18  1  0.38304763  0.40451807  0.12610925  1  0  0.639804  0  3.914751  0  0  0.585962  0  4.200335  0  0  0.620896  0  4.194391  0  0  0.208678  0.562217  0  4.203594  0
C  C19  1  0.11695490  0.90451585  0.87389121  1  0  0.639799  0  3.914742  0  0  0.586033  0  4.200214  0  0  0.620967  0  4.194271  0  0  0.208723  0.562288  0  4.203475  0
C  C20  1  0.42719868  0.54647942  0.68560223  1  0  -0.00319  0  3.687639  0  0  -0.014978  0  3.94271  0  0  -0.01734  0  3.961861  0  0  0.088362  -0.013549  0  3.930065  0
C  C21  1  0.07280239  0.04648090  0.31439506  1  0  -0.003149  0  3.687418  0  0  -0.014965  0  3.942501  0  0  -0.017329  0  3.961653  0  0  0.088366  -0.013547  0  3.929867  0
C  C22  1  0.57280126  0.45351825  0.31439578  1  0  -0.003231  0  3.687512  0  0  -0.015023  0  3.942567  0  0  -0.017388  0  3.961722  0  0  0.088337  -0.013604  0  3.929932  0
C  C23  1  0.92720023  0.95352066  0.68560382  1  0  -0.003186  0  3.687503  0  0  -0.015002  0  3.942573  0  0  -0.017365  0  3.961722  0  0  0.08835  -0.013566  0  3.929918  0
C  C24  1  0.43311579  0.25989877  0.69131777  1  0  0.256192  0  3.617451  0  0  0.188417  0  3.899592  0  0  0.20322  0  3.910202  0  0  0.158304  0.178771  0  3.892012  0
C  C25  1  0.06688182  0.75989904  0.30868283  1  0  0.256018  0  3.6176  0  0  0.188237  0  3.899741  0  0  0.20304  0  3.91035  0  0  0.158218  0.178588  0  3.892166  0
C  C26  1  0.56688273  0.74010019  0.30868375  1  0  0.256205  0  3.617403  0  0  0.188423  0  3.89957  0  0  0.203226  0  3.91018  0  0  0.158291  0.178779  0  3.89199  0
C  C27  1  0.93311537  0.24010252  0.69131781  1  0  0.256151  0  3.617595  0  0  0.188375  0  3.899717  0  0  0.203179  0  3.910323  0  0  0.158261  0.178726  0  3.892142  0
C  C28  1  0.52333588  0.49134424  0.78397146  1  0  0.000308  0  3.74335  0  0  -0.00438  0  3.993956  0  0  -0.005869  0  4.014759  0  0  0.081435  -0.00349  0  3.980047  0
C  C29  1  0.97666551  0.99134608  0.21602635  1  0  0.000339  0  3.743242  0  0  -0.004343  0  3.993807  0  0  -0.005833  0  4.014613  0  0  0.081392  -0.00345  0  3.9799  0
C  C30  1  0.47666135  0.50865603  0.21602655  1  0  0.000236  0  3.743361  0  0  -0.004396  0  3.993895  0  0  -0.005887  0  4.0147  0  0  0.081421  -0.003504  0  3.979987  0
C  C31  1  0.02333574  0.00865419  0.78397342  1  0  0.00031  0  3.743309  0  0  -0.004372  0  3.993851  0  0  -0.005864  0  4.014657  0  0  0.081414  -0.003485  0  3.979938  0
C  C32  1  0.38056091  0.71841676  0.63774709  1  0  0.648666  0  3.88585  0  0  0.5943  0  4.195893  0  0  0.628504  0  4.18608  0  0  0.225379  0.57107  0  4.202048  0
C  C33  1  0.11944361  0.21841672  0.36225179  1  0  0.648703  0  3.885793  0  0  0.594362  0  4.195793  0  0  0.628568  0  4.185975  0  0  0.225438  0.571136  0  4.20195  0
C  C34  1  0.61944166  0.28158221  0.36225444  1  0  0.648888  0  3.885436  0  0  0.594505  0  4.195489  0  0  0.628708  0  4.185676  0  0  0.22548  0.571279  0  4.201647  0
C  C35  1  0.88056171  0.78158355  0.63774622  1  0  0.648841  0  3.885471  0  0  0.59452  0  4.195465  0  0  0.628729  0  4.185639  0  0  0.225495  0.571291  0  4.201623  0
N  N36  1  0.52462672  0.31227299  0.78561089  1  0  -0.392365  0  3.339637  0  0  -0.313486  0  3.646623  0  0  -0.334645  0  3.660628  0  0  -0.364997  -0.298962  0  3.636628  0
N  N37  1  0.97537119  0.81227613  0.21438796  1  0  -0.392352  0  3.339691  0  0  -0.313448  0  3.646627  0  0  -0.334607  0  3.660633  0  0  -0.364943  -0.298923  0  3.636631  0
N  N38  1  0.47537181  0.68772597  0.21438975  1  0  -0.3923  0  3.339599  0  0  -0.313435  0  3.646571  0  0  -0.334595  0  3.660577  0  0  -0.364968  -0.298911  0  3.636573  0
N  N39  1  0.02462601  0.18772413  0.78561180  1  0  -0.392381  0  3.339688  0  0  -0.313477  0  3.646627  0  0  -0.334636  0  3.660631  0  0  -0.364977  -0.298953  0  3.636634  0
N  N40  1  0.37366626  0.39738361  0.62984864  1  0  -0.277788  0  3.440926  0  0  -0.21685  0  3.678693  0  0  -0.232861  0  3.693537  0  0  -0.360264  -0.206111  0  3.668613  0
N  N41  1  0.12633633  0.89738489  0.37015007  1  0  -0.277792  0  3.440871  0  0  -0.21686  0  3.678653  0  0  -0.232868  0  3.693498  0  0  -0.360286  -0.206116  0  3.668575  0
N  N42  1  0.62633362  0.60261406  0.37015201  1  0  -0.277819  0  3.440917  0  0  -0.216876  0  3.678671  0  0  -0.232885  0  3.693516  0  0  -0.360247  -0.206132  0  3.668592  0
N  N43  1  0.87366492  0.10261667  0.62984970  1  0  -0.277848  0  3.440959  0  0  -0.216904  0  3.678773  0  0  -0.232914  0  3.693614  0  0  -0.36027  -0.206166  0  3.668693  0
O  O44  1  0.59880608  0.76049937  0.87188497  1  0  -0.615739  0  2.083785  0  0  -0.559189  0  2.339548  0  0  -0.584751  0  2.326238  0  0  -0.312072  -0.541508  0  2.348306  0
O  O45  1  0.90119196  0.26050413  0.12811570  1  0  -0.61573  0  2.083838  0  0  -0.559213  0  2.339624  0  0  -0.584775  0  2.326319  0  0  -0.312119  -0.54153  0  2.348378  0
O  O46  1  0.40119653  0.23949959  0.12811392  1  0  -0.61577  0  2.083793  0  0  -0.559201  0  2.339532  0  0  -0.584763  0  2.326221  0  0  -0.312062  -0.541518  0  2.34829  0
O  O47  1  0.09880521  0.73949743  0.87188582  1  0  -0.615792  0  2.083782  0  0  -0.559268  0  2.339523  0  0  -0.584831  0  2.326214  0  0  -0.312099  -0.541588  0  2.34828  0
O  O48  1  0.71175585  0.51424993  0.94834198  1  0  -0.599666  0  2.158306  0  0  -0.517413  0  2.449116  0  0  -0.547791  0  2.433851  0  0  -0.31649  -0.496187  0  2.459049  0
O  O49  1  0.78824434  0.01425386  0.05165893  1  0  -0.599611  0  2.158384  0  0  -0.517399  0  2.449228  0  0  -0.547778  0  2.433966  0  0  -0.316456  -0.496171  0  2.459159  0
O  O50  1  0.28824541  0.48575163  0.05165690  1  0  -0.599687  0  2.158345  0  0  -0.517448  0  2.449183  0  0  -0.547826  0  2.433917  0  0  -0.316501  -0.496221  0  2.459116  0
O  O51  1  0.21175553  0.98574899  0.94834260  1  0  -0.599668  0  2.158384  0  0  -0.517455  0  2.449195  0  0  -0.547832  0  2.433929  0  0  -0.316497  -0.496228  0  2.459128  0
O  O52  1  0.42987887  0.85487050  0.69866115  1  0  -0.551574  0  2.117785  0  0  -0.493564  0  2.33945  0  0  -0.518204  0  2.327487  0  0  -0.317822  -0.476474  0  2.347095  0
O  O53  1  0.07011975  0.35487202  0.30134111  1  0  -0.55162  0  2.117747  0  0  -0.493633  0  2.339421  0  0  -0.518275  0  2.327459  0  0  -0.317852  -0.476538  0  2.34705  0
O  O54  1  0.57012105  0.14512846  0.30133773  1  0  -0.551634  0  2.117559  0  0  -0.49363  0  2.339247  0  0  -0.518271  0  2.327281  0  0  -0.317831  -0.476543  0  2.346896  0
O  O55  1  0.92988279  0.64512954  0.69866217  1  0  -0.551674  0  2.117584  0  0  -0.493679  0  2.339241  0  0  -0.518321  0  2.327273  0  0  -0.317864  -0.476583  0  2.346866  0
O  O56  1  0.29672315  0.72883273  0.54395780  1  0  -0.561477  0  1.947436  0  0  -0.521059  0  2.173162  0  0  -0.541316  0  2.163176  0  0  -0.2974  -0.50706  0  2.179704  0
O  O57  1  0.20328273  0.22883097  0.45603844  1  0  -0.561504  0  1.947525  0  0  -0.521064  0  2.173206  0  0  -0.541322  0  2.163217  0  0  -0.297416  -0.507066  0  2.179747  0
O  O58  1  0.70327544  0.27116624  0.45603933  1  0  -0.561592  0  1.947341  0  0  -0.521146  0  2.173073  0  0  -0.541398  0  2.163084  0  0  -0.297474  -0.507149  0  2.179616  0
O  O59  1  0.79672799  0.77116929  0.54395957  1  0  -0.561531  0  1.947355  0  0  -0.521131  0  2.17307  0  0  -0.541389  0  2.163078  0  0  -0.297453  -0.507134  0  2.179613  0
