# generated using pymatgen
data_CoH28C42(SN5)2
_symmetry_space_group_name_H-M   'P 1'
_cell_length_a   14.95851320
_cell_length_b   17.25034180
_cell_length_c   17.24925068
_cell_angle_alpha   112.06283395
_cell_angle_beta   106.66879998
_cell_angle_gamma   106.86812991
_symmetry_Int_Tables_number   1
_chemical_formula_structural   CoH28C42(SN5)2
_chemical_formula_sum   'Co3 H84 C126 S6 N30'
_cell_volume   3532.59349668
_cell_formula_units_Z   3
loop_
 _symmetry_equiv_pos_site_id
 _symmetry_equiv_pos_as_xyz
  1  'x, y, z'
loop_
 _atom_site_type_symbol
 _atom_site_label
 _atom_site_symmetry_multiplicity
 _atom_site_fract_x
 _atom_site_fract_y
 _atom_site_fract_z
 _atom_site_occupancy
 _atom_site_pbe_bader_charge
 _atom_site_pbe_bader_spin_density
 _atom_site_pbe_cm5_charge
 _atom_site_pbe_ddec_charge
 _atom_site_pbe_ddec_spin_density
 _atom_site_pbe_ddec_sum_bond_order
 _atom_site_pbe_magmom
Co  Co0  1  0.00000051  0.00000030  0.49999996  1  1.232985  2.545269  0.696991  0.698186  2.827984  2.805988  2.529
Co  Co1  1  0.50000046  0.50000205  0.50000087  1  1.238913  2.548138  0.696093  0.697128  2.830529  2.805231  2.533
Co  Co2  1  0.00000107  0.50000271  0.00000082  1  1.235803  2.544199  0.696947  0.698507  2.826535  2.804929  2.528
H  H3  1  0.23623380  0.11086317  0.64337854  1  0.099289  0.00169  0.113068  0.081934  0.000538  1.033431  0.001
H  H4  1  0.59315759  0.35681457  0.46784458  1  0.098478  0.001721  0.113546  0.082163  0.000492  1.034377  0.001
H  H5  1  0.12586167  0.53247506  0.88900672  1  0.092028  0.001684  0.113057  0.081218  0.000535  1.033935  0.001
H  H6  1  0.76376851  0.88913952  0.35662013  1  0.099204  0.00169  0.113068  0.081969  0.000538  1.033504  0.001
H  H7  1  0.40684332  0.64318672  0.53215785  1  0.098297  0.00172  0.113545  0.082154  0.000491  1.034376  0.001
H  H8  1  0.87413960  0.46752694  0.11099316  1  0.092171  0.001684  0.113061  0.081232  0.000535  1.033972  0.001
H  H9  1  0.41145498  0.15081602  0.64668126  1  0.10059  0.000899  0.105326  0.109364  0.000408  1.024468  0.0
H  H10  1  0.76485607  0.35338040  0.50366086  1  0.087338  0.000889  0.105163  0.109503  0.000401  1.023064  0.0
H  H11  1  0.26114681  0.49575241  0.84916285  1  0.092232  0.000911  0.105401  0.10964  0.000411  1.023951  0.0
H  H12  1  0.58854699  0.84918598  0.35331647  1  0.100652  0.000899  0.105324  0.109336  0.000408  1.024471  0.0
H  H13  1  0.23514450  0.64662020  0.49633890  1  0.087353  0.000889  0.105154  0.109515  0.000401  1.023056  0.0
H  H14  1  0.73885375  0.50424679  0.15083697  1  0.09225  0.000911  0.105431  0.10968  0.000411  1.023903  0.0
H  H15  1  0.25497010  0.99987111  0.34491449  1  0.074816  0.001049  0.107361  0.11824  0.000498  0.999357  0.0
H  H16  1  0.91005507  0.65543248  0.65690149  1  0.091409  0.001048  0.107411  0.118255  0.000478  0.99918  0.0
H  H17  1  0.25426922  0.34491170  0.00006604  1  0.071207  0.001034  0.107138  0.117599  0.00047  0.999996  0.0
H  H18  1  0.74502906  0.00012389  0.65508224  1  0.074881  0.001049  0.107338  0.118191  0.000498  0.999421  0.0
H  H19  1  0.08994549  0.34456811  0.34310059  1  0.09142  0.001048  0.107431  0.118291  0.000478  0.999146  0.0
H  H20  1  0.74572715  0.65508610  0.99992989  1  0.071129  0.001034  0.107119  0.117599  0.00047  1.000036  0.0
H  H21  1  0.08730272  0.96692816  0.35437998  1  0.122135  0.001651  0.119623  0.097687  0.000411  1.004545  0.001
H  H22  1  0.73323639  0.64602831  0.61565900  1  0.106636  0.001646  0.118951  0.097226  0.000483  1.00476  0.001
H  H23  1  0.11974232  0.38754748  0.03304562  1  0.121893  0.001648  0.119542  0.097627  0.000401  1.005215  0.001
H  H24  1  0.91269539  0.03306894  0.64561728  1  0.122213  0.001651  0.119611  0.097666  0.000411  1.004621  0.001
H  H25  1  0.26676556  0.35397228  0.38434342  1  0.10671  0.001646  0.118957  0.097235  0.000483  1.004772  0.001
H  H26  1  0.88025650  0.61245241  0.96695402  1  0.121862  0.001648  0.119532  0.097647  0.000401  1.00527  0.001
H  H27  1  0.39833989  0.99797576  0.35392100  1  0.075884  4e-06  0.106129  0.111749  -5.4e-05  1.023485  0.0
H  H28  1  0.04413898  0.64624494  0.64393391  1  0.067405  8e-05  0.106382  0.112017  2e-06  1.022368  0.0
H  H29  1  0.39949072  0.35568026  0.00191383  1  0.064516  9.1e-05  0.10619  0.111755  1.4e-05  1.022965  0.0
H  H30  1  0.60166137  0.00201924  0.64607857  1  0.07562  4e-06  0.106117  0.111715  -5.4e-05  1.023514  0.0
H  H31  1  0.95586438  0.35375846  0.35607687  1  0.067396  8e-05  0.106393  0.112069  2e-06  1.022335  0.0
H  H32  1  0.60050670  0.64431823  0.99808436  1  0.064491  9.1e-05  0.10617  0.111737  1.4e-05  1.022937  0.0
H  H33  1  0.72987423  0.17088195  0.51633868  1  0.1089  4e-05  0.107737  0.117065  -3e-05  1.039302  0.0
H  H34  1  0.21327032  0.48396625  0.65480502  1  0.121942  5.8e-05  0.107718  0.117177  -2.5e-05  1.039334  0.0
H  H35  1  0.55889538  0.34515554  0.82931314  1  0.109638  3.8e-05  0.107708  0.116291  -3.2e-05  1.041321  0.0
H  H36  1  0.27012703  0.82912005  0.48366178  1  0.108913  4e-05  0.107732  0.117078  -3e-05  1.039324  0.0
H  H37  1  0.78672989  0.51603365  0.34519555  1  0.121953  5.8e-05  0.107721  0.117183  -2.5e-05  1.039332  0.0
H  H38  1  0.44110099  0.65484086  0.17068342  1  0.109736  3.8e-05  0.107715  0.116285  -3.2e-05  1.0413  0.0
H  H39  1  0.82996346  0.32397600  0.63311931  1  0.089869  0.000929  0.101682  0.104778  0.000421  1.059345  0.0
H  H40  1  0.19644234  0.36713020  0.69092407  1  0.143542  0.00091  0.101963  0.104986  0.000426  1.058681  0.0
H  H41  1  0.50751205  0.30964149  0.67683902  1  0.082393  0.000878  0.102357  0.105151  0.0004  1.059246  0.0
H  H42  1  0.17003745  0.67602529  0.36687906  1  0.089908  0.000929  0.101652  0.104738  0.000421  1.059432  0.0
H  H43  1  0.80355787  0.63286829  0.30907830  1  0.143489  0.00091  0.101996  0.104987  0.000426  1.058694  0.0
H  H44  1  0.49248152  0.69035211  0.32315290  1  0.082446  0.000878  0.102382  0.105165  0.0004  1.05924  0.0
H  H45  1  0.96416966  0.44406635  0.79297946  1  0.100568  0.001487  0.113868  0.080068  0.000387  1.019431  0.001
H  H46  1  0.17086050  0.20718821  0.65109098  1  0.092735  0.001493  0.11395  0.079897  0.000389  1.019372  0.001
H  H47  1  0.52306942  0.35017390  0.55746138  1  0.059461  0.001423  0.114781  0.081155  0.000256  1.020465  0.001
H  H48  1  0.03583160  0.55593565  0.20701984  1  0.100609  0.001487  0.113854  0.080051  0.000387  1.019388  0.001
H  H49  1  0.82913796  0.79280959  0.34890836  1  0.092743  0.001492  0.113954  0.079904  0.000389  1.019392  0.001
H  H50  1  0.47692521  0.64982460  0.44253321  1  0.059446  0.001422  0.1148  0.081162  0.000256  1.020435  0.001
H  H51  1  0.77507850  0.36198788  0.90957669  1  0.127227  0.001538  0.113121  0.076038  0.000268  1.07574  0.001
H  H52  1  0.86585171  0.09027748  0.45227153  1  0.109852  0.001536  0.112618  0.075353  0.000265  1.076304  0.001
H  H53  1  0.41487030  0.54786294  0.63870982  1  0.117108  0.001608  0.112323  0.075302  0.000483  1.073987  0.001
H  H54  1  0.22491858  0.63801412  0.09042157  1  0.127283  0.001538  0.113098  0.075983  0.000268  1.075784  0.001
H  H55  1  0.13414641  0.90972382  0.54773079  1  0.109843  0.001536  0.112625  0.075387  0.000265  1.076283  0.001
H  H56  1  0.58513306  0.45213905  0.36129291  1  0.11702  0.001608  0.112339  0.075326  0.000483  1.073965  0.001
H  H57  1  0.63027847  0.23731865  0.75356504  1  0.103983  0.00083  0.103663  0.106165  0.000389  1.036111  0.0
H  H58  1  0.87700013  0.24636459  0.48373375  1  0.118564  0.000825  0.103891  0.106781  0.000392  1.035239  0.0
H  H59  1  0.39340337  0.51584882  0.76272565  1  0.108973  0.000878  0.103357  0.106005  0.000399  1.035651  0.0
H  H60  1  0.36972140  0.76268195  0.24643280  1  0.103953  0.00083  0.103681  0.106191  0.000389  1.036053  0.0
H  H61  1  0.12299869  0.75363671  0.51627106  1  0.118523  0.000825  0.103878  0.106741  0.000392  1.035299  0.0
H  H62  1  0.60659649  0.48414898  0.23727347  1  0.108936  0.000878  0.10333  0.105945  0.000399  1.035703  0.0
H  H63  1  0.42322442  0.95648503  0.23800285  1  0.051742  2.2e-05  0.108442  0.116325  1.6e-05  0.996602  0.0
H  H64  1  0.18511992  0.76247030  0.71925010  1  0.07839  -8e-06  0.108421  0.116347  -1.8e-05  0.996058  0.0
H  H65  1  0.46571067  0.28119942  0.04356292  1  0.079155  -2.6e-05  0.108308  0.116297  -3.1e-05  0.995944  0.0
H  H66  1  0.57677544  0.04351277  0.76199742  1  0.051757  2.2e-05  0.108468  0.116402  1.6e-05  0.996612  0.0
H  H67  1  0.81488238  0.23753240  0.28075958  1  0.078429  -8e-06  0.108396  0.116324  -1.8e-05  0.995937  0.0
H  H68  1  0.53429339  0.71880537  0.95643987  1  0.079153  -2.6e-05  0.108346  0.116366  -3.1e-05  0.995883  0.0
H  H69  1  0.46421560  0.88084914  0.10825785  1  0.081379  3e-06  0.099152  0.093727  4e-06  1.05188  0.0
H  H70  1  0.35574288  0.89221385  0.77326928  1  0.067515  -2e-06  0.099283  0.094266  -5e-06  1.052268  0.0
H  H71  1  0.58226964  0.22746077  0.11926291  1  0.088594  3e-06  0.099435  0.094062  -3e-06  1.0526  0.0
H  H72  1  0.53578321  0.11914796  0.89174190  1  0.081401  3e-06  0.099115  0.093688  4e-06  1.051877  0.0
H  H73  1  0.64425838  0.10779095  0.22673803  1  0.067571  -2e-06  0.099273  0.094317  -5e-06  1.052313  0.0
H  H74  1  0.41773582  0.77254682  0.88074302  1  0.089633  3e-06  0.099453  0.094111  -3e-06  1.052571  0.0
H  H75  1  0.65246797  0.91510481  0.14384602  1  0.128061  -9.1e-05  0.098025  0.103549  -0.000158  1.036136  0.0
H  H76  1  0.50801599  0.85638186  0.77113870  1  0.106914  0.000491  0.098272  0.104565  0.000366  1.033434  0.0
H  H77  1  0.73647603  0.22917114  0.08506962  1  0.115774  -8.9e-05  0.097479  0.102837  -0.000156  1.037162  0.0
H  H78  1  0.34753190  0.08489439  0.85615188  1  0.127976  -9.1e-05  0.098023  0.10357  -0.000158  1.03616  0.0
H  H79  1  0.49198457  0.14362154  0.22886502  1  0.10701  0.000491  0.098275  0.104564  0.000366  1.033456  0.0
H  H80  1  0.26352558  0.77083016  0.91493240  1  0.115773  -9e-05  0.097462  0.102816  -0.000156  1.037227  0.0
H  H81  1  0.78892605  0.03019666  0.30628050  1  0.0928  -5.6e-05  0.110929  0.081089  -0.0001  1.015474  0.0
H  H82  1  0.48185592  0.69365001  0.72306563  1  0.076735  0.00018  0.111026  0.081077  9.1e-05  1.015202  0.0
H  H83  1  0.75821458  0.27655997  0.97002795  1  0.071441  -5.6e-05  0.111208  0.081961  -9.7e-05  1.014975  0.0
H  H84  1  0.21107591  0.96980394  0.69371787  1  0.092419  -5.6e-05  0.110911  0.081039  -0.0001  1.015562  0.0
H  H85  1  0.51814534  0.30635339  0.27693536  1  0.076839  0.00018  0.11105  0.081067  9.1e-05  1.015188  0.0
H  H86  1  0.24178249  0.72343503  0.02996826  1  0.071479  -5.6e-05  0.11123  0.081945  -9.7e-05  1.015026  0.0
C  C87  1  0.11236067  0.07736372  0.71745368  1  0.445778  0.004642  0.132938  0.256518  0.00244  4.362907  0.01
C  C88  1  0.39554321  0.28201745  0.36030662  1  0.481972  0.004278  0.131831  0.254203  0.002105  4.361814  0.01
C  C89  1  0.03584289  0.64008034  0.92267961  1  0.465643  0.004851  0.133056  0.255793  0.002507  4.36238  0.01
C  C90  1  0.88764199  0.92263828  0.28254886  1  0.44607  0.004642  0.132997  0.256476  0.002441  4.362829  0.01
C  C91  1  0.60445701  0.71798665  0.63969379  1  0.481956  0.004279  0.131783  0.254297  0.002103  4.36172  0.01
C  C92  1  0.96416082  0.35992376  0.07732399  1  0.465752  0.004847  0.133064  0.25576  0.002504  4.362484  0.01
C  C93  1  0.24383330  0.08881308  0.57855428  1  0.409026  -0.005576  0.039758  0.080499  -0.00588  3.962262  -0.003
C  C94  1  0.66550167  0.42164138  0.51097708  1  0.437725  -0.005639  0.040267  0.081854  -0.006041  3.963507  -0.003
C  C95  1  0.15521162  0.48968631  0.91108795  1  0.459111  -0.00561  0.040555  0.082508  -0.005924  3.961799  -0.003
C  C96  1  0.75616726  0.91118612  0.42144263  1  0.408993  -0.005576  0.039706  0.080415  -0.005879  3.962294  -0.003
C  C97  1  0.33449889  0.57835921  0.48902558  1  0.438056  -0.005639  0.040251  0.081829  -0.006041  3.963525  -0.003
C  C98  1  0.84478929  0.51031499  0.08891159  1  0.458988  -0.005611  0.040528  0.082493  -0.005925  3.961725  -0.003
C  C99  1  0.34140692  0.11037229  0.58024860  1  0.031679  0.004978  -0.082307  -0.153598  0.002456  3.951597  0.004
C  C100  1  0.76124531  0.41988379  0.53029179  1  0.029515  0.004869  -0.082321  -0.154535  0.002409  3.950929  0.004
C  C101  1  0.23119698  0.46975240  0.88954268  1  -0.015008  0.004995  -0.082594  -0.154409  0.002454  3.951319  0.004
C  C102  1  0.65859469  0.88962761  0.41974826  1  0.031528  0.004977  -0.082303  -0.153528  0.002456  3.951472  0.004
C  C103  1  0.23875525  0.58011681  0.46970624  1  0.029323  0.004869  -0.082337  -0.15461  0.002409  3.950907  0.004
C  C104  1  0.76880358  0.53024819  0.11045651  1  -0.015029  0.004996  -0.082598  -0.154401  0.002454  3.951199  0.004
C  C105  1  0.34946133  0.07814677  0.49607389  1  -0.087687  -0.009511  0.008806  0.076568  -0.009849  3.969827  -0.006
C  C106  1  0.85337309  0.50412422  0.58264481  1  -0.074925  -0.009479  0.00869  0.076214  -0.009798  3.967534  -0.006
C  C107  1  0.27106692  0.41774101  0.92175698  1  0.008549  -0.009589  0.008556  0.07483  -0.009922  3.968934  -0.006
C  C108  1  0.65054028  0.92185173  0.50392303  1  -0.087943  -0.00951  0.008797  0.076468  -0.009849  3.969774  -0.006
C  C109  1  0.14662642  0.49587567  0.41735559  1  -0.074941  -0.009479  0.008671  0.076261  -0.009799  3.967528  -0.006
C  C110  1  0.72893224  0.58225819  0.07824191  1  0.00864  -0.009592  0.008508  0.074767  -0.009924  3.9689  -0.006
C  C111  1  0.25574202  0.02545010  0.41330612  1  0.059476  0.00465  -0.080449  -0.162645  0.002337  3.948008  0.004
C  C112  1  0.84249541  0.58700780  0.61368724  1  0.004829  0.004731  -0.081277  -0.16328  0.002297  3.948208  0.004
C  C113  1  0.22975421  0.38773740  0.97447103  1  -0.066356  0.004557  -0.080263  -0.162179  0.002212  3.948615  0.004
C  C114  1  0.74425923  0.97454770  0.58669219  1  0.059759  0.004649  -0.080394  -0.162483  0.002337  3.94802  0.004
C  C115  1  0.15750516  0.41299420  0.38631362  1  0.004866  0.004732  -0.081308  -0.163371  0.002298  3.948223  0.004
C  C116  1  0.77024496  0.61226180  0.02552670  1  -0.066385  0.004557  -0.08026  -0.162248  0.002212  3.948695  0.004
C  C117  1  0.16101236  0.00720130  0.41772849  1  0.482023  -0.006165  0.048713  0.099548  -0.006726  3.92384  -0.004
C  C118  1  0.74348190  0.58259042  0.59166161  1  0.499466  -0.006044  0.049727  0.100251  -0.006488  3.923593  -0.004
C  C119  1  0.15338162  0.41053026  0.99273869  1  0.515413  -0.006258  0.049009  0.0997  -0.006831  3.925794  -0.004
C  C120  1  0.83898680  0.99279509  0.58226877  1  0.482105  -0.006165  0.048718  0.09952  -0.006726  3.924044  -0.004
C  C121  1  0.25651866  0.41741018  0.40833931  1  0.499343  -0.006044  0.049765  0.100287  -0.00649  3.923582  -0.004
C  C122  1  0.84661789  0.58946964  0.00725997  1  0.515456  -0.00626  0.049026  0.099752  -0.006833  3.925841  -0.004
C  C123  1  0.45348741  0.10094799  0.49754229  1  0.481157  0.000432  0.121999  0.206432  -0.000126  4.026376  0.001
C  C124  1  0.95582864  0.50262208  0.60356583  1  0.576003  0.000797  0.120983  0.205362  0.000163  4.026797  0.001
C  C125  1  0.35225698  0.39629295  0.89897406  1  0.529437  0.00064  0.121181  0.206065  6.9e-05  4.026174  0.001
C  C126  1  0.54651281  0.89905051  0.50245486  1  0.481074  0.000432  0.122064  0.206506  -0.000126  4.026283  0.001
C  C127  1  0.04417087  0.49737782  0.39643456  1  0.575757  0.000797  0.120962  0.205392  0.000163  4.026827  0.001
C  C128  1  0.64774148  0.60370485  0.10102297  1  0.529369  0.00064  0.121201  0.206059  6.9e-05  4.026189  0.001
C  C129  1  0.46636469  0.05454368  0.41828685  1  0.004121  -0.00528  -0.079041  -0.20088  -0.005452  3.913741  -0.003
C  C130  1  0.04785102  0.58191092  0.63628270  1  -0.065466  -0.005023  -0.078891  -0.199383  -0.005207  3.912827  -0.003
C  C131  1  0.41122523  0.36344824  0.94539671  1  -0.024754  -0.004544  -0.07847  -0.198722  -0.004718  3.910835  -0.003
C  C132  1  0.53363517  0.94545411  0.58171284  1  0.004479  -0.00528  -0.079038  -0.200843  -0.005453  3.913625  -0.003
C  C133  1  0.95215093  0.41809107  0.36372257  1  -0.06495  -0.005023  -0.078916  -0.199499  -0.005206  3.913001  -0.003
C  C134  1  0.58877359  0.63655025  0.05460241  1  -0.024733  -0.004545  -0.078419  -0.198628  -0.004719  3.910761  -0.003
C  C135  1  0.56667098  0.07988209  0.42357127  1  0.008674  0.00031  0.008417  0.085623  2.5e-05  3.98352  0.001
C  C136  1  0.14281019  0.57666039  0.65637870  1  -0.001717  0.000813  0.008407  0.085607  0.0003  3.984794  0.001
C  C137  1  0.48622684  0.34337224  0.92012511  1  -0.010211  0.00072  0.008399  0.086185  0.000254  3.984142  0.001
C  C138  1  0.43332853  0.92011781  0.57642797  1  0.008693  0.00031  0.008425  0.085627  2.5e-05  3.983496  0.001
C  C139  1  0.85719072  0.42334091  0.34362547  1  -0.00195  0.000813  0.008469  0.085762  0.0003  3.984629  0.001
C  C140  1  0.51377162  0.65662555  0.07987481  1  -0.010062  0.00072  0.008446  0.086103  0.000254  3.98422  0.001
C  C141  1  0.65089584  0.15134981  0.50965521  1  -0.056998  -0.004259  -0.077849  -0.19122  -0.004379  3.879978  -0.003
C  C142  1  0.14099245  0.49057863  0.64185922  1  -0.002655  -0.004396  -0.076951  -0.191287  -0.004539  3.879136  -0.003
C  C143  1  0.49937490  0.35799096  0.84873218  1  -0.020158  -0.004087  -0.077177  -0.190961  -0.004217  3.881859  -0.002
C  C144  1  0.34910403  0.84864938  0.49034327  1  -0.0571  -0.004259  -0.077877  -0.191265  -0.004379  3.880018  -0.003
C  C145  1  0.85900986  0.50942406  0.35814351  1  -0.002955  -0.004395  -0.076973  -0.191347  -0.004538  3.879041  -0.003
C  C146  1  0.50062112  0.64200474  0.15126461  1  -0.020424  -0.004088  -0.077256  -0.19099  -0.004217  3.881973  -0.002
C  C147  1  0.63184338  0.19366215  0.58591222  1  0.5717  0.000482  0.118719  0.204816  -6.1e-05  4.024362  0.001
C  C148  1  0.04579342  0.41425704  0.60790501  1  0.480594  0.000896  0.118488  0.205322  0.000195  4.02229  0.001
C  C149  1  0.43838965  0.39198323  0.80644814  1  0.515839  0.00092  0.118815  0.206491  0.000235  4.024247  0.001
C  C150  1  0.36815544  0.80633775  0.41408511  1  0.571737  0.000482  0.118728  0.204809  -6.1e-05  4.02438  0.001
C  C151  1  0.95420993  0.58574356  0.39209660  1  0.480941  0.000896  0.118457  0.205316  0.000195  4.022377  0.001
C  C152  1  0.56160393  0.60801036  0.19354668  1  0.516099  0.00092  0.118816  0.206399  0.000235  4.024459  0.001
C  C153  1  0.71761571  0.26773010  0.67910308  1  -0.108901  -0.009441  0.006946  0.078734  -0.009725  3.97615  -0.006
C  C154  1  0.03844113  0.32101368  0.58869719  1  -0.057349  -0.009541  0.007384  0.078665  -0.009849  3.973257  -0.006
C  C155  1  0.45088441  0.41147608  0.73273178  1  -0.077179  -0.008338  0.007716  0.078482  -0.008615  3.975074  -0.005
C  C156  1  0.28238345  0.73226909  0.32089465  1  -0.108854  -0.009443  0.007  0.078829  -0.009727  3.976277  -0.006
C  C157  1  0.96155978  0.67898762  0.41130640  1  -0.057317  -0.009539  0.007373  0.078655  -0.009848  3.973311  -0.006
C  C158  1  0.54910952  0.58851822  0.26726164  1  -0.077055  -0.008338  0.007727  0.078546  -0.008615  3.975012  -0.005
C  C159  1  0.81364260  0.32746832  0.69171129  1  0.015578  0.005739  -0.08495  -0.167373  0.002806  3.929459  0.004
C  C160  1  0.12169298  0.30848022  0.63581794  1  -0.081547  0.005933  -0.084667  -0.166476  0.002881  3.927854  0.005
C  C161  1  0.48786196  0.36478181  0.67341707  1  -0.005745  0.005272  -0.08505  -0.167088  0.002612  3.928943  0.004
C  C162  1  0.18635656  0.67253088  0.30828644  1  0.015194  0.005739  -0.084937  -0.167362  0.002806  3.92959  0.004
C  C163  1  0.87830723  0.69151828  0.36418384  1  -0.081468  0.005933  -0.084649  -0.166436  0.002881  3.927777  0.005
C  C164  1  0.51213162  0.63521319  0.32657653  1  -0.005766  0.005272  -0.085082  -0.167107  0.002612  3.929005  0.004
C  C165  1  0.89000956  0.39564674  0.78187190  1  0.478915  -0.005858  0.048895  0.108506  -0.006251  3.926987  -0.004
C  C166  1  0.10795668  0.21827562  0.61380809  1  0.488296  -0.005944  0.048475  0.10742  -0.006363  3.926272  -0.004
C  C167  1  0.49694649  0.38720650  0.60567312  1  0.53987  -0.00539  0.050002  0.10961  -0.006069  3.926704  -0.003
C  C168  1  0.10999136  0.60435456  0.21812763  1  0.479173  -0.005858  0.048907  0.108532  -0.006251  3.926818  -0.004
C  C169  1  0.89204318  0.78172498  0.38619324  1  0.488061  -0.005944  0.04846  0.107374  -0.006363  3.926234  -0.004
C  C170  1  0.50304884  0.61279060  0.39432228  1  0.539933  -0.00539  0.049992  0.109602  -0.00607  3.92667  -0.003
C  C171  1  0.78463533  0.35022143  0.84667508  1  0.470114  -0.006222  0.041747  0.091215  -0.006944  3.953319  -0.004
C  C172  1  0.93815122  0.15327677  0.50348159  1  0.490846  -0.006358  0.042705  0.092271  -0.007065  3.953617  -0.004
C  C173  1  0.43636944  0.49691891  0.65064761  1  0.466682  -0.005239  0.043055  0.092351  -0.00559  3.952154  -0.004
C  C174  1  0.21536349  0.64978127  0.15332445  1  0.470018  -0.006223  0.041759  0.091289  -0.006945  3.953388  -0.004
C  C175  1  0.06184899  0.84672312  0.49652130  1  0.490795  -0.006356  0.042702  0.09216  -0.007063  3.953776  -0.004
C  C176  1  0.56363008  0.50307959  0.34934995  1  0.466995  -0.00524  0.043027  0.092268  -0.00559  3.952121  -0.004
C  C177  1  0.70374846  0.28110192  0.75940839  1  -0.017768  0.004419  -0.086001  -0.167432  0.002176  3.95461  0.003
C  C178  1  0.94448756  0.24059429  0.52169718  1  -0.036325  0.004565  -0.086811  -0.168242  0.002243  3.954267  0.004
C  C179  1  0.42373093  0.47834401  0.71933812  1  -0.019884  0.004694  -0.08655  -0.167355  0.002304  3.954218  0.004
C  C180  1  0.29625210  0.71889868  0.24059021  1  -0.017768  0.004419  -0.086018  -0.167501  0.002176  3.954509  0.003
C  C181  1  0.05551300  0.75940770  0.47830717  1  -0.036352  0.004565  -0.086817  -0.168157  0.002243  3.954375  0.004
C  C182  1  0.57626648  0.52165309  0.28065839  1  -0.020226  0.004694  -0.086524  -0.167303  0.002304  3.954292  0.004
C  C183  1  0.58567148  0.03321050  0.34245912  1  0.486918  -0.000119  0.118224  0.190571  -0.000119  4.004317  0.0
C  C184  1  0.24284269  0.65774912  0.69071378  1  0.517205  -0.000146  0.11865  0.190774  -0.000156  4.005155  0.0
C  C185  1  0.55175042  0.30909738  0.96687286  1  0.53666  -9.6e-05  0.118548  0.189716  -0.000111  4.004953  0.0
C  C186  1  0.41432978  0.96678870  0.65754203  1  0.486913  -0.000119  0.11824  0.19057  -0.000119  4.004248  0.0
C  C187  1  0.75715857  0.34225147  0.30929137  1  0.517048  -0.000146  0.118626  0.190614  -0.000156  4.005382  0.0
C  C188  1  0.44824630  0.69090112  0.03312516  1  0.53703  -9.6e-05  0.118511  0.189815  -0.000111  4.004993  0.0
C  C189  1  0.50378429  0.97088912  0.25195968  1  0.018281  2.4e-05  -0.081589  -0.161761  1.2e-05  3.932115  0.0
C  C190  1  0.25157453  0.74839811  0.71931987  1  -0.07487  0.000171  -0.081285  -0.160661  7.5e-05  3.931902  0.0
C  C191  1  0.53196185  0.28089168  0.02917738  1  -0.072589  0.000143  -0.08168  -0.161071  6.4e-05  3.930522  0.0
C  C192  1  0.49621731  0.02910937  0.74804013  1  0.018213  2.3e-05  -0.081641  -0.161914  1.2e-05  3.932149  0.0
C  C193  1  0.74842707  0.25160318  0.28068795  1  -0.07495  0.000171  -0.081169  -0.160356  7.5e-05  3.93171  0.0
C  C194  1  0.46803802  0.71911032  0.97082273  1  -0.072478  0.000143  -0.081766  -0.161319  6.4e-05  3.930491  0.0
C  C195  1  0.52662699  0.92824029  0.17896733  1  -0.070475  5.6e-05  -0.075893  -0.030285  3e-05  3.981789  0.0
C  C196  1  0.34732494  0.82138065  0.74959634  1  -0.008028  7.9e-05  -0.075469  -0.031623  2.4e-05  3.984458  0.0
C  C197  1  0.59742921  0.25077441  0.07186679  1  -0.06033  2.1e-05  -0.076536  -0.032096  1.2e-05  3.983706  0.0
C  C198  1  0.47337287  0.07175751  0.82103179  1  -0.070493  5.6e-05  -0.075863  -0.030184  3e-05  3.981707  0.0
C  C199  1  0.65267597  0.17862204  0.25041009  1  -0.007808  7.9e-05  -0.075518  -0.031865  2.4e-05  3.984539  0.0
C  C200  1  0.40257101  0.74922968  0.92813536  1  -0.061241  2.1e-05  -0.076485  -0.032046  1.2e-05  3.983604  0.0
C  C201  1  0.63012164  0.94782871  0.19770477  1  -0.079319  -6.3e-05  -0.086755  -0.131964  -8.5e-05  3.973467  0.0
C  C202  1  0.43188239  0.80248618  0.74997994  1  -0.020824  0.000588  -0.086266  -0.130153  0.000337  3.97309  0.0
C  C203  1  0.68144507  0.25011333  0.05229990  1  -0.044447  7.3e-05  -0.086648  -0.130653  1.6e-05  3.973932  0.0
C  C204  1  0.36987857  0.05217119  0.80229406  1  -0.079195  -6.3e-05  -0.086733  -0.132037  -8.5e-05  3.973514  0.0
C  C205  1  0.56811888  0.19751722  0.25002569  1  -0.020951  0.000588  -0.086234  -0.130079  0.000337  3.973047  0.0
C  C206  1  0.31855270  0.74988586  0.94769980  1  -0.044627  7.3e-05  -0.086647  -0.130626  1.6e-05  3.974074  0.0
C  C207  1  0.70683977  0.01213864  0.28936741  1  0.491841  -0.000122  0.043629  0.086537  -0.000159  3.995752  0.0
C  C208  1  0.41683230  0.71068545  0.72222422  1  0.471673  6.4e-05  0.043056  0.085379  -2e-06  3.99755  0.0
C  C209  1  0.69406423  0.27749051  0.98802690  1  0.502267  -0.000155  0.043218  0.084784  -0.000192  3.995905  0.0
C  C210  1  0.29316010  0.98786056  0.71063107  1  0.492259  -0.000122  0.043612  0.086564  -0.000159  3.99587  0.0
C  C211  1  0.58317036  0.28931794  0.27777827  1  0.4716  6.4e-05  0.043097  0.085457  -2e-06  3.997517  0.0
C  C212  1  0.30593389  0.72250798  0.01197147  1  0.502284  -0.000156  0.043191  0.084769  -0.000192  3.995891  0.0
S  S213  1  0.17185110  0.13667079  0.83001832  1  0.118189  0.055256  -0.204866  -0.349323  0.024545  2.149237  0.033
S  S214  1  0.34142828  0.16928857  0.30598251  1  0.10505  0.053165  -0.205826  -0.349939  0.023248  2.148056  0.032
S  S215  1  0.03625503  0.69299276  0.86304560  1  0.109611  0.055042  -0.204307  -0.349212  0.024368  2.150481  0.032
S  S216  1  0.82815191  0.86333191  0.16998284  1  0.118016  0.055261  -0.204894  -0.349342  0.024548  2.149163  0.033
S  S217  1  0.65857020  0.83071622  0.69401889  1  0.104866  0.053168  -0.205788  -0.349915  0.023249  2.147878  0.032
S  S218  1  0.96374344  0.30700503  0.13695375  1  0.109557  0.055031  -0.20432  -0.349221  0.024363  2.150425  0.032
N  N219  1  0.06911928  0.03331079  0.63398784  1  -1.303025  0.068771  -0.411243  -0.515876  0.037188  3.357447  0.048
N  N220  1  0.43577997  0.36557522  0.40010685  1  -1.329214  0.068451  -0.411116  -0.51464  0.037012  3.357483  0.047
N  N221  1  0.03648912  0.60088966  0.96694545  1  -1.313897  0.068433  -0.411676  -0.515342  0.037097  3.357793  0.048
N  N222  1  0.93088337  0.96669261  0.36601523  1  -1.303131  0.068773  -0.411286  -0.515864  0.037189  3.357573  0.048
N  N223  1  0.56422304  0.63442887  0.59989252  1  -1.32901  0.068451  -0.41109  -0.514767  0.037014  3.357651  0.047
N  N224  1  0.96351668  0.39911443  0.03306156  1  -1.313996  0.068421  -0.411698  -0.515333  0.037093  3.357868  0.048
N  N225  1  0.15380942  0.03790213  0.49894380  1  -1.219701  0.060553  -0.31158  -0.22756  0.033231  3.527969  0.055
N  N226  1  0.65511592  0.50133007  0.54078064  1  -1.213556  0.060238  -0.311388  -0.228224  0.033093  3.523025  0.054
N  N227  1  0.11580528  0.46104222  0.96200337  1  -1.206352  0.060342  -0.311868  -0.227536  0.033138  3.528239  0.055
N  N228  1  0.84618975  0.96209707  0.50105393  1  -1.219733  0.060557  -0.311574  -0.227554  0.033233  3.528008  0.055
N  N229  1  0.34488499  0.49866982  0.45921953  1  -1.213559  0.060238  -0.311368  -0.228165  0.033093  3.523022  0.054
N  N230  1  0.88419633  0.53895908  0.03799634  1  -1.206388  0.060341  -0.311827  -0.227549  0.033139  3.528181  0.055
N  N231  1  0.53510017  0.16873798  0.57993034  1  -1.17232  -0.004049  -0.305531  -0.331293  -0.004138  3.302645  -0.003
N  N232  1  0.95509159  0.42019910  0.58897445  1  -1.213681  -0.004052  -0.304822  -0.330755  -0.00421  3.303325  -0.003
N  N233  1  0.36646948  0.41086904  0.83125007  1  -1.186406  -0.003796  -0.305  -0.331561  -0.003942  3.303348  -0.003
N  N234  1  0.46489969  0.83126121  0.42006640  1  -1.172326  -0.004049  -0.305596  -0.331362  -0.004139  3.302556  -0.003
N  N235  1  0.04491246  0.57980290  0.41102670  1  -1.213783  -0.004052  -0.304787  -0.330784  -0.00421  3.303261  -0.003
N  N236  1  0.63352689  0.58912876  0.16874644  1  -1.186516  -0.003797  -0.305021  -0.331475  -0.003943  3.303462  -0.003
N  N237  1  0.68613826  0.05432914  0.35996254  1  -1.203478  -7.1e-05  -0.313502  -0.301298  -8.3e-05  3.340769  0.0
N  N238  1  0.32561447  0.64006448  0.69385257  1  -1.191825  0.000105  -0.313424  -0.301327  2.6e-05  3.341269  0.0
N  N239  1  0.63124240  0.30570599  0.94581154  1  -1.197846  -3e-06  -0.312592  -0.299477  -3.2e-05  3.341404  0.0
N  N240  1  0.31386265  0.94567076  0.64003705  1  -1.203484  -7.1e-05  -0.313465  -0.301227  -8.3e-05  3.340775  0.0
N  N241  1  0.67438958  0.35993752  0.30615206  1  -1.191873  0.000105  -0.31355  -0.301447  2.6e-05  3.341462  0.0
N  N242  1  0.36875397  0.69428901  0.05418392  1  -1.198337  -3e-06  -0.312602  -0.299469  -3.2e-05  3.341409  0.0
N  N243  1  0.87733676  0.40666819  0.85883667  1  -1.232806  0.061914  -0.315478  -0.22233  0.034187  3.551048  0.056
N  N244  1  0.01853808  0.14121119  0.54780266  1  -1.196951  0.062005  -0.315385  -0.221385  0.034203  3.551232  0.056
N  N245  1  0.47360029  0.45325513  0.59480993  1  -1.216019  0.062105  -0.316226  -0.222166  0.034162  3.551  0.056
N  N246  1  0.12266311  0.59333380  0.14116286  1  -1.232835  0.061919  -0.315462  -0.222308  0.03419  3.550986  0.056
N  N247  1  0.98146284  0.85878870  0.45219866  1  -1.196638  0.062004  -0.315366  -0.221281  0.034202  3.551175  0.056
N  N248  1  0.52639993  0.54674477  0.40518890  1  -1.216138  0.062106  -0.316194  -0.222083  0.034162  3.550855  0.056
