# generated using pymatgen
data_Zr6H29C50ClO37
_symmetry_space_group_name_H-M   'P 1'
_cell_length_a   14.77727516
_cell_length_b   14.78248549
_cell_length_c   14.80890465
_cell_angle_alpha   60.15513747
_cell_angle_beta   59.90174595
_cell_angle_gamma   60.07148683
_symmetry_Int_Tables_number   1
_chemical_formula_structural   Zr6H29C50ClO37
_chemical_formula_sum   'Zr6 H29 C50 Cl1 O37'
_cell_volume   2289.63563511
_cell_formula_units_Z   1
loop_
 _symmetry_equiv_pos_site_id
 _symmetry_equiv_pos_as_xyz
  1  'x, y, z'
loop_
 _atom_site_type_symbol
 _atom_site_label
 _atom_site_symmetry_multiplicity
 _atom_site_fract_x
 _atom_site_fract_y
 _atom_site_fract_z
 _atom_site_occupancy
 _atom_site_pbe_bader_charge
 _atom_site_pbe_bader_spin_density
 _atom_site_pbe_cm5_charge
 _atom_site_pbe_ddec_charge
 _atom_site_pbe_ddec_spin_density
 _atom_site_pbe_ddec_sum_bond_order
 _atom_site_pbe_magmom
Zr  Zr0  1  0.87629533  0.88249593  0.61779722  1  2.635532  0  1.632168  2.370275  0  2.757134  0
Zr  Zr1  1  0.11749427  0.11796620  0.38196633  1  2.628513  0  1.630416  2.368532  0  2.782089  0
Zr  Zr2  1  0.11537260  0.88132835  0.61905733  1  2.6345  0  1.629839  2.37125  0  2.762638  0
Zr  Zr3  1  0.87843496  0.12205512  0.37798642  1  2.63778  0  1.63086  2.372992  0  2.744261  0
Zr  Zr4  1  0.11595844  0.88181130  0.37919738  1  2.634362  0  1.629066  2.370583  0  2.758186  0
Zr  Zr5  1  0.87732289  0.12124568  0.61804995  1  2.632144  0  1.629574  2.370469  0  2.75849  0
H  H6  1  0.09032957  0.71931669  0.59242574  1  0.613304  0  0.332349  0.423688  0  0.857211  0
H  H7  1  0.09404084  0.09415085  0.21716846  1  0.613955  0  0.333186  0.42662  0  0.85096  0
H  H8  1  0.09195409  0.09412318  0.59398556  1  0.618221  0  0.332325  0.425374  0  0.855416  0
H  H9  1  0.71476817  0.09663214  0.59237366  1  0.606714  0  0.333111  0.42474  0  0.856507  0
H  H10  1  0.84689529  0.59016206  0.64225406  1  0.102639  0  0.106651  0.115147  0  1.004163  0
H  H11  1  0.14274011  0.58740187  0.35440018  1  0.107442  0  0.116687  0.141649  0  0.980883  0
H  H12  1  0.84996867  0.41912469  0.64139568  1  0.091893  0  0.110263  0.116291  0  0.988946  0
H  H13  1  0.58741863  0.85090884  0.91719763  1  0.081906  0  0.106554  0.115362  0  1.006184  0
H  H14  1  0.59204638  0.13842085  0.92083446  1  0.102856  0  0.116491  0.141481  0  0.981258  0
H  H15  1  0.41834506  0.85145065  0.08812865  1  0.094842  0  0.110113  0.116023  0  0.989536  0
H  H16  1  0.14106728  0.85159391  0.08627560  1  0.108324  0  0.108768  0.119661  0  0.99596  0
H  H17  1  0.84976735  0.14298701  0.08926698  1  0.089658  0  0.114918  0.136975  0  0.989706  0
H  H18  1  0.13881250  0.85394857  0.91676335  1  0.100395  0  0.110526  0.116555  0  0.987064  0
H  H19  1  0.58716584  0.42213129  0.64005017  1  0.07109  0  0.108481  0.119388  0  0.996343  0
H  H20  1  0.58966767  0.41869948  0.34944495  1  0.121886  0  0.114651  0.13576  0  0.992377  0
H  H21  1  0.41724765  0.59133234  0.63817652  1  0.096228  0  0.110226  0.116048  0  0.987599  0
H  H22  1  0.13858798  0.59529434  0.91216603  1  0.117317  0  0.110086  0.129599  0  0.998654  0
H  H23  1  0.73983784  0.62087967  0.96796869  1  0.081531  0  0.100721  0.111995  0  0.982238  0
H  H24  1  0.82742461  0.53562084  0.88248174  1  0.058985  0  0.100082  0.110359  0  0.982444  0
H  H25  1  0.83593883  0.36586528  0.05223972  1  0.052719  0  0.101169  0.113568  0  0.981744  0
H  H26  1  0.74876598  0.45099048  0.13772713  1  0.063884  0  0.101808  0.115314  0  0.981656  0
H  H27  1  0.58662833  0.14419895  0.34764739  1  0.121705  0  0.109564  0.120993  0  0.994507  0
H  H28  1  0.58901981  0.85349746  0.63824567  1  0.093509  0  0.116385  0.140485  0  0.982413  0
H  H29  1  0.41679904  0.14137148  0.35068960  1  0.071483  0  0.110674  0.118003  0  0.98726  0
H  H30  1  0.15041215  0.34846489  0.34722661  1  0.635066  0  0.306562  0.350832  0  0.974519  0
H  H31  1  0.35278623  0.14537931  0.15939642  1  0.627982  0  0.30737  0.351792  0  0.974235  0
H  H32  1  0.84286132  0.15059038  0.85016820  1  0.644311  0  0.309131  0.355683  0  0.96737  0
H  H33  1  0.35051738  0.65736587  0.34241543  1  0.637882  0  0.309493  0.357889  0  0.963214  0
H  H34  1  0.34948236  0.84537555  0.64686654  1  0.639452  0  0.309063  0.354901  0  0.969025  0
C  C35  1  0.99379384  0.70053676  0.49645586  1  1.552901  0  0.239911  0.644182  0  4.084144  0
C  C36  1  0.30912042  0.99388956  0.19843371  1  1.466663  0  0.233974  0.651524  0  4.08406  0
C  C37  1  0.99504994  0.30821341  0.49963406  1  1.523961  0  0.233774  0.651435  0  4.083476  0
C  C38  1  0.69792082  0.99730971  0.80634386  1  1.545916  0  0.240921  0.645597  0  4.078761  0
C  C39  1  0.99224069  0.70240612  0.80488340  1  1.526513  0  0.240017  0.651469  0  4.096703  0
C  C40  1  0.69757618  0.99965120  0.49337084  1  1.537785  0  0.240859  0.644691  0  4.079181  0
C  C41  1  0.00022655  0.30640296  0.19972613  1  1.561592  0  0.236194  0.660289  0  4.092923  0
C  C42  1  0.30723738  0.99829534  0.49502785  1  1.499384  0  0.233667  0.651101  0  4.086072  0
C  C43  1  0.30711474  0.69867514  0.49625599  1  1.491316  0  0.234009  0.651429  0  4.083253  0
C  C44  1  0.99554334  0.99749909  0.80806576  1  1.491368  0  0.233945  0.650173  0  4.085773  0
C  C45  1  0.69864888  0.30959938  0.49478003  1  1.531774  0  0.240345  0.64427  0  4.07779  0
C  C46  1  0.99563813  0.99795936  0.19771606  1  1.547406  0  0.241077  0.645331  0  4.07884  0
C  C47  1  0.99660803  0.40797007  0.49808487  1  -0.02594  0  -0.034605  -0.192594  0  3.964903  0
C  C48  1  0.99455330  0.59856061  0.49784503  1  -0.049545  0  -0.012548  -0.014028  0  3.998175  0
C  C49  1  0.08100724  0.45541204  0.41622305  1  0.517339  0  0.097781  0.323707  0  4.046314  0
C  C50  1  0.91136807  0.55149232  0.58001792  1  -0.036973  0  -0.097596  -0.133047  0  4.005357  0
C  C51  1  0.07848901  0.55087684  0.41739759  1  0.053485  0  -0.089878  -0.205235  0  3.906212  0
C  C52  1  0.91322641  0.45736939  0.57923320  1  -0.009973  0  -0.080487  -0.062286  0  4.004405  0
C  C53  1  0.41022620  0.99448739  0.09986076  1  -0.010499  0  -0.035769  -0.194064  0  3.964759  0
C  C54  1  0.59912245  0.99482241  0.90947271  1  -0.085092  0  -0.011803  -0.01074  0  3.992068  0
C  C55  1  0.46000649  0.07647038  0.05252015  1  0.490588  0  0.09874  0.325392  0  4.041066  0
C  C56  1  0.55099101  0.91281277  0.95621462  1  0.0245  0  -0.09791  -0.135257  0  4.007121  0
C  C57  1  0.55451968  0.07526343  0.95724321  1  0.072859  0  -0.090078  -0.20697  0  3.903521  0
C  C58  1  0.45773434  0.91347508  0.05027103  1  0.005223  0  -0.08041  -0.061862  0  4.005461  0
C  C59  1  0.99404352  0.99874023  0.90791153  1  -0.003182  0  -0.03435  -0.193126  0  3.967632  0
C  C60  1  0.99536238  0.99739954  0.09724001  1  -2e-06  0  -0.011236  -0.009893  0  3.990484  0
C  C61  1  0.91145157  0.08189707  0.95677144  1  0.566116  0  0.095868  0.319381  0  4.054952  0
C  C62  1  0.07770689  0.91502745  0.04922572  1  -0.073589  0  -0.096185  -0.131709  0  3.998643  0
C  C63  1  0.91335429  0.07975011  0.05151870  1  -0.002727  0  -0.091673  -0.212018  0  3.917533  0
C  C64  1  0.07616237  0.91653176  0.95578095  1  -0.013983  0  -0.079084  -0.059269  0  3.999908  0
C  C65  1  0.40827016  0.60024284  0.49353686  1  0.03974  0  -0.033783  -0.191998  0  3.964127  0
C  C66  1  0.59826498  0.41120043  0.49434402  1  -0.035357  0  -0.011131  -0.01026  0  3.98907  0
C  C67  1  0.45771494  0.55131046  0.41047629  1  0.512414  0  0.095589  0.318517  0  4.054966  0
C  C68  1  0.55015812  0.45921728  0.57667575  1  -0.019645  0  -0.095849  -0.131178  0  3.997268  0
C  C69  1  0.55251818  0.45670609  0.41237967  1  0.037345  0  -0.091754  -0.211252  0  3.916551  0
C  C70  1  0.45635756  0.55252483  0.57542858  1  -0.040027  0  -0.079114  -0.059387  0  3.997863  0
C  C71  1  0.99301440  0.60251870  0.90521467  1  -0.028164  0  -0.009547  -0.062842  0  3.980707  0
C  C72  1  0.00225739  0.40677367  0.09962232  1  -0.051619  0  -0.015031  -0.14732  0  3.922093  0
C  C73  1  0.91571737  0.54874590  0.95770037  1  0.000403  0  -0.003426  0.058693  0  3.885887  0
C  C74  1  0.08181646  0.46148443  0.04465480  1  0.073954  0  0.024645  0.138027  0  4.005157  0
C  C75  1  0.92097976  0.45463883  0.05141304  1  0.024938  0  0.001204  0.078988  0  3.8773  0
C  C76  1  0.07615075  0.55618780  0.95114870  1  0.054361  0  -0.089175  -0.17101  0  3.962586  0
C  C77  1  0.81436069  0.54856650  0.95564505  1  -0.055256  0  -0.148058  -0.1963  0  3.875306  0
C  C78  1  0.81987885  0.44203779  0.06201599  1  0.001719  0  -0.147309  -0.195991  0  3.864313  0
C  C79  1  0.40767949  0.99663651  0.49522199  1  0.035753  0  -0.035262  -0.196778  0  3.970939  0
C  C80  1  0.59726882  0.99871273  0.49288465  1  -0.032807  0  -0.0106  -0.009127  0  3.989867  0
C  C81  1  0.45668042  0.91410347  0.57767321  1  0.493173  0  0.097657  0.32226  0  4.050137  0
C  C82  1  0.54941971  0.08074535  0.41092997  1  -0.018259  0  -0.094853  -0.130944  0  3.99694  0
C  C83  1  0.55155066  0.91647154  0.57515149  1  -0.007507  0  -0.091417  -0.211146  0  3.911912  0
C  C84  1  0.45574390  0.07890268  0.41289930  1  0.019708  0  -0.078187  -0.056374  0  3.994901  0
Cl  Cl85  1  0.19202920  0.41698018  0.08613634  1  -0.179535  0  0.002491  -0.054737  0  1.542748  0
O  O86  1  0.91665260  0.74082061  0.57284562  1  -1.175621  0  -0.354629  -0.615744  0  2.284656  0
O  O87  1  0.26739986  0.07201392  0.23919866  1  -1.177702  0  -0.352443  -0.630769  0  2.325205  0
O  O88  1  0.07359044  0.26625465  0.42278676  1  -1.192154  0  -0.351336  -0.628936  0  2.323355  0
O  O89  1  0.73562473  0.92260985  0.76455143  1  -1.175452  0  -0.354807  -0.616373  0  2.285986  0
O  O90  1  0.06951724  0.74220283  0.76431466  1  -1.179024  0  -0.362652  -0.623042  0  2.290063  0
O  O91  1  0.73682889  0.07703834  0.41762864  1  -1.177416  0  -0.35468  -0.616383  0  2.276451  0
O  O92  1  0.92265152  0.26851947  0.23608115  1  -1.167895  0  -0.346999  -0.608423  0  2.260574  0
O  O93  1  0.26536171  0.92140169  0.57315899  1  -1.187542  0  -0.350202  -0.631792  0  2.316873  0
O  O94  1  0.26533093  0.73811304  0.41977144  1  -1.175209  0  -0.35008  -0.632086  0  2.316741  0
O  O95  1  0.91821371  0.07554534  0.76705240  1  -1.18305  0  -0.35008  -0.631305  0  2.317553  0
O  O96  1  0.73705482  0.26874487  0.57262432  1  -1.177921  0  -0.355801  -0.617719  0  2.277226  0
O  O97  1  0.07241151  0.92131464  0.23728900  1  -1.180114  0  -0.356836  -0.619099  0  2.277424  0
O  O98  1  0.07183523  0.92228830  0.76627857  1  -1.179576  0  -0.351635  -0.611365  0  2.275203  0
O  O99  1  0.73853230  0.26941998  0.41822168  1  -1.183758  0  -0.355644  -0.620741  0  2.284385  0
O  O100  1  0.92012403  0.07590186  0.23652374  1  -1.180557  0  -0.355632  -0.62131  0  2.28701  0
O  O101  1  0.26489132  0.73906744  0.57283397  1  -1.185545  0  -0.351773  -0.612272  0  2.273815  0
O  O102  1  0.91594724  0.74013541  0.76557953  1  -1.169844  0  -0.34592  -0.605201  0  2.259248  0
O  O103  1  0.26538467  0.07469348  0.42036377  1  -1.185848  0  -0.355605  -0.614682  0  2.281771  0
O  O104  1  0.07522691  0.26369646  0.24232160  1  -1.177371  0  -0.367128  -0.633618  0  2.367344  0
O  O105  1  0.73638979  0.92376263  0.57066378  1  -1.177089  0  -0.356601  -0.618523  0  2.290466  0
O  O106  1  0.73716282  0.07487231  0.76568877  1  -1.183361  0  -0.359637  -0.624723  0  2.281837  0
O  O107  1  0.07115493  0.73999603  0.41988323  1  -1.182548  0  -0.358672  -0.623657  0  2.285273  0
O  O108  1  0.26665853  0.91958710  0.23773731  1  -1.17358  0  -0.351545  -0.611775  0  2.273923  0
O  O109  1  0.91897894  0.26737164  0.57542643  1  -1.19416  0  -0.352936  -0.613165  0  2.277945  0
O  O110  1  0.79517967  0.06980686  0.56544263  1  -1.231217  0  -0.692517  -1.065741  0  2.359937  0
O  O111  1  0.06490223  0.06743536  0.56742984  1  -1.245073  0  -0.698098  -1.071141  0  2.367376  0
O  O112  1  0.06664809  0.06740102  0.29732188  1  -1.240244  0  -0.695973  -1.070045  0  2.363774  0
O  O113  1  0.06411884  0.79948356  0.56584614  1  -1.24145  0  -0.694455  -1.068719  0  2.364394  0
O  O114  1  0.14727732  0.94989735  0.44990014  1  -1.195293  0  -0.793743  -1.147085  0  2.1273  0
O  O115  1  0.94788585  0.95275565  0.44879208  1  -1.196583  0  -0.789807  -1.146326  0  2.129942  0
O  O116  1  0.94863032  0.14959983  0.44981435  1  -1.195715  0  -0.792994  -1.146444  0  2.136036  0
O  O117  1  0.94713962  0.95214412  0.64735779  1  -1.198385  0  -0.790781  -1.147633  0  2.130369  0
O  O118  1  0.16442026  0.41328735  0.33632416  1  -1.139816  0  -0.352977  -0.443155  0  2.281033  0
O  O119  1  0.42049800  0.15681921  0.09433876  1  -1.130449  0  -0.353059  -0.443845  0  2.273472  0
O  O120  1  0.83034582  0.16402103  0.91605262  1  -1.156592  0  -0.3548  -0.442544  0  2.244101  0
O  O121  1  0.41748373  0.59150173  0.32893022  1  -1.149225  0  -0.355259  -0.444103  0  2.241203  0
O  O122  1  0.41590690  0.83271558  0.65948846  1  -1.148151  0  -0.356155  -0.444502  0  2.243944  0
