# generated using pymatgen
data_AlH13C19(NO5)2
_symmetry_space_group_name_H-M   'P 1'
_cell_length_a   6.65303387
_cell_length_b   23.26885818
_cell_length_c   26.38637642
_cell_angle_alpha   78.75974225
_cell_angle_beta   89.87789137
_cell_angle_gamma   90.23628731
_symmetry_Int_Tables_number   1
_chemical_formula_structural   AlH13C19(NO5)2
_chemical_formula_sum   'Al4 H52 C76 N8 O40'
_cell_volume   4006.42986260
_cell_formula_units_Z   4
loop_
 _symmetry_equiv_pos_site_id
 _symmetry_equiv_pos_as_xyz
  1  'x, y, z'
loop_
 _atom_site_type_symbol
 _atom_site_label
 _atom_site_symmetry_multiplicity
 _atom_site_fract_x
 _atom_site_fract_y
 _atom_site_fract_z
 _atom_site_occupancy
 _atom_site_pbe_bader_charge
 _atom_site_pbe_bader_spin_density
 _atom_site_pbe_cm5_charge
 _atom_site_pbe_ddec_charge
 _atom_site_pbe_ddec_spin_density
 _atom_site_pbe_ddec_sum_bond_order
 _atom_site_pbe_magmom
Al  Al0  1  0.77707880  0.74988304  0.25131574  1  2.501939  0  0.403124  1.640611  0  2.589044  0
Al  Al1  1  0.21624715  0.25092430  0.75070271  1  2.499605  0  0.401762  1.641761  0  2.585161  0
Al  Al2  1  0.27696735  0.75156591  0.24976364  1  2.500346  0  0.401656  1.641581  0  2.589507  0
Al  Al3  1  0.71600287  0.25098038  0.75041361  1  2.501577  0  0.403555  1.643695  0  2.578774  0
H  H4  1  0.25021342  0.32009289  0.88516168  1  0.096631  0  0.11513  0.120187  0  0.980237  0
H  H5  1  0.73160045  0.61306743  0.16931426  1  0.105986  0  0.114097  0.119551  0  0.981175  0
H  H6  1  0.76209231  0.11747008  0.66804985  1  0.097862  0  0.113029  0.118043  0  0.983635  0
H  H7  1  0.22456774  0.88568293  0.33254335  1  0.115522  0  0.113692  0.11951  0  0.98236  0
H  H8  1  0.24216007  0.38219364  0.95246343  1  0.085594  0  0.109066  0.113081  0  1.013175  0
H  H9  1  0.73792748  0.54833697  0.10388509  1  0.097196  0  0.106864  0.113522  0  1.007145  0
H  H10  1  0.76234201  0.05456424  0.60120190  1  0.108321  0  0.106152  0.113682  0  1.020352  0
H  H11  1  0.22536610  0.95001879  0.39824883  1  0.087233  0  0.10483  0.110999  0  1.020221  0
H  H12  1  0.68506260  0.39304867  0.82582505  1  0.141687  0  0.122322  0.137966  0  0.982804  0
H  H13  1  0.32348474  0.67621202  0.12069191  1  0.114655  0  0.121834  0.136353  0  0.987869  0
H  H14  1  0.16146260  0.17312599  0.62333549  1  0.142421  0  0.121169  0.136212  0  0.98775  0
H  H15  1  0.82360879  0.82948086  0.37829353  1  0.1587  0  0.121772  0.135983  0  0.988242  0
H  H16  1  0.02921288  0.54012191  0.90769233  1  0.090081  0  0.114006  0.133844  0  0.973992  0
H  H17  1  0.97198422  0.45766388  0.09533062  1  0.066646  0  0.109445  0.12099  0  0.993255  0
H  H18  1  0.57241603  0.96368958  0.59179198  1  0.085109  0  0.11242  0.128681  0  0.980378  0
H  H19  1  0.41650423  0.03999254  0.40739309  1  0.106256  0  0.104827  0.114252  0  1.024096  0
H  H20  1  0.27114920  0.42742669  0.52628476  1  0.17311  0  0.129657  0.148137  0  0.983273  0
H  H21  1  0.73128732  0.57387422  0.47531129  1  0.155509  0  0.129359  0.147142  0  0.983371  0
H  H22  1  0.77137775  0.07382053  0.97423451  1  0.15515  0  0.128919  0.148132  0  0.982672  0
H  H23  1  0.23339897  0.92478651  0.02417073  1  0.18411  0  0.130045  0.149045  0  0.98064  0
H  H24  1  0.80409512  0.64307993  0.98978521  1  0.065811  0  0.092715  0.055922  0  1.024612  0
H  H25  1  0.83266193  0.64478284  0.92235923  1  0.031245  0  0.09597  0.059058  0  0.964927  0
H  H26  1  0.05754463  0.72376862  0.98428004  1  0.018472  0  0.089094  0.081986  0  0.980374  0
H  H27  1  0.08645005  0.72620227  0.91733177  1  0.017533  0  0.092367  0.085347  0  0.967311  0
H  H28  1  0.71962042  0.75403843  0.90314069  1  0.048683  0  0.084528  0.108468  0  1.006015  0
H  H29  1  0.84800346  0.80491447  0.93376445  1  0.013049  0  0.084315  0.112171  0  1.008156  0
H  H30  1  0.68898044  0.75049125  0.97045360  1  0.013653  0  0.086094  0.120435  0  1.008249  0
H  H31  1  0.73987871  0.31160782  0.04192688  1  0.015437  0  0.102559  0.071747  0  0.957227  0
H  H32  1  0.66733240  0.37529706  0.99616747  1  0.068754  0  0.089594  0.048104  0  1.034596  0
H  H33  1  0.65042979  0.36036107  0.11429126  1  -0.015641  0  0.086605  0.07778  0  0.977084  0
H  H34  1  0.60024430  0.42689019  0.07056307  1  0.028557  0  0.091143  0.091949  0  0.984689  0
H  H35  1  0.31708622  0.38226240  0.03171680  1  0.00835  0  0.083601  0.110835  0  1.042031  0
H  H36  1  0.27734083  0.37153763  0.09886628  1  0.037783  0  0.086231  0.118062  0  1.003594  0
H  H37  1  0.36263730  0.31255321  0.07095255  1  0.027524  0  0.08153  0.103994  0  1.00435  0
H  H38  1  0.32258332  0.85984874  0.51141299  1  0.080009  0  0.093598  0.056576  0  1.018831  0
H  H39  1  0.35959363  0.85526758  0.57890645  1  0.044694  0  0.095564  0.05786  0  0.96518  0
H  H40  1  0.57259776  0.77999494  0.51164524  1  0.029716  0  0.089541  0.083747  0  0.980726  0
H  H41  1  0.61097919  0.77456602  0.57864844  1  0.025632  0  0.092586  0.08628  0  0.966731  0
H  H42  1  0.24486458  0.74658723  0.59581122  1  0.024238  0  0.084412  0.107488  0  1.006209  0
H  H43  1  0.36371769  0.69748081  0.56164192  1  0.009009  0  0.085174  0.113308  0  1.005193  0
H  H44  1  0.20376640  0.75349894  0.52851420  1  0.029643  0  0.086261  0.118956  0  1.005932  0
H  H45  1  0.12138999  0.16269083  0.43869700  1  0.046644  0  0.105843  0.077876  0  0.969348  0
H  H46  1  0.14936024  0.09333885  0.42076859  1  0.06261  0  0.102328  0.067466  0  0.983731  0
H  H47  1  0.42287520  0.20105254  0.38669498  1  0.045245  0  0.095938  0.093515  0  0.964162  0
H  H48  1  0.45713410  0.13322595  0.36756735  1  0.010766  0  0.089873  0.081564  0  0.987784  0
H  H49  1  0.11678966  0.14296530  0.32389987  1  0.01238  0  0.084781  0.107709  0  1.005738  0
H  H50  1  0.27259737  0.20398255  0.29869036  1  0.026338  0  0.08815  0.11476  0  1.001463  0
H  H51  1  0.07954934  0.21077812  0.34366228  1  0.042919  0  0.087223  0.112026  0  1.000851  0
H  H52  1  0.52173942  0.67676285  0.27845824  1  0.632477  0  0.35957  0.439673  0  0.840571  0
H  H53  1  0.46591866  0.32706597  0.72649923  1  0.619501  0  0.360557  0.442813  0  0.834446  0
H  H54  1  0.02406701  0.82498277  0.22293037  1  0.597427  0  0.358944  0.438913  0  0.840572  0
H  H55  1  0.96562457  0.17513872  0.77554793  1  0.629057  0  0.359223  0.440545  0  0.838767  0
C  C56  1  0.53118295  0.82455085  0.17184156  1  1.708564  0  0.283831  0.715006  0  4.15865  0
C  C57  1  0.47237252  0.17649571  0.82819927  1  1.692764  0  0.281451  0.711285  0  4.162551  0
C  C58  1  0.02705519  0.67633472  0.32876991  1  1.6931  0  0.282225  0.714429  0  4.157357  0
C  C59  1  0.96092419  0.32494684  0.67293478  1  1.70598  0  0.284202  0.715526  0  4.154163  0
C  C60  1  0.52642080  0.81675423  0.31094497  1  1.580973  0  0.267906  0.642842  0  4.107056  0
C  C61  1  0.45796544  0.18604442  0.69013417  1  1.570042  0  0.268693  0.64398  0  4.102255  0
C  C62  1  0.02825865  0.68512919  0.18976057  1  1.574033  0  0.268282  0.643551  0  4.107858  0
C  C63  1  0.97370733  0.31564712  0.81124220  1  1.570413  0  0.268421  0.639239  0  4.105857  0
C  C64  1  0.12496669  0.34955173  0.88736913  1  -0.052709  0  -0.068701  -0.068855  0  3.941469  0
C  C65  1  0.86249893  0.61209017  0.14460674  1  -0.014046  0  -0.070295  -0.068277  0  3.952393  0
C  C66  1  0.63064309  0.11523234  0.64391522  1  -0.002137  0  -0.069633  -0.064769  0  3.947071  0
C  C67  1  0.35598309  0.88820199  0.35660680  1  -0.078537  0  -0.072597  -0.071173  0  3.95176  0
C  C68  1  0.11970584  0.38392797  0.92488803  1  0.045081  0  -0.074358  -0.10838  0  3.941772  0
C  C69  1  0.86716110  0.57578823  0.10854396  1  -0.028607  0  -0.080164  -0.122141  0  3.95284  0
C  C70  1  0.62981766  0.07986274  0.60708688  1  -0.059215  0  -0.081377  -0.120684  0  3.944938  0
C  C71  1  0.35751526  0.92435815  0.39276756  1  -0.020127  0  -0.081855  -0.120855  0  3.951105  0
C  C72  1  0.96125204  0.42294221  0.92753262  1  0.021557  0  0.019299  0.069168  0  3.955216  0
C  C73  1  0.03341354  0.57466197  0.07574261  1  0.018578  0  0.019703  0.072024  0  3.946788  0
C  C74  1  0.46301009  0.07691321  0.57505189  1  0.071813  0  0.019241  0.072786  0  3.939017  0
C  C75  1  0.52380673  0.92733077  0.42500338  1  0.062844  0  0.018802  0.06929  0  3.943928  0
C  C76  1  0.80682628  0.42496720  0.89093278  1  0.159682  0  0.079089  0.014021  0  3.912223  0
C  C77  1  0.19455578  0.61248366  0.08090498  1  0.193595  0  0.082969  0.022889  0  3.908076  0
C  C78  1  0.29631427  0.11166474  0.58225618  1  0.188327  0  0.081097  0.022542  0  3.916321  0
C  C79  1  0.68921620  0.89160775  0.41879318  1  0.161596  0  0.082341  0.022712  0  3.908273  0
C  C80  1  0.80798783  0.39049200  0.85333082  1  0.006497  0  -0.067131  -0.12592  0  3.93971  0
C  C81  1  0.19418568  0.64841862  0.11730346  1  0.024815  0  -0.068646  -0.13086  0  3.941955  0
C  C82  1  0.29384740  0.14724073  0.61879701  1  0.012361  0  -0.068161  -0.126333  0  3.936728  0
C  C83  1  0.69168241  0.85576275  0.38233817  1  0.010702  0  -0.069463  -0.131372  0  3.944079  0
C  C84  1  0.96828710  0.35246720  0.85149629  1  0.019765  0  -0.01028  -0.031819  0  3.974171  0
C  C85  1  0.02763569  0.64806401  0.14968164  1  0.002339  0  -0.012137  -0.034973  0  3.980991  0
C  C86  1  0.46184805  0.14897067  0.65022780  1  -0.014258  0  -0.014294  -0.040884  0  3.981506  0
C  C87  1  0.52445414  0.85413246  0.35073403  1  0.001565  0  -0.012882  -0.035643  0  3.983349  0
C  C88  1  0.01296859  0.52180197  0.94881540  1  0.030047  0  -0.090536  -0.210637  0  3.958753  0
C  C89  1  0.98318362  0.47632275  0.05417995  1  -0.030602  0  -0.090222  -0.213348  0  3.981358  0
C  C90  1  0.53943589  0.98122989  0.55128994  1  0.026548  0  -0.087287  -0.201107  0  3.95844  0
C  C91  1  0.44649867  0.02336434  0.44815765  1  -0.047461  0  -0.102228  -0.238196  0  3.987975  0
C  C92  1  0.03979549  0.55852719  0.98412720  1  0.562306  0  0.082199  0.21499  0  4.053894  0
C  C93  1  0.96052478  0.43923041  0.01899238  1  0.481623  0  0.080048  0.202596  0  4.056366  0
C  C94  1  0.55402826  0.94415246  0.51602130  1  0.532907  0  0.075005  0.201152  0  4.063735  0
C  C95  1  0.42568072  0.06002670  0.48384359  1  0.456638  0  0.084484  0.21551  0  4.050425  0
C  C96  1  0.02344082  0.53605780  0.03750467  1  -0.002269  0  -0.013396  -0.017937  0  4.024679  0
C  C97  1  0.97330408  0.46198599  0.96562282  1  0.020863  0  -0.013614  -0.018317  0  4.021338  0
C  C98  1  0.51142830  0.96539407  0.46355621  1  -0.033054  0  -0.013354  -0.009467  0  4.025711  0
C  C99  1  0.47492311  0.03920991  0.53619880  1  0.094293  0  -0.012053  -0.010738  0  4.001266  0
C  C100  1  0.17720132  0.50384920  0.47263546  1  0.174984  0  0.097336  0.045198  0  3.866307  0
C  C101  1  0.82512701  0.49745932  0.52896484  1  0.250508  0  0.097971  0.045608  0  3.858529  0
C  C102  1  0.67771804  0.99656970  0.02735284  1  0.181563  0  0.096496  0.041946  0  3.86474  0
C  C103  1  0.32709036  0.00206454  0.97107388  1  0.175639  0  0.098283  0.045206  0  3.863285  0
C  C104  1  0.02814799  0.54670952  0.45658369  1  0.127209  0  0.028122  0.115008  0  4.048919  0
C  C105  1  0.97400994  0.45450032  0.54497740  1  0.076491  0  0.03025  0.119698  0  4.043557  0
C  C106  1  0.52925235  0.95298766  0.04311898  1  0.135825  0  0.029845  0.120149  0  4.047913  0
C  C107  1  0.47532366  0.04575135  0.95534941  1  0.137657  0  0.028641  0.117749  0  4.047245  0
C  C108  1  0.85088848  0.54220701  0.48635409  1  0.092562  0  -0.050783  -0.130889  0  3.876628  0
C  C109  1  0.15151033  0.45907283  0.51523590  1  0.07484  0  -0.050409  -0.132139  0  3.874697  0
C  C110  1  0.35261762  0.95699860  0.01333716  1  0.08074  0  -0.05102  -0.133094  0  3.875202  0
C  C111  1  0.65212316  0.04162943  0.98507224  1  0.082277  0  -0.05128  -0.132799  0  3.876387  0
C  C112  1  0.04114145  0.59186051  0.41243759  1  -0.32079  0  -0.013563  -0.016956  0  4.079908  0
C  C113  1  0.95938051  0.40915829  0.58892016  1  -0.342418  0  -0.014188  -0.020261  0  4.074188  0
C  C114  1  0.54282919  0.90785266  0.08719057  1  -0.24644  0  -0.015322  -0.021593  0  4.080909  0
C  C115  1  0.46141792  0.09127087  0.91153514  1  -0.283673  0  -0.018158  -0.025177  0  4.082652  0
C  C116  1  0.96514299  0.36973938  0.62669245  1  0.192929  0  -0.007427  -0.136711  0  3.869521  0
C  C117  1  0.03097292  0.63122987  0.37471723  1  0.131597  0  -0.012819  -0.146516  0  3.882847  0
C  C118  1  0.46906561  0.13097786  0.87399420  1  0.124989  0  -0.011515  -0.141843  0  3.88163  0
C  C119  1  0.53517853  0.86884616  0.12525699  1  0.053118  0  -0.010328  -0.141525  0  3.878606  0
C  C120  1  0.90955682  0.65401208  0.95700264  1  0.382391  0  -0.068684  0.039818  0  3.878254  0
C  C121  1  0.97719998  0.71736763  0.94934170  1  0.032414  0  -0.167429  -0.123051  0  3.985825  0
C  C122  1  0.79859508  0.75907485  0.93860909  1  -0.063898  0  -0.244073  -0.3559  0  3.980213  0
C  C123  1  0.72811970  0.35961666  0.03525918  1  0.396664  0  -0.069976  0.035382  0  3.901066  0
C  C124  1  0.59312761  0.37882609  0.07540844  1  0.03797  0  -0.174578  -0.141595  0  3.994419  0
C  C125  1  0.37642966  0.36004980  0.06913742  1  -0.055401  0  -0.247551  -0.347451  0  3.980312  0
C  C126  1  0.43220527  0.84795687  0.54299483  1  0.352051  0  -0.068853  0.03894  0  3.87967  0
C  C127  1  0.49792557  0.78487958  0.54783677  1  0.002167  0  -0.168345  -0.125854  0  3.984008  0
C  C128  1  0.31771273  0.74323977  0.55903765  1  -0.043724  0  -0.242515  -0.352546  0  3.976476  0
C  C129  1  0.23163221  0.13262759  0.42689962  1  0.408926  0  -0.064442  0.033612  0  3.873535  0
C  C130  1  0.34209352  0.16264843  0.37824236  1  -0.006967  0  -0.169593  -0.14117  0  3.990243  0
C  C131  1  0.19493918  0.18111782  0.33365216  1  -0.075588  0  -0.241224  -0.349713  0  3.988705  0
N  N132  1  0.63013660  0.46302455  0.89178032  1  0.377966  0  0.058136  0.519935  0  4.209854  0
N  N133  1  0.37959768  0.61324144  0.04989758  1  0.365707  0  0.061264  0.521791  0  4.215357  0
N  N134  1  0.10902084  0.10922514  0.55307204  1  0.375992  0  0.055395  0.514518  0  4.22693  0
N  N135  1  0.87637283  0.89318696  0.44842035  1  0.381398  0  0.057906  0.516563  0  4.219153  0
N  N136  1  0.37055447  0.50582836  0.44471393  1  0.390006  0  0.059431  0.509977  0  4.208664  0
N  N137  1  0.63136518  0.49564080  0.55672984  1  0.395267  0  0.060626  0.510366  0  4.208364  0
N  N138  1  0.87015827  0.99521085  0.05535198  1  0.400393  0  0.060742  0.512749  0  4.2046  0
N  N139  1  0.13431772  0.00345064  0.94319480  1  0.393059  0  0.060172  0.511985  0  4.203809  0
O  O140  1  0.35618423  0.80397655  0.29390043  1  -1.256273  0  -0.237347  -0.59874  0  2.347492  0
O  O141  1  0.62312738  0.19333216  0.71266382  1  -1.261077  0  -0.23931  -0.605889  0  2.345497  0
O  O142  1  0.85849299  0.69636880  0.20799386  1  -1.259039  0  -0.237707  -0.59903  0  2.34147  0
O  O143  1  0.14372823  0.29447682  0.80257194  1  -1.245957  0  -0.233737  -0.589867  0  2.346312  0
O  O144  1  0.70039437  0.80645849  0.19066876  1  -1.237398  0  -0.220345  -0.57143  0  2.278597  0
O  O145  1  0.30530971  0.18830491  0.80525736  1  -1.230976  0  -0.219435  -0.571884  0  2.28204  0
O  O146  1  0.19660154  0.69375762  0.30910155  1  -1.233021  0  -0.220064  -0.573492  0  2.282225  0
O  O147  1  0.79058197  0.30187989  0.68630657  1  -1.230776  0  -0.21924  -0.566632  0  2.266502  0
O  O148  1  0.69757812  0.80135568  0.29656759  1  -1.256017  0  -0.237169  -0.594897  0  2.343806  0
O  O149  1  0.28824644  0.20708770  0.69943527  1  -1.258531  0  -0.236185  -0.594163  0  2.349433  0
O  O150  1  0.19936842  0.70170445  0.20320735  1  -1.256452  0  -0.235995  -0.593251  0  2.35092  0
O  O151  1  0.80942486  0.30881248  0.78827307  1  -1.256641  0  -0.237865  -0.598583  0  2.340927  0
O  O152  1  0.85472096  0.69392424  0.31182389  1  -1.229921  0  -0.220754  -0.57271  0  2.283305  0
O  O153  1  0.12718165  0.31345076  0.69637624  1  -1.235051  0  -0.221139  -0.578028  0  2.284993  0
O  O154  1  0.35837151  0.80845368  0.18996106  1  -1.233484  0  -0.220877  -0.572816  0  2.287716  0
O  O155  1  0.64238910  0.19985439  0.81482894  1  -1.231885  0  -0.223339  -0.572909  0  2.272768  0
O  O156  1  0.52566481  0.71505041  0.25592929  1  -1.431151  0  -0.447485  -0.994151  0  2.194554  0
O  O157  1  0.46691680  0.28715452  0.74594928  1  -1.417864  0  -0.446923  -0.996382  0  2.18827  0
O  O158  1  0.02623492  0.78648292  0.24508714  1  -1.396834  0  -0.44756  -0.994547  0  2.197865  0
O  O159  1  0.96525474  0.21483785  0.75566630  1  -1.428155  0  -0.447367  -0.996259  0  2.193579  0
O  O160  1  0.56072925  0.48744163  0.84950819  1  -0.442537  0  -0.14173  -0.340364  0  1.855347  0
O  O161  1  0.55963430  0.46693295  0.93453660  1  -0.449365  0  -0.117567  -0.321135  0  1.929623  0
O  O162  1  0.46803538  0.66093007  0.03700973  1  -0.442958  0  -0.127738  -0.340691  0  1.918602  0
O  O163  1  0.43965665  0.56603361  0.04051171  1  -0.444736  0  -0.117549  -0.320289  0  1.923813  0
O  O164  1  0.05116689  0.06036193  0.54666173  1  -0.44769  0  -0.122327  -0.327226  0  1.93534  0
O  O165  1  0.01700881  0.15573441  0.53842606  1  -0.456355  0  -0.135924  -0.340999  0  1.890297  0
O  O166  1  0.96847672  0.84645486  0.46171328  1  -0.454152  0  -0.126203  -0.336444  0  1.918152  0
O  O167  1  0.93476285  0.94147864  0.45599846  1  -0.454023  0  -0.120576  -0.323217  0  1.929132  0
O  O168  1  0.08585847  0.61690005  0.96710650  1  -1.074885  0  -0.209934  -0.255897  0  2.50521  0
O  O169  1  0.93324361  0.37995540  0.03742119  1  -1.070548  0  -0.206931  -0.252847  0  2.528955  0
O  O170  1  0.60707393  0.88619541  0.53254428  1  -1.066691  0  -0.211442  -0.257105  0  2.499284  0
O  O171  1  0.36288554  0.11687492  0.47085849  1  -1.074111  0  -0.186853  -0.216453  0  2.551252  0
O  O172  1  0.46932081  0.45985574  0.45068075  1  -0.445152  0  -0.132597  -0.331331  0  1.881142  0
O  O173  1  0.42366210  0.55325091  0.41800900  1  -0.429393  0  -0.10887  -0.307653  0  1.926161  0
O  O174  1  0.53235831  0.54159957  0.55031738  1  -0.449316  0  -0.13041  -0.330812  0  1.887526  0
O  O175  1  0.57812258  0.44834327  0.58359636  1  -0.432214  0  -0.107035  -0.305124  0  1.926945  0
O  O176  1  0.96462377  0.04204922  0.05103652  1  -0.443712  0  -0.134551  -0.332359  0  1.87229  0
O  O177  1  0.92672475  0.94745845  0.08041677  1  -0.441081  0  -0.10931  -0.309408  0  1.926449  0
O  O178  1  0.04076520  0.95652215  0.94715671  1  -0.449395  0  -0.130136  -0.329031  0  1.875352  0
O  O179  1  0.07671485  0.05135823  0.91865814  1  -0.429533  0  -0.108281  -0.308112  0  1.92659  0
