# generated using pymatgen
data_CdH7C17S2NF8
_symmetry_space_group_name_H-M   'P 1'
_cell_length_a   7.52385427
_cell_length_b   11.91606362
_cell_length_c   11.91608317
_cell_angle_alpha   63.50111306
_cell_angle_beta   77.46442695
_cell_angle_gamma   77.46446805
_symmetry_Int_Tables_number   1
_chemical_formula_structural   CdH7C17S2NF8
_chemical_formula_sum   'Cd2 H14 C34 S4 N2 F16'
_cell_volume   924.42838769
_cell_formula_units_Z   2
loop_
 _symmetry_equiv_pos_site_id
 _symmetry_equiv_pos_as_xyz
  1  'x, y, z'
loop_
 _atom_site_type_symbol
 _atom_site_label
 _atom_site_symmetry_multiplicity
 _atom_site_fract_x
 _atom_site_fract_y
 _atom_site_fract_z
 _atom_site_occupancy
 _atom_site_hle17_bader_spin_density
 _atom_site_hle17_ddec_charge
 _atom_site_hle17_ddec_spin_density
 _atom_site_hle17_ddec_sum_bond_order
 _atom_site_hle17_magmom
 _atom_site_hse06_10hf_bader_spin_density
 _atom_site_hse06_10hf_ddec_charge
 _atom_site_hse06_10hf_ddec_spin_density
 _atom_site_hse06_10hf_ddec_sum_bond_order
 _atom_site_hse06_10hf_magmom
 _atom_site_hse06_bader_spin_density
 _atom_site_hse06_ddec_charge
 _atom_site_hse06_ddec_spin_density
 _atom_site_hse06_ddec_sum_bond_order
 _atom_site_hse06_magmom
 _atom_site_pbe_bader_spin_density
 _atom_site_pbe_cm5_charge
 _atom_site_pbe_ddec_charge
 _atom_site_pbe_ddec_spin_density
 _atom_site_pbe_ddec_sum_bond_order
 _atom_site_pbe_magmom
Cd  Cd0  1  0.25000090  0.53033076  0.46966797  1  0  0.7441  0  2.030368  0  0  0.578888  0  2.473452  0  0  0.621825  0  2.44512  0  0  0.539746  0.548466  0  2.49395  0
Cd  Cd1  1  0.74999936  0.46966934  0.53033142  1  0  0.744109  0  2.030346  0  0  0.578903  0  2.473422  0  0  0.621841  0  2.445087  0  0  0.539744  0.548482  0  2.493919  0
H  H2  1  0.17815457  0.62547136  0.89231178  1  0  0.169351  0  0.947278  0  0  0.169865  0  1.016859  0  0  0.174675  0  1.012761  0  0  0.111838  0.166316  0  1.020107  0
H  H3  1  0.32184342  0.10768919  0.37453034  1  0  0.169358  0  0.947265  0  0  0.169853  0  1.016867  0  0  0.174662  0  1.012771  0  0  0.11185  0.166305  0  1.020112  0
H  H4  1  0.82184104  0.37453158  0.10768783  1  0  0.169356  0  0.947282  0  0  0.16986  0  1.016874  0  0  0.174671  0  1.012774  0  0  0.11185  0.166313  0  1.020119  0
H  H5  1  0.67816248  0.89230997  0.62546785  1  0  0.169323  0  0.947294  0  0  0.169819  0  1.016899  0  0  0.17463  0  1.0128  0  0  0.111828  0.166272  0  1.020143  0
H  H6  1  0.04172082  0.81524339  0.36376845  1  0  0.077661  0  0.969388  0  0  0.084451  0  1.041017  0  0  0.086471  0  1.039439  0  0  0.101645  0.082944  0  1.042186  0
H  H7  1  0.45828317  0.63623140  0.18475232  1  0  0.077671  0  0.969384  0  0  0.084457  0  1.041011  0  0  0.086477  0  1.039433  0  0  0.101648  0.08295  0  1.04218  0
H  H8  1  0.95828120  0.18475481  0.63623239  1  0  0.077665  0  0.969371  0  0  0.084456  0  1.040998  0  0  0.086476  0  1.039421  0  0  0.101635  0.082949  0  1.042168  0
H  H9  1  0.54171709  0.36376870  0.81524539  1  0  0.077683  0  0.969377  0  0  0.084465  0  1.040999  0  0  0.086486  0  1.039423  0  0  0.101649  0.082954  0  1.042166  0
H  H10  1  0.25000074  0.02771445  0.97228527  1  0  0.101268  0  0.933266  0  0  0.109351  0  0.994594  0  0  0.11231  0  0.992459  0  0  0.107862  0.107146  0  0.996205  0
H  H11  1  0.74999953  0.97228565  0.02771496  1  0  0.101269  0  0.933264  0  0  0.109347  0  0.9946  0  0  0.112306  0  0.992465  0  0  0.107861  0.107141  0  0.996211  0
H  H12  1  0.03315746  0.01859443  0.16864404  1  0  0.111618  0  0.945877  0  0  0.116855  0  1.009653  0  0  0.120873  0  1.007516  0  0  0.10602  0.113993  0  1.011351  0
H  H13  1  0.46684252  0.83135667  0.98140325  1  0  0.111582  0  0.945901  0  0  0.116824  0  1.009672  0  0  0.120841  0  1.007537  0  0  0.105996  0.113963  0  1.011367  0
H  H14  1  0.96684300  0.98140472  0.83135659  1  0  0.1116  0  0.945885  0  0  0.116835  0  1.009664  0  0  0.120852  0  1.007529  0  0  0.106013  0.113972  0  1.011366  0
H  H15  1  0.53315756  0.16864437  0.01859575  1  0  0.111601  0  0.94587  0  0  0.116828  0  1.00966  0  0  0.120844  0  1.007526  0  0  0.105999  0.113967  0  1.011352  0
C  C16  1  0.11557214  0.45807071  0.26578831  1  0  -0.061442  0  3.868419  0  0  -0.065355  0  4.148466  0  0  -0.063457  0  4.170073  0  0  -0.03572  -0.067045  0  4.13452  0
C  C17  1  0.38442575  0.73421241  0.54193167  1  0  -0.061611  0  3.868441  0  0  -0.065482  0  4.148441  0  0  -0.063579  0  4.170044  0  0  -0.035829  -0.067169  0  4.134494  0
C  C18  1  0.88442406  0.54192938  0.73421333  1  0  -0.061538  0  3.868467  0  0  -0.065444  0  4.14851  0  0  -0.063541  0  4.170115  0  0  -0.035799  -0.067124  0  4.134554  0
C  C19  1  0.61557608  0.26578675  0.45806961  1  0  -0.061541  0  3.868378  0  0  -0.065436  0  4.148417  0  0  -0.063532  0  4.170021  0  0  -0.035803  -0.067118  0  4.134463  0
C  C20  1  0.16089585  0.58009448  0.99513438  1  0  -0.270942  0  3.770805  0  0  -0.31494  0  4.056967  0  0  -0.320035  0  4.073572  0  0  -0.115406  -0.311627  0  4.046168  0
C  C21  1  0.33910232  0.00486541  0.41990666  1  0  -0.271118  0  3.770837  0  0  -0.315046  0  4.056987  0  0  -0.320133  0  4.073588  0  0  -0.115444  -0.311732  0  4.046188  0
C  C22  1  0.83910268  0.41990751  0.00486525  1  0  -0.271098  0  3.770843  0  0  -0.315057  0  4.056994  0  0  -0.320146  0  4.073596  0  0  -0.115463  -0.311743  0  4.046196  0
C  C23  1  0.66090105  0.99513280  0.58009231  1  0  -0.271022  0  3.770705  0  0  -0.31495  0  4.056831  0  0  -0.32004  0  4.073434  0  0  -0.11542  -0.311637  0  4.046031  0
C  C24  1  0.13340816  0.82325282  0.27684174  1  0  0.123664  0  3.697211  0  0  0.091364  0  3.947189  0  0  0.098106  0  3.96737  0  0  0.039845  0.087105  0  3.933393  0
C  C25  1  0.36659450  0.72315825  0.17674321  1  0  0.123718  0  3.697111  0  0  0.09142  0  3.947085  0  0  0.098162  0  3.967267  0  0  0.039886  0.087161  0  3.933289  0
C  C26  1  0.86659250  0.17674539  0.72315929  1  0  0.12368  0  3.697232  0  0  0.09138  0  3.947212  0  0  0.098123  0  3.967393  0  0  0.039856  0.08712  0  3.933419  0
C  C27  1  0.63340577  0.27684185  0.82325535  1  0  0.123671  0  3.697209  0  0  0.091388  0  3.947167  0  0  0.098127  0  3.967351  0  0  0.039856  0.087135  0  3.933368  0
C  C28  1  0.25000043  0.94076008  0.05923960  1  0  -2.7e-05  0  3.711006  0  0  -0.0215  0  3.961972  0  0  -0.017921  0  3.981997  0  0  -0.06285  -0.023351  0  3.947981  0
C  C29  1  0.74999965  0.05924097  0.94076024  1  0  -5.1e-05  0  3.710982  0  0  -0.021515  0  3.961935  0  0  -0.017936  0  3.981959  0  0  -0.062851  -0.023364  0  3.947943  0
C  C30  1  0.01309119  0.57471200  0.19922898  1  0  0.144523  0  3.802924  0  0  0.115763  0  4.10284  0  0  0.122021  0  4.114458  0  0  0.07285  0.111321  0  4.095357  0
C  C31  1  0.48690748  0.80077061  0.42529069  1  0  0.144451  0  3.802904  0  0  0.115714  0  4.102858  0  0  0.121969  0  4.114477  0  0  0.072882  0.111271  0  4.095376  0
C  C32  1  0.98690617  0.42528905  0.80077124  1  0  0.144517  0  3.80289  0  0  0.115775  0  4.102819  0  0  0.12203  0  4.11444  0  0  0.072901  0.111329  0  4.095338  0
C  C33  1  0.51309337  0.19922665  0.57471073  1  0  0.144459  0  3.802911  0  0  0.115728  0  4.102827  0  0  0.121984  0  4.114447  0  0  0.072867  0.111283  0  4.095345  0
C  C34  1  0.12921014  0.93612070  0.16774437  1  0  -0.115579  0  3.720939  0  0  -0.128279  0  3.973359  0  0  -0.136212  0  3.995523  0  0  -0.082713  -0.123226  0  3.95842  0
C  C35  1  0.37079092  0.83225537  0.06387730  1  0  -0.115541  0  3.720794  0  0  -0.128239  0  3.973201  0  0  -0.136174  0  3.995368  0  0  -0.082675  -0.123187  0  3.958263  0
C  C36  1  0.87079012  0.06387940  0.83225502  1  0  -0.115526  0  3.720935  0  0  -0.128223  0  3.973343  0  0  -0.136156  0  3.995505  0  0  -0.082687  -0.123171  0  3.958404  0
C  C37  1  0.62920916  0.16774567  0.93612170  1  0  -0.115549  0  3.72079  0  0  -0.128242  0  3.973198  0  0  -0.136177  0  3.995368  0  0  -0.08269  -0.123189  0  3.958262  0
C  C38  1  0.24405024  0.40614417  0.19088396  1  0  0.161909  0  3.76639  0  0  0.128348  0  4.069122  0  0  0.135642  0  4.077699  0  0  0.077844  0.123075  0  4.06399  0
C  C39  1  0.25594678  0.80911756  0.59385697  1  0  0.162104  0  3.766207  0  0  0.12848  0  4.068933  0  0  0.135776  0  4.077507  0  0  0.077892  0.123207  0  4.063803  0
C  C40  1  0.75594595  0.59385593  0.80911685  1  0  0.161967  0  3.766205  0  0  0.128392  0  4.068932  0  0  0.135688  0  4.077506  0  0  0.077842  0.123116  0  4.063801  0
C  C41  1  0.74405485  0.19088255  0.40614307  1  0  0.162036  0  3.766108  0  0  0.128431  0  4.068851  0  0  0.135727  0  4.077425  0  0  0.077867  0.123157  0  4.06372  0
C  C42  1  0.03507942  0.63362697  0.06763632  1  0  0.227651  0  3.817723  0  0  0.197929  0  4.121314  0  0  0.207103  0  4.130926  0  0  0.081124  0.191477  0  4.115098  0
C  C43  1  0.46492017  0.93236229  0.36637591  1  0  0.227988  0  3.817489  0  0  0.198126  0  4.121257  0  0  0.207298  0  4.130868  0  0  0.081182  0.191673  0  4.115041  0
C  C44  1  0.96491774  0.36637502  0.93236350  1  0  0.227861  0  3.817542  0  0  0.198069  0  4.121223  0  0  0.207241  0  4.130837  0  0  0.081174  0.191616  0  4.11501  0
C  C45  1  0.53508359  0.06763403  0.63362469  1  0  0.22783  0  3.817517  0  0  0.198015  0  4.121223  0  0  0.207188  0  4.130837  0  0  0.081114  0.191563  0  4.115008  0
C  C46  1  0.26421525  0.46539692  0.05942921  1  0  0.225607  0  3.83023  0  0  0.194325  0  4.138278  0  0  0.20384  0  4.14707  0  0  0.081501  0.187615  0  4.132685  0
C  C47  1  0.23578539  0.94057115  0.53460463  1  0  0.225527  0  3.83034  0  0  0.194326  0  4.138303  0  0  0.203836  0  4.147097  0  0  0.081515  0.187614  0  4.13271  0
C  C48  1  0.73578192  0.53460507  0.94057061  1  0  0.225588  0  3.830282  0  0  0.194341  0  4.138283  0  0  0.203852  0  4.147077  0  0  0.081539  0.187629  0  4.132693  0
C  C49  1  0.76421897  0.05942895  0.46539503  1  0  0.225551  0  3.830194  0  0  0.194312  0  4.138208  0  0  0.203822  0  4.147001  0  0  0.081526  0.1876  0  4.132616  0
S  S50  1  0.09204075  0.38013914  0.43129422  1  0  -0.36074  0  2.247234  0  0  -0.328552  0  2.624158  0  0  -0.347465  0  2.618104  0  0  -0.205755  -0.314722  0  2.629363  0
S  S51  1  0.40795666  0.56870420  0.61986326  1  0  -0.360701  0  2.247174  0  0  -0.328529  0  2.624086  0  0  -0.347443  0  2.618031  0  0  -0.205749  -0.314697  0  2.629289  0
S  S52  1  0.90795796  0.61986191  0.56870496  1  0  -0.360712  0  2.2472  0  0  -0.328523  0  2.624121  0  0  -0.347438  0  2.618065  0  0  -0.205728  -0.314696  0  2.629323  0
S  S53  1  0.59204128  0.43129400  0.38013898  1  0  -0.360691  0  2.247201  0  0  -0.328502  0  2.624107  0  0  -0.347417  0  2.618051  0  0  -0.205727  -0.314675  0  2.629309  0
N  N54  1  0.25000160  0.71849790  0.28150036  1  0  -0.323757  0  3.279819  0  0  -0.235641  0  3.531882  0  0  -0.256204  0  3.553763  0  0  -0.335993  -0.221699  0  3.516723  0
N  N55  1  0.74999886  0.28150125  0.71849943  1  0  -0.323779  0  3.279911  0  0  -0.23567  0  3.531967  0  0  -0.256232  0  3.553847  0  0  -0.335979  -0.221729  0  3.516811  0
F  F56  1  0.89275618  0.63541132  0.26342901  1  0  -0.161956  0  1.314821  0  0  -0.113404  0  1.499088  0  0  -0.122545  0  1.489825  0  0  -0.090828  -0.106722  0  1.505474  0
F  F57  1  0.60724276  0.73656966  0.36459166  1  0  -0.161957  0  1.314774  0  0  -0.113398  0  1.499036  0  0  -0.122539  0  1.489773  0  0  -0.09083  -0.106717  0  1.505422  0
F  F58  1  0.10724391  0.36458973  0.73657167  1  0  -0.161981  0  1.314761  0  0  -0.113425  0  1.499023  0  0  -0.122566  0  1.489762  0  0  -0.090848  -0.106744  0  1.505412  0
F  F59  1  0.39275711  0.26342571  0.63541074  1  0  -0.161927  0  1.314728  0  0  -0.11337  0  1.49898  0  0  -0.122511  0  1.489718  0  0  -0.090814  -0.10669  0  1.505368  0
F  F60  1  0.35433179  0.29578962  0.24626614  1  0  -0.166143  0  1.26678  0  0  -0.1083  0  1.430612  0  0  -0.116882  0  1.42045  0  0  -0.084393  -0.102136  0  1.437936  0
F  F61  1  0.14566559  0.75373560  0.70421285  1  0  -0.166218  0  1.266681  0  0  -0.10833  0  1.430495  0  0  -0.116915  0  1.420333  0  0  -0.08438  -0.102166  0  1.437819  0
F  F62  1  0.64566284  0.70421142  0.75373362  1  0  -0.166135  0  1.266667  0  0  -0.108305  0  1.430513  0  0  -0.116888  0  1.42035  0  0  -0.084383  -0.102141  0  1.437837  0
F  F63  1  0.85433547  0.24626734  0.29578684  1  0  -0.166199  0  1.266685  0  0  -0.108328  0  1.430507  0  0  -0.116912  0  1.420344  0  0  -0.084399  -0.102163  0  1.437831  0
F  F64  1  0.93020636  0.74651958  0.00968637  1  0  -0.182196  0  1.197866  0  0  -0.12771  0  1.348902  0  0  -0.135361  0  1.338879  0  0  -0.094664  -0.122175  0  1.355941  0
F  F65  1  0.56979373  0.99031301  0.25348278  1  0  -0.182293  0  1.197796  0  0  -0.127767  0  1.348882  0  0  -0.135419  0  1.33886  0  0  -0.094713  -0.122233  0  1.355922  0
F  F66  1  0.06979218  0.25348241  0.99031409  1  0  -0.182249  0  1.197813  0  0  -0.127752  0  1.348884  0  0  -0.135404  0  1.338863  0  0  -0.094702  -0.122218  0  1.355924  0
F  F67  1  0.43021177  0.00968142  0.74651759  1  0  -0.182224  0  1.197782  0  0  -0.127725  0  1.348858  0  0  -0.135377  0  1.338836  0  0  -0.094632  -0.12219  0  1.355896  0
F  F68  1  0.38929442  0.40855957  0.99295073  1  0  -0.183803  0  1.244563  0  0  -0.127944  0  1.410008  0  0  -0.136813  0  1.400482  0  0  -0.087592  -0.12151  0  1.416611  0
F  F69  1  0.11070328  0.00705046  0.59144140  1  0  -0.183728  0  1.244574  0  0  -0.127934  0  1.41003  0  0  -0.136803  0  1.400505  0  0  -0.087589  -0.121498  0  1.416635  0
F  F70  1  0.61069904  0.59144052  0.00704877  1  0  -0.183762  0  1.244621  0  0  -0.127916  0  1.410056  0  0  -0.136785  0  1.400531  0  0  -0.087587  -0.121481  0  1.416661  0
F  F71  1  0.88930088  0.99295059  0.40855871  1  0  -0.183783  0  1.244604  0  0  -0.127948  0  1.410046  0  0  -0.136817  0  1.400521  0  0  -0.087612  -0.121513  0  1.416651  0
