# generated using pymatgen
data_ZnH12C14S2(NO2)2
_symmetry_space_group_name_H-M   'P 1'
_cell_length_a   8.90306077
_cell_length_b   13.19787983
_cell_length_c   16.09049071
_cell_angle_alpha   90.00036660
_cell_angle_beta   90.00098947
_cell_angle_gamma   106.06746980
_symmetry_Int_Tables_number   1
_chemical_formula_structural   ZnH12C14S2(NO2)2
_chemical_formula_sum   'Zn4 H48 C56 S8 N8 O16'
_cell_volume   1816.80142613
_cell_formula_units_Z   4
loop_
 _symmetry_equiv_pos_site_id
 _symmetry_equiv_pos_as_xyz
  1  'x, y, z'
loop_
 _atom_site_type_symbol
 _atom_site_label
 _atom_site_symmetry_multiplicity
 _atom_site_fract_x
 _atom_site_fract_y
 _atom_site_fract_z
 _atom_site_occupancy
 _atom_site_hle17_bader_spin_density
 _atom_site_hle17_ddec_charge
 _atom_site_hle17_ddec_spin_density
 _atom_site_hle17_ddec_sum_bond_order
 _atom_site_hle17_magmom
 _atom_site_hse06_10hf_bader_spin_density
 _atom_site_hse06_10hf_ddec_charge
 _atom_site_hse06_10hf_ddec_spin_density
 _atom_site_hse06_10hf_ddec_sum_bond_order
 _atom_site_hse06_10hf_magmom
 _atom_site_hse06_bader_spin_density
 _atom_site_hse06_ddec_charge
 _atom_site_hse06_ddec_spin_density
 _atom_site_hse06_ddec_sum_bond_order
 _atom_site_hse06_magmom
 _atom_site_pbe_bader_spin_density
 _atom_site_pbe_cm5_charge
 _atom_site_pbe_ddec_charge
 _atom_site_pbe_ddec_spin_density
 _atom_site_pbe_ddec_sum_bond_order
 _atom_site_pbe_magmom
Zn  Zn0  1  0.63864839  0.72777107  0.48983087  1  0  0.986205  0  1.872108  0  0  0.787772  0  2.354572  0  0  0.834446  0  2.301508  0  0  0.691424  0.755395  0  2.390873  0
Zn  Zn1  1  0.13864645  0.72777258  0.01017191  1  0  0.986065  0  1.872289  0  0  0.787565  0  2.354745  0  0  0.834244  0  2.301689  0  0  0.691358  0.755188  0  2.391044  0
Zn  Zn2  1  0.36135822  0.27222307  0.51016772  1  0  0.986188  0  1.872243  0  0  0.787653  0  2.354705  0  0  0.834331  0  2.301649  0  0  0.691372  0.755278  0  2.391  0
Zn  Zn3  1  0.86135599  0.27223511  0.98982420  1  0  0.986027  0  1.872291  0  0  0.787613  0  2.354737  0  0  0.834285  0  2.301667  0  0  0.691433  0.755234  0  2.391031  0
H  H4  1  0.50038543  0.14064704  0.61171373  1  0  0.087674  0  0.936616  0  0  0.099309  0  0.99235  0  0  0.101583  0  0.990402  0  0  0.122615  0.097558  0  0.993856  0
H  H5  1  0.00037265  0.14065852  0.88827346  1  0  0.087776  0  0.936562  0  0  0.099364  0  0.99236  0  0  0.101642  0  0.990408  0  0  0.122667  0.097611  0  0.993868  0
H  H6  1  0.49961020  0.85935281  0.38828548  1  0  0.087678  0  0.936578  0  0  0.09932  0  0.99231  0  0  0.101594  0  0.990361  0  0  0.122624  0.097569  0  0.993817  0
H  H7  1  0.99960189  0.85934957  0.11171456  1  0  0.087713  0  0.936519  0  0  0.099328  0  0.992276  0  0  0.101603  0  0.990328  0  0  0.122585  0.097565  0  0.993799  0
H  H8  1  0.45436955  0.95180532  0.64733417  1  0  0.117593  0  0.924485  0  0  0.132632  0  0.972892  0  0  0.136023  0  0.972314  0  0  0.114035  0.130165  0  0.973544  0
H  H9  1  0.95435728  0.95181698  0.85265532  1  0  0.117511  0  0.92459  0  0  0.132594  0  0.972923  0  0  0.135977  0  0.972355  0  0  0.113969  0.130126  0  0.97358  0
H  H10  1  0.54562608  0.04819453  0.35266877  1  0  0.117608  0  0.924464  0  0  0.132618  0  0.972898  0  0  0.135998  0  0.972334  0  0  0.114048  0.130154  0  0.973548  0
H  H11  1  0.04561983  0.04819187  0.14733270  1  0  0.117584  0  0.92442  0  0  0.13258  0  0.972879  0  0  0.135967  0  0.972308  0  0  0.114027  0.130115  0  0.973529  0
H  H12  1  0.10190312  0.88042708  0.45311511  1  0  0.120022  0  0.943538  0  0  0.134777  0  0.993355  0  0  0.137758  0  0.9931  0  0  0.115282  0.132598  0  0.993779  0
H  H13  1  0.60190962  0.88044167  0.04687319  1  0  0.120075  0  0.943815  0  0  0.134874  0  0.993546  0  0  0.137857  0  0.993293  0  0  0.115354  0.132696  0  0.993968  0
H  H14  1  0.89811026  0.11956458  0.54687664  1  0  0.120136  0  0.943591  0  0  0.134888  0  0.993397  0  0  0.137871  0  0.993141  0  0  0.115315  0.132711  0  0.993822  0
H  H15  1  0.39808551  0.11956215  0.95312478  1  0  0.120071  0  0.943783  0  0  0.134834  0  0.993555  0  0  0.137816  0  0.993302  0  0  0.115329  0.132658  0  0.993978  0
H  H16  1  0.15954683  0.07273867  0.42871503  1  0  0.092825  0  0.946936  0  0  0.103188  0  1.005098  0  0  0.106183  0  1.002187  0  0  0.119605  0.100958  0  1.007255  0
H  H17  1  0.65954566  0.07275454  0.07127087  1  0  0.092765  0  0.947002  0  0  0.10315  0  1.005171  0  0  0.106139  0  1.002265  0  0  0.119565  0.10092  0  1.007327  0
H  H18  1  0.84047136  0.92725371  0.57127175  1  0  0.092867  0  0.946999  0  0  0.103232  0  1.005171  0  0  0.106225  0  1.00226  0  0  0.119587  0.101002  0  1.007328  0
H  H19  1  0.34044793  0.92725089  0.92872461  1  0  0.092876  0  0.946952  0  0  0.103202  0  1.005164  0  0  0.106197  0  1.00225  0  0  0.11958  0.10097  0  1.007322  0
H  H20  1  0.07253048  0.61252785  0.53805948  1  0  0.13538  0  0.906496  0  0  0.154059  0  0.956542  0  0  0.156294  0  0.955663  0  0  0.114972  0.15244  0  0.957271  0
H  H21  1  0.57252559  0.61254347  0.96193954  1  0  0.135525  0  0.906154  0  0  0.154105  0  0.956345  0  0  0.156338  0  0.955482  0  0  0.114978  0.152502  0  0.957054  0
H  H22  1  0.92748582  0.38746535  0.46194470  1  0  0.135492  0  0.906321  0  0  0.154126  0  0.956445  0  0  0.156359  0  0.955591  0  0  0.115034  0.152526  0  0.957151  0
H  H23  1  0.42748140  0.38746177  0.03805905  1  0  0.135501  0  0.906257  0  0  0.154141  0  0.956357  0  0  0.156366  0  0.955507  0  0  0.114991  0.152521  0  0.957087  0
H  H24  1  0.12377576  0.70111639  0.45394941  1  0  0.135957  0  0.913554  0  0  0.148535  0  0.970763  0  0  0.15157  0  0.96843  0  0  0.111457  0.146356  0  0.972497  0
H  H25  1  0.62379590  0.70113395  0.04605309  1  0  0.13592  0  0.913569  0  0  0.148559  0  0.970703  0  0  0.151579  0  0.968401  0  0  0.111456  0.14638  0  0.972438  0
H  H26  1  0.87623384  0.29887691  0.54605353  1  0  0.135918  0  0.913598  0  0  0.148515  0  0.970778  0  0  0.151559  0  0.968452  0  0  0.111457  0.146338  0  0.972511  0
H  H27  1  0.37621290  0.29887285  0.95394923  1  0  0.135968  0  0.913527  0  0  0.148566  0  0.970704  0  0  0.151599  0  0.968388  0  0  0.111449  0.146386  0  0.972436  0
H  H28  1  0.11437409  0.46008799  0.01659912  1  0  0.087728  0  0.94289  0  0  0.095871  0  1.008349  0  0  0.098867  0  1.00506  0  0  0.115779  0.09364  0  1.010771  0
H  H29  1  0.61438833  0.46008938  0.48340204  1  0  0.087739  0  0.942628  0  0  0.095838  0  1.008141  0  0  0.09884  0  1.004861  0  0  0.115776  0.093605  0  1.010566  0
H  H30  1  0.88561820  0.53991191  0.98340258  1  0  0.087651  0  0.942787  0  0  0.095792  0  1.008271  0  0  0.098797  0  1.004989  0  0  0.115756  0.093561  0  1.010695  0
H  H31  1  0.38562639  0.53991813  0.51660338  1  0  0.087707  0  0.943093  0  0  0.095834  0  1.008556  0  0  0.098837  0  1.005272  0  0  0.11578  0.093603  0  1.010978  0
H  H32  1  0.27435458  0.55771736  0.12963086  1  0  0.124325  0  0.983953  0  0  0.131189  0  1.048295  0  0  0.135371  0  1.046256  0  0  0.106628  0.128181  0  1.049903  0
H  H33  1  0.77435657  0.55771163  0.37036610  1  0  0.124304  0  0.983905  0  0  0.131134  0  1.048286  0  0  0.135315  0  1.046246  0  0  0.106659  0.128127  0  1.049892  0
H  H34  1  0.72563135  0.44228342  0.87037332  1  0  0.124357  0  0.983909  0  0  0.131203  0  1.048258  0  0  0.135384  0  1.046219  0  0  0.106656  0.128192  0  1.049868  0
H  H35  1  0.22565607  0.44229115  0.62963311  1  0  0.124293  0  0.984057  0  0  0.131204  0  1.048356  0  0  0.135386  0  1.046317  0  0  0.106666  0.128197  0  1.049961  0
H  H36  1  0.00958762  0.31563475  0.29858032  1  0  0.11293  0  0.991422  0  0  0.118462  0  1.059497  0  0  0.122426  0  1.058043  0  0  0.09641  0.115619  0  1.060693  0
H  H37  1  0.50958695  0.31562724  0.20141847  1  0  0.112944  0  0.991509  0  0  0.11858  0  1.059453  0  0  0.122544  0  1.057997  0  0  0.09644  0.115739  0  1.060643  0
H  H38  1  0.99039500  0.68435338  0.70142199  1  0  0.112961  0  0.991576  0  0  0.118524  0  1.059583  0  0  0.122487  0  1.058129  0  0  0.096444  0.11568  0  1.06078  0
H  H39  1  0.49043143  0.68437069  0.79858758  1  0  0.112881  0  0.99138  0  0  0.118458  0  1.059431  0  0  0.122423  0  1.057977  0  0  0.096434  0.115613  0  1.060629  0
H  H40  1  0.84718342  0.23640892  0.17753122  1  0  0.084827  0  0.926781  0  0  0.097117  0  0.984337  0  0  0.099753  0  0.981435  0  0  0.116819  0.09512  0  0.986504  0
H  H41  1  0.34719549  0.23640235  0.32246166  1  0  0.084746  0  0.926757  0  0  0.096978  0  0.984379  0  0  0.099657  0  0.981428  0  0  0.116783  0.09499  0  0.98655  0
H  H42  1  0.15280513  0.76357993  0.82246115  1  0  0.084823  0  0.926906  0  0  0.097103  0  0.984472  0  0  0.099751  0  0.981559  0  0  0.116813  0.095114  0  0.986643  0
H  H43  1  0.65282694  0.76359711  0.67753941  1  0  0.084729  0  0.926732  0  0  0.097048  0  0.984265  0  0  0.099662  0  0.981393  0  0  0.116756  0.095053  0  0.986433  0
H  H44  1  0.46491409  0.58860255  0.21710276  1  0  0.114027  0  0.955679  0  0  0.12318  0  1.023088  0  0  0.125222  0  1.022526  0  0  0.099739  0.121827  0  1.023462  0
H  H45  1  0.96490878  0.58860430  0.28290176  1  0  0.114026  0  0.955685  0  0  0.123184  0  1.023079  0  0  0.125227  0  1.022513  0  0  0.099753  0.121837  0  1.023456  0
H  H46  1  0.53506114  0.41138411  0.78290639  1  0  0.113895  0  0.955689  0  0  0.12305  0  1.023114  0  0  0.125087  0  1.022558  0  0  0.099656  0.121697  0  1.023485  0
H  H47  1  0.03510409  0.41141435  0.71710615  1  0  0.113964  0  0.95559  0  0  0.123147  0  1.023019  0  0  0.125153  0  1.022467  0  0  0.099735  0.121806  0  1.023398  0
H  H48  1  0.34242825  0.67310220  0.23771458  1  0  0.151885  0  0.935915  0  0  0.166286  0  0.989701  0  0  0.169206  0  0.987857  0  0  0.110648  0.164258  0  0.99105  0
H  H49  1  0.84242498  0.67309725  0.26228239  1  0  0.151884  0  0.936021  0  0  0.166249  0  0.989828  0  0  0.169168  0  0.987987  0  0  0.110619  0.164227  0  0.991179  0
H  H50  1  0.65755226  0.32689390  0.76229395  1  0  0.151988  0  0.935968  0  0  0.166359  0  0.989745  0  0  0.169275  0  0.987903  0  0  0.110779  0.164328  0  0.991089  0
H  H51  1  0.15758228  0.32691116  0.73772179  1  0  0.151839  0  0.936022  0  0  0.166267  0  0.989814  0  0  0.169172  0  0.987956  0  0  0.11067  0.164251  0  0.991168  0
C  C52  1  0.41273528  0.08012119  0.57864145  1  0  0.14504  0  3.721759  0  0  0.109758  0  3.97758  0  0  0.119442  0  3.994396  0  0  0.045799  0.103455  0  3.966209  0
C  C53  1  0.91272867  0.08013064  0.92134561  1  0  0.144732  0  3.721672  0  0  0.109467  0  3.977541  0  0  0.119147  0  3.994356  0  0  0.045657  0.103169  0  3.966166  0
C  C54  1  0.58726705  0.91987857  0.42135528  1  0  0.145152  0  3.721566  0  0  0.109871  0  3.977399  0  0  0.119555  0  3.994207  0  0  0.045807  0.103568  0  3.966032  0
C  C55  1  0.08725298  0.91987575  0.07864304  1  0  0.144946  0  3.721539  0  0  0.109676  0  3.977352  0  0  0.119358  0  3.994166  0  0  0.045721  0.103382  0  3.965986  0
C  C56  1  0.38655737  0.97481480  0.59800415  1  0  -0.171573  0  3.726965  0  0  -0.189107  0  3.976561  0  0  -0.198674  0  3.996764  0  0  -0.089576  -0.182999  0  3.96318  0
C  C57  1  0.88655735  0.97482783  0.90198419  1  0  -0.171246  0  3.727313  0  0  -0.188716  0  3.976787  0  0  -0.198281  0  3.996986  0  0  -0.089331  -0.182589  0  3.963422  0
C  C58  1  0.61344246  0.02518182  0.40199320  1  0  -0.171501  0  3.727037  0  0  -0.18896  0  3.976574  0  0  -0.198516  0  3.996779  0  0  -0.089499  -0.182864  0  3.963183  0
C  C59  1  0.11343023  0.02517928  0.09800694  1  0  -0.171321  0  3.726999  0  0  -0.188768  0  3.976512  0  0  -0.198329  0  3.996718  0  0  -0.089398  -0.182651  0  3.963134  0
C  C60  1  0.27108133  0.89841963  0.55450752  1  0  0.092865  0  3.79998  0  0  0.105772  0  4.061395  0  0  0.115232  0  4.081098  0  0  0.013529  0.099457  0  4.047993  0
C  C61  1  0.77108922  0.89843480  0.94548181  1  0  0.092808  0  3.800337  0  0  0.105572  0  4.061936  0  0  0.115057  0  4.081606  0  0  0.0134  0.099196  0  4.048615  0
C  C62  1  0.72892373  0.10157612  0.44548920  1  0  0.092809  0  3.800084  0  0  0.105688  0  4.061531  0  0  0.115148  0  4.081234  0  0  0.013492  0.099402  0  4.04809  0
C  C63  1  0.22890730  0.10157217  0.05451367  1  0  0.092673  0  3.800297  0  0  0.105517  0  4.061758  0  0  0.114978  0  4.08146  0  0  0.013408  0.09917  0  4.048404  0
C  C64  1  0.19081313  0.93424944  0.49056947  1  0  -0.171314  0  3.717279  0  0  -0.190002  0  3.965013  0  0  -0.199706  0  3.986442  0  0  -0.09103  -0.183853  0  3.950792  0
C  C65  1  0.69081745  0.93426427  0.00942057  1  0  -0.171624  0  3.717879  0  0  -0.190268  0  3.965627  0  0  -0.199983  0  3.987053  0  0  -0.091145  -0.184098  0  3.951422  0
C  C66  1  0.80920345  0.06574694  0.50942414  1  0  -0.171605  0  3.717596  0  0  -0.190294  0  3.965366  0  0  -0.200002  0  3.9868  0  0  -0.091069  -0.184153  0  3.951137  0
C  C67  1  0.30917830  0.06574351  0.99057677  1  0  -0.171426  0  3.71774  0  0  -0.190075  0  3.965435  0  0  -0.199782  0  3.986869  0  0  -0.091078  -0.183911  0  3.95121  0
C  C68  1  0.22337084  0.04172091  0.47567342  1  0  0.133069  0  3.713022  0  0  0.101646  0  3.96303  0  0  0.110573  0  3.980197  0  0  0.046277  0.095936  0  3.951305  0
C  C69  1  0.72337426  0.04173519  0.02431541  1  0  0.13319  0  3.713172  0  0  0.101708  0  3.963244  0  0  0.110641  0  3.980415  0  0  0.046221  0.096  0  3.951511  0
C  C70  1  0.77664358  0.95827312  0.52432082  1  0  0.133133  0  3.713251  0  0  0.101724  0  3.963272  0  0  0.110656  0  3.980438  0  0  0.046193  0.096015  0  3.951547  0
C  C71  1  0.27662672  0.95827172  0.97567945  1  0  0.133068  0  3.713043  0  0  0.101659  0  3.963046  0  0  0.110588  0  3.98021  0  0  0.046226  0.095954  0  3.95132  0
C  C72  1  0.08755571  0.69503299  0.51943883  1  0  -0.306546  0  3.64592  0  0  -0.341993  0  3.909212  0  0  -0.345742  0  3.913652  0  0  -0.146649  -0.339433  0  3.906002  0
C  C73  1  0.58756545  0.69505503  0.98056138  1  0  -0.30652  0  3.645701  0  0  -0.341949  0  3.908995  0  0  -0.345719  0  3.913504  0  0  -0.146533  -0.339412  0  3.905809  0
C  C74  1  0.91245406  0.30495555  0.48056224  1  0  -0.306569  0  3.646014  0  0  -0.341989  0  3.909261  0  0  -0.345793  0  3.913781  0  0  -0.146693  -0.339458  0  3.906079  0
C  C75  1  0.41244042  0.30495023  0.01943969  1  0  -0.306603  0  3.645928  0  0  -0.342025  0  3.90916  0  0  -0.345803  0  3.913671  0  0  -0.146548  -0.339475  0  3.905973  0
C  C76  1  0.93041386  0.72040161  0.52988943  1  0  0.671821  0  3.916666  0  0  0.623913  0  4.222045  0  0  0.656487  0  4.216522  0  0  0.192328  0.601847  0  4.22492  0
C  C77  1  0.43042274  0.72042593  0.97011167  1  0  0.671532  0  3.916915  0  0  0.623655  0  4.222286  0  0  0.656244  0  4.216763  0  0  0.192133  0.601588  0  4.22516  0
C  C78  1  0.06959074  0.27958542  0.47011102  1  0  0.671326  0  3.916888  0  0  0.623427  0  4.22229  0  0  0.656016  0  4.216776  0  0  0.192023  0.601359  0  4.22516  0
C  C79  1  0.56958116  0.27958253  0.02988070  1  0  0.671508  0  3.916948  0  0  0.62366  0  4.222264  0  0  0.656252  0  4.216736  0  0  0.192102  0.601591  0  4.225133  0
C  C80  1  0.09244401  0.43235413  0.08046026  1  0  0.134173  0  3.724606  0  0  0.100087  0  3.982294  0  0  0.109834  0  3.997656  0  0  0.037382  0.093698  0  3.971988  0
C  C81  1  0.59245801  0.43235692  0.41953433  1  0  0.134239  0  3.724694  0  0  0.100149  0  3.982347  0  0  0.109882  0  3.997719  0  0  0.037318  0.09376  0  3.972039  0
C  C82  1  0.90754215  0.56763951  0.91953646  1  0  0.134192  0  3.724977  0  0  0.100069  0  3.98263  0  0  0.1098  0  3.998004  0  0  0.037274  0.09368  0  3.972324  0
C  C83  1  0.40755852  0.56765215  0.58046053  1  0  0.134298  0  3.724526  0  0  0.100245  0  3.982164  0  0  0.109982  0  3.997531  0  0  0.037394  0.093853  0  3.971863  0
C  C84  1  0.18469762  0.48558031  0.14469567  1  0  -0.180527  0  3.712502  0  0  -0.197204  0  3.961316  0  0  -0.20676  0  3.981647  0  0  -0.098713  -0.191118  0  3.947956  0
C  C85  1  0.68469689  0.48557200  0.35530007  1  0  -0.18031  0  3.712869  0  0  -0.19694  0  3.961644  0  0  -0.206497  0  3.981975  0  0  -0.098644  -0.190852  0  3.948278  0
C  C86  1  0.81529716  0.51442273  0.85530851  1  0  -0.18053  0  3.71283  0  0  -0.197119  0  3.961715  0  0  -0.206674  0  3.982049  0  0  -0.098728  -0.191032  0  3.948356  0
C  C87  1  0.31530517  0.51442459  0.64470225  1  0  -0.18047  0  3.712378  0  0  -0.197182  0  3.961194  0  0  -0.206744  0  3.981531  0  0  -0.09874  -0.191093  0  3.94783  0
C  C88  1  0.15545107  0.44679311  0.22633061  1  0  0.088957  0  3.77976  0  0  0.10279  0  4.036736  0  0  0.111633  0  4.057059  0  0  0.008995  0.096851  0  4.022944  0
C  C89  1  0.65546309  0.44678891  0.27366963  1  0  0.088899  0  3.779866  0  0  0.102739  0  4.036838  0  0  0.111588  0  4.057147  0  0  0.008919  0.096802  0  4.023045  0
C  C90  1  0.84452324  0.55319912  0.77367358  1  0  0.089121  0  3.7793  0  0  0.102729  0  4.036574  0  0  0.111569  0  4.056898  0  0  0.008938  0.096796  0  4.022777  0
C  C91  1  0.34455799  0.55321771  0.72633393  1  0  0.088872  0  3.779691  0  0  0.102659  0  4.036717  0  0  0.111502  0  4.057041  0  0  0.008929  0.096722  0  4.022923  0
C  C92  1  0.03411981  0.35290659  0.23770234  1  0  -0.177921  0  3.722805  0  0  -0.194833  0  3.975502  0  0  -0.20402  0  3.99522  0  0  -0.098253  -0.188953  0  3.962414  0
C  C93  1  0.53412325  0.35290155  0.26229128  1  0  -0.178033  0  3.722588  0  0  -0.195057  0  3.975277  0  0  -0.204247  0  3.995005  0  0  -0.098216  -0.189176  0  3.962191  0
C  C94  1  0.96586023  0.64708079  0.76229252  1  0  -0.178066  0  3.722307  0  0  -0.194961  0  3.975197  0  0  -0.204148  0  3.994917  0  0  -0.098269  -0.189083  0  3.962115  0
C  C95  1  0.46589506  0.64709877  0.73770109  1  0  -0.177664  0  3.72258  0  0  -0.194633  0  3.975342  0  0  -0.203821  0  3.995059  0  0  -0.098112  -0.188751  0  3.96225  0
C  C96  1  0.94558580  0.30646044  0.17008710  1  0  0.125344  0  3.756104  0  0  0.087221  0  4.020309  0  0  0.096603  0  4.03645  0  0  0.036006  0.081209  0  4.009188  0
C  C97  1  0.44558819  0.30645175  0.32990646  1  0  0.125764  0  3.755755  0  0  0.087662  0  4.019947  0  0  0.097011  0  4.036078  0  0  0.036106  0.081638  0  4.008839  0
C  C98  1  0.05441102  0.69353701  0.82991025  1  0  0.125616  0  3.755753  0  0  0.087442  0  4.019967  0  0  0.096818  0  4.036101  0  0  0.036101  0.081417  0  4.008863  0
C  C99  1  0.55441653  0.69354321  0.67009151  1  0  0.12555  0  3.756269  0  0  0.087398  0  4.020454  0  0  0.096793  0  4.036604  0  0  0.036115  0.081384  0  4.009334  0
C  C100  1  0.40138820  0.61811181  0.26568403  1  0  -0.316791  0  3.627363  0  0  -0.346551  0  3.872656  0  0  -0.351468  0  3.878998  0  0  -0.153167  -0.343368  0  3.86838  0
C  C101  1  0.90138596  0.61811118  0.23431694  1  0  -0.31681  0  3.627543  0  0  -0.346507  0  3.872851  0  0  -0.351428  0  3.879194  0  0  -0.153146  -0.343354  0  3.868609  0
C  C102  1  0.59858953  0.38187798  0.73432450  1  0  -0.316747  0  3.627653  0  0  -0.346448  0  3.872931  0  0  -0.35136  0  3.879275  0  0  -0.15321  -0.343249  0  3.868629  0
C  C103  1  0.09862441  0.38190433  0.76569284  1  0  -0.316572  0  3.627606  0  0  -0.346509  0  3.873033  0  0  -0.351323  0  3.879274  0  0  -0.153181  -0.343389  0  3.868831  0
C  C104  1  0.51924133  0.67686020  0.32969708  1  0  0.697471  0  3.889791  0  0  0.652696  0  4.189077  0  0  0.685343  0  4.182923  0  0  0.196574  0.630509  0  4.192535  0
C  C105  1  0.01924094  0.67686416  0.17031051  1  0  0.697416  0  3.890555  0  0  0.652538  0  4.189981  0  0  0.685193  0  4.183829  0  0  0.196559  0.630359  0  4.193438  0
C  C106  1  0.48073464  0.32311534  0.67031518  1  0  0.697101  0  3.890572  0  0  0.652246  0  4.189973  0  0  0.684899  0  4.183821  0  0  0.196286  0.630057  0  4.19343  0
C  C107  1  0.98077032  0.32315847  0.82969616  1  0  0.696881  0  3.891068  0  0  0.652316  0  4.190094  0  0  0.684933  0  4.183948  0  0  0.196347  0.630144  0  4.193551  0
S  S108  1  0.24233311  0.76881658  0.58530661  1  0  0.081856  0  2.497679  0  0  0.078602  0  2.834893  0  0  0.071544  0  2.837946  0  0  0.053295  0.083821  0  2.83263  0
S  S109  1  0.74233665  0.76882658  0.91468924  1  0  0.081858  0  2.49772  0  0  0.078657  0  2.834985  0  0  0.071611  0  2.838034  0  0  0.053288  0.083899  0  2.832751  0
S  S110  1  0.75766560  0.23118005  0.41469944  1  0  0.081985  0  2.497734  0  0  0.078723  0  2.834955  0  0  0.07169  0  2.838026  0  0  0.053354  0.083932  0  2.832693  0
S  S111  1  0.25767033  0.23117865  0.08530935  1  0  0.081998  0  2.497723  0  0  0.078738  0  2.834955  0  0  0.071703  0  2.838013  0  0  0.053339  0.083969  0  2.832703  0
S  S112  1  0.25636027  0.50903064  0.31301474  1  0  0.074039  0  2.414482  0  0  0.073911  0  2.740151  0  0  0.067004  0  2.743261  0  0  0.035678  0.078941  0  2.737996  0
S  S113  1  0.75635417  0.50902457  0.18698615  1  0  0.07403  0  2.414443  0  0  0.073892  0  2.740094  0  0  0.066977  0  2.743208  0  0  0.035647  0.078932  0  2.737949  0
S  S114  1  0.74361677  0.49095758  0.68699068  1  0  0.074035  0  2.414399  0  0  0.073966  0  2.740156  0  0  0.06707  0  2.743245  0  0  0.035729  0.07899  0  2.737993  0
S  S115  1  0.24365574  0.49098221  0.81301927  1  0  0.074096  0  2.414546  0  0  0.07402  0  2.740299  0  0  0.067098  0  2.743349  0  0  0.035719  0.079069  0  2.738166  0
N  N116  1  0.33130627  0.11450804  0.51908672  1  0  -0.353988  0  3.316418  0  0  -0.27029  0  3.606129  0  0  -0.2899  0  3.617839  0  0  -0.342825  -0.257191  0  3.597979  0
N  N117  1  0.83130294  0.11452075  0.98089974  1  0  -0.353876  0  3.316004  0  0  -0.270211  0  3.605777  0  0  -0.28982  0  3.617483  0  0  -0.34277  -0.257115  0  3.597638  0
N  N118  1  0.66870103  0.88548768  0.48090441  1  0  -0.354166  0  3.316165  0  0  -0.270552  0  3.605995  0  0  -0.290161  0  3.617697  0  0  -0.342831  -0.257452  0  3.59785  0
N  N119  1  0.16868456  0.88548874  0.01909201  1  0  -0.35409  0  3.316165  0  0  -0.270406  0  3.605887  0  0  -0.290018  0  3.617597  0  0  -0.342756  -0.257305  0  3.597731  0
N  N120  1  0.97318899  0.34478267  0.09196728  1  0  -0.380967  0  3.399881  0  0  -0.298716  0  3.692624  0  0  -0.318872  0  3.70628  0  0  -0.353713  -0.285193  0  3.683136  0
N  N121  1  0.47320378  0.34478135  0.40802425  1  0  -0.381503  0  3.399992  0  0  -0.29916  0  3.69265  0  0  -0.31932  0  3.70632  0  0  -0.35376  -0.28564  0  3.683181  0
N  N122  1  0.02680267  0.65521328  0.90803131  1  0  -0.381181  0  3.399813  0  0  -0.298783  0  3.69245  0  0  -0.318948  0  3.706125  0  0  -0.353612  -0.285257  0  3.682959  0
N  N123  1  0.52681094  0.65522616  0.59197247  1  0  -0.381319  0  3.400005  0  0  -0.299105  0  3.692821  0  0  -0.319256  0  3.70646  0  0  -0.353829  -0.285585  0  3.683351  0
O  O124  1  0.90330504  0.77018626  0.59137730  1  0  -0.620837  0  1.93782  0  0  -0.576072  0  2.16476  0  0  -0.599081  0  2.15664  0  0  -0.320197  -0.559973  0  2.169793  0
O  O125  1  0.40331746  0.77021275  0.90862940  1  0  -0.620586  0  1.937792  0  0  -0.575862  0  2.164783  0  0  -0.598867  0  2.156668  0  0  -0.32007  -0.559764  0  2.169816  0
O  O126  1  0.09667847  0.22978600  0.40862501  1  0  -0.620458  0  1.937621  0  0  -0.575714  0  2.164569  0  0  -0.598723  0  2.156462  0  0  -0.319979  -0.559615  0  2.169595  0
O  O127  1  0.59669191  0.22978769  0.09136670  1  0  -0.620738  0  1.937604  0  0  -0.57601  0  2.164549  0  0  -0.599017  0  2.156426  0  0  -0.320118  -0.559908  0  2.169578  0
O  O128  1  0.83425945  0.68558772  0.46949297  1  0  -0.633599  0  2.021967  0  0  -0.557677  0  2.286707  0  0  -0.586553  0  2.272882  0  0  -0.329067  -0.537517  0  2.295453  0
O  O129  1  0.33427502  0.68561229  0.03051020  1  0  -0.633505  0  2.021974  0  0  -0.557633  0  2.286805  0  0  -0.586509  0  2.272966  0  0  -0.329012  -0.537468  0  2.295551  0
O  O130  1  0.16575747  0.31440945  0.53049878  1  0  -0.633535  0  2.022153  0  0  -0.557574  0  2.286858  0  0  -0.586449  0  2.273025  0  0  -0.328987  -0.53741  0  2.295601  0
O  O131  1  0.66573331  0.31440880  0.96949025  1  0  -0.63339  0  2.02214  0  0  -0.557568  0  2.286971  0  0  -0.586445  0  2.27314  0  0  -0.328983  -0.537405  0  2.295711  0
O  O132  1  0.47488278  0.66206923  0.40686104  1  0  -0.672463  0  2.043213  0  0  -0.596065  0  2.318336  0  0  -0.625169  0  2.304229  0  0  -0.343179  -0.575625  0  2.327222  0
O  O133  1  0.97488620  0.66208379  0.09314769  1  0  -0.672487  0  2.043761  0  0  -0.596018  0  2.318879  0  0  -0.625116  0  2.304735  0  0  -0.343207  -0.575578  0  2.327761  0
O  O134  1  0.52510639  0.33790056  0.59315308  1  0  -0.672412  0  2.043625  0  0  -0.595934  0  2.318723  0  0  -0.625039  0  2.304585  0  0  -0.343163  -0.575495  0  2.327609  0
O  O135  1  0.02513803  0.33794024  0.90686768  1  0  -0.672301  0  2.043427  0  0  -0.595959  0  2.318424  0  0  -0.625055  0  2.30432  0  0  -0.343155  -0.575515  0  2.327301  0
O  O136  1  0.64614490  0.73558613  0.30526477  1  0  -0.609442  0  1.864657  0  0  -0.570138  0  2.071841  0  0  -0.592327  0  2.063697  0  0  -0.33491  -0.55449  0  2.076877  0
O  O137  1  0.14614309  0.73558255  0.19475241  1  0  -0.609335  0  1.86484  0  0  -0.570008  0  2.072071  0  0  -0.592198  0  2.063922  0  0  -0.334877  -0.554359  0  2.077102  0
O  O138  1  0.35382517  0.26439902  0.69474190  1  0  -0.609241  0  1.864919  0  0  -0.569904  0  2.072102  0  0  -0.592094  0  2.063954  0  0  -0.334706  -0.55426  0  2.07714  0
O  O139  1  0.85386940  0.26444800  0.80526420  1  0  -0.609135  0  1.86547  0  0  -0.569917  0  2.072575  0  0  -0.592107  0  2.064454  0  0  -0.334746  -0.554268  0  2.0776  0
