# generated using pymatgen
data_ZnH8C12S(N2Cl)2
_symmetry_space_group_name_H-M   'P 1'
_cell_length_a   5.36936061
_cell_length_b   12.81026619
_cell_length_c   20.03866195
_cell_angle_alpha   100.75420385
_cell_angle_beta   90.00025937
_cell_angle_gamma   90.00000220
_symmetry_Int_Tables_number   1
_chemical_formula_structural   ZnH8C12S(N2Cl)2
_chemical_formula_sum   'Zn4 H32 C48 S4 N16 Cl8'
_cell_volume   1354.11025748
_cell_formula_units_Z   4
loop_
 _symmetry_equiv_pos_site_id
 _symmetry_equiv_pos_as_xyz
  1  'x, y, z'
loop_
 _atom_site_type_symbol
 _atom_site_label
 _atom_site_symmetry_multiplicity
 _atom_site_fract_x
 _atom_site_fract_y
 _atom_site_fract_z
 _atom_site_occupancy
 _atom_site_hle17_bader_spin_density
 _atom_site_hle17_ddec_charge
 _atom_site_hle17_ddec_spin_density
 _atom_site_hle17_ddec_sum_bond_order
 _atom_site_hle17_magmom
 _atom_site_hse06_10hf_bader_spin_density
 _atom_site_hse06_10hf_ddec_charge
 _atom_site_hse06_10hf_ddec_spin_density
 _atom_site_hse06_10hf_ddec_sum_bond_order
 _atom_site_hse06_10hf_magmom
 _atom_site_hse06_bader_spin_density
 _atom_site_hse06_ddec_charge
 _atom_site_hse06_ddec_spin_density
 _atom_site_hse06_ddec_sum_bond_order
 _atom_site_hse06_magmom
 _atom_site_pbe_bader_spin_density
 _atom_site_pbe_cm5_charge
 _atom_site_pbe_ddec_charge
 _atom_site_pbe_ddec_spin_density
 _atom_site_pbe_ddec_sum_bond_order
 _atom_site_pbe_magmom
Zn  Zn0  1  0.79818712  0.54333033  0.31972397  1  0  0.828138  0  2.156049  0  0  0.652947  0  2.651225  0  0  0.692408  0  2.606885  0  0  0.549527  0.625832  0  2.681371  0
Zn  Zn1  1  0.29818229  0.95666831  0.18027237  1  0  0.828077  0  2.156128  0  0  0.65285  0  2.651304  0  0  0.69232  0  2.606978  0  0  0.549483  0.625734  0  2.68146  0
Zn  Zn2  1  0.20181188  0.45666747  0.68027491  1  0  0.82808  0  2.156011  0  0  0.652863  0  2.651185  0  0  0.692325  0  2.606856  0  0  0.549492  0.62574  0  2.681344  0
Zn  Zn3  1  0.70181485  0.04332866  0.81972941  1  0  0.828056  0  2.156121  0  0  0.652886  0  2.651302  0  0  0.69234  0  2.606966  0  0  0.549492  0.625761  0  2.681465  0
H  H4  1  0.93943520  0.77013145  0.36090738  1  0  0.088735  0  0.941769  0  0  0.095395  0  1.008109  0  0  0.098095  0  1.005894  0  0  0.11243  0.093366  0  1.009838  0
H  H5  1  0.43943898  0.72986721  0.13909163  1  0  0.088734  0  0.941807  0  0  0.095389  0  1.008142  0  0  0.098086  0  1.005932  0  0  0.112419  0.093368  0  1.00985  0
H  H6  1  0.06055821  0.22986714  0.63909160  1  0  0.088762  0  0.941789  0  0  0.095413  0  1.008131  0  0  0.098111  0  1.005919  0  0  0.112427  0.093385  0  1.009846  0
H  H7  1  0.56056747  0.27012978  0.86090815  1  0  0.08875  0  0.941773  0  0  0.095407  0  1.008115  0  0  0.098105  0  1.005902  0  0  0.112446  0.093378  0  1.009834  0
H  H8  1  0.25034821  0.87924515  0.43735470  1  0  0.122959  0  0.971847  0  0  0.1231  0  1.047403  0  0  0.127625  0  1.044524  0  0  0.111968  0.11984  0  1.049589  0
H  H9  1  0.75035245  0.62075184  0.06264537  1  0  0.123036  0  0.971728  0  0  0.123172  0  1.047288  0  0  0.127698  0  1.044409  0  0  0.112002  0.119915  0  1.049472  0
H  H10  1  0.74966010  0.12074950  0.56264080  1  0  0.122898  0  0.971849  0  0  0.123072  0  1.047373  0  0  0.127596  0  1.044495  0  0  0.111978  0.119804  0  1.049557  0
H  H11  1  0.24965027  0.37924755  0.93735321  1  0  0.12301  0  0.971725  0  0  0.123147  0  1.047291  0  0  0.127672  0  1.044412  0  0  0.111998  0.119883  0  1.049472  0
H  H12  1  0.48864153  0.58850171  0.49899254  1  0  0.108486  0  0.960876  0  0  0.119699  0  1.020787  0  0  0.122622  0  1.01955  0  0  0.099501  0.117586  0  1.021875  0
H  H13  1  0.98865033  0.91149535  0.00100983  1  0  0.108508  0  0.960864  0  0  0.119719  0  1.020761  0  0  0.122643  0  1.019522  0  0  0.099478  0.117607  0  1.021839  0
H  H14  1  0.51135188  0.41149450  0.50100565  1  0  0.108499  0  0.960806  0  0  0.119725  0  1.020686  0  0  0.122648  0  1.019448  0  0  0.099496  0.117612  0  1.021775  0
H  H15  1  0.01134495  0.08850403  0.99898975  1  0  0.108508  0  0.960802  0  0  0.11973  0  1.020688  0  0  0.122654  0  1.019447  0  0  0.099462  0.117612  0  1.021773  0
H  H16  1  0.15323598  0.49415199  0.42476726  1  0  0.073573  0  0.955825  0  0  0.078748  0  1.027257  0  0  0.081364  0  1.024892  0  0  0.103999  0.07677  0  1.029067  0
H  H17  1  0.65324415  0.00584656  0.07523308  1  0  0.073457  0  0.95581  0  0  0.078658  0  1.027242  0  0  0.081253  0  1.024895  0  0  0.103975  0.07668  0  1.02904  0
H  H18  1  0.84674812  0.50584738  0.57523382  1  0  0.0735  0  0.955794  0  0  0.07868  0  1.027234  0  0  0.081292  0  1.024872  0  0  0.103984  0.076705  0  1.029049  0
H  H19  1  0.34674740  0.99415043  0.92476670  1  0  0.073528  0  0.955768  0  0  0.0787  0  1.02722  0  0  0.081315  0  1.024855  0  0  0.103982  0.076725  0  1.02903  0
H  H20  1  0.26078835  0.03314004  0.59132939  1  0  0.121862  0  0.97192  0  0  0.121308  0  1.048348  0  0  0.125799  0  1.045606  0  0  0.11058  0.118063  0  1.050467  0
H  H21  1  0.76078724  0.46686090  0.90867360  1  0  0.12191  0  0.971913  0  0  0.121356  0  1.048309  0  0  0.125848  0  1.045565  0  0  0.1106  0.11811  0  1.050424  0
H  H22  1  0.73921251  0.96685852  0.40867209  1  0  0.121934  0  0.971849  0  0  0.121351  0  1.048311  0  0  0.125842  0  1.04557  0  0  0.110613  0.11811  0  1.050432  0
H  H23  1  0.23921362  0.53314168  0.09132437  1  0  0.12197  0  0.971984  0  0  0.121402  0  1.048387  0  0  0.125897  0  1.045637  0  0  0.110632  0.118159  0  1.05051  0
H  H24  1  0.56788529  0.09491141  0.68490770  1  0  0.08828  0  0.943541  0  0  0.094733  0  1.01041  0  0  0.097462  0  1.008137  0  0  0.111503  0.092671  0  1.012153  0
H  H25  1  0.06788645  0.40509103  0.81509624  1  0  0.088373  0  0.943478  0  0  0.094795  0  1.010381  0  0  0.097523  0  1.008107  0  0  0.111512  0.092726  0  1.012128  0
H  H26  1  0.43210998  0.90508952  0.31509556  1  0  0.088332  0  0.9436  0  0  0.09475  0  1.01051  0  0  0.097476  0  1.008245  0  0  0.111525  0.092688  0  1.012268  0
H  H27  1  0.93210510  0.59491155  0.18490174  1  0  0.088294  0  0.943449  0  0  0.094737  0  1.010345  0  0  0.09746  0  1.008082  0  0  0.111513  0.092669  0  1.0121  0
H  H28  1  0.32928798  0.86885233  0.79365458  1  0  0.072879  0  0.961009  0  0  0.079452  0  1.030771  0  0  0.081999  0  1.028073  0  0  0.104216  0.077493  0  1.032886  0
H  H29  1  0.82929091  0.63114862  0.70634830  1  0  0.072972  0  0.960991  0  0  0.079542  0  1.030745  0  0  0.082094  0  1.028043  0  0  0.104262  0.077586  0  1.032858  0
H  H30  1  0.67070729  0.13114307  0.20634550  1  0  0.072905  0  0.960982  0  0  0.079416  0  1.030811  0  0  0.081987  0  1.028089  0  0  0.104223  0.077455  0  1.032921  0
H  H31  1  0.17070809  0.36885475  0.29365027  1  0  0.072944  0  0.960941  0  0  0.07944  0  1.03078  0  0  0.082013  0  1.028059  0  0  0.104232  0.077482  0  1.032889  0
H  H32  1  0.00202111  0.80229970  0.70873476  1  0  0.107932  0  0.95613  0  0  0.117443  0  1.019049  0  0  0.120506  0  1.0176  0  0  0.101  0.115221  0  1.020291  0
H  H33  1  0.50202174  0.69770190  0.79126881  1  0  0.10793  0  0.956177  0  0  0.117445  0  1.019075  0  0  0.12051  0  1.017626  0  0  0.100993  0.115222  0  1.020321  0
H  H34  1  0.99797789  0.19769729  0.29126503  1  0  0.107931  0  0.956198  0  0  0.117443  0  1.0191  0  0  0.120512  0  1.017657  0  0  0.100985  0.115221  0  1.02034  0
H  H35  1  0.49798657  0.30230462  0.20873215  1  0  0.108022  0  0.956098  0  0  0.117527  0  1.019001  0  0  0.120595  0  1.017557  0  0  0.101049  0.115306  0  1.020239  0
C  C36  1  0.06304807  0.73426493  0.39353844  1  0  0.142289  0  3.667763  0  0  0.107771  0  3.922213  0  0  0.115293  0  3.938447  0  0  0.047828  0.102864  0  3.911275  0
C  C37  1  0.56305491  0.76573198  0.10646189  1  0  0.142243  0  3.667804  0  0  0.10774  0  3.922181  0  0  0.115258  0  3.938415  0  0  0.047841  0.102836  0  3.91125  0
C  C38  1  0.93694906  0.26573208  0.60645985  1  0  0.142139  0  3.667909  0  0  0.107626  0  3.922309  0  0  0.115146  0  3.93854  0  0  0.047788  0.102714  0  3.91134  0
C  C39  1  0.43694967  0.23426579  0.89353948  1  0  0.142312  0  3.667815  0  0  0.107763  0  3.922243  0  0  0.115284  0  3.938475  0  0  0.047831  0.102858  0  3.911284  0
C  C40  1  0.23938413  0.79363827  0.43475577  1  0  -0.118896  0  3.63737  0  0  -0.140051  0  3.889116  0  0  -0.146197  0  3.907749  0  0  -0.073313  -0.136109  0  3.876731  0
C  C41  1  0.73938841  0.70636110  0.06524408  1  0  -0.118942  0  3.637433  0  0  -0.140133  0  3.889195  0  0  -0.146281  0  3.907828  0  0  -0.073333  -0.136187  0  3.876792  0
C  C42  1  0.76062605  0.20635954  0.56524161  1  0  -0.118774  0  3.637385  0  0  -0.13994  0  3.889095  0  0  -0.146088  0  3.90773  0  0  -0.073277  -0.136001  0  3.876728  0
C  C43  1  0.26061990  0.29363748  0.93475590  1  0  -0.118999  0  3.637497  0  0  -0.140134  0  3.889221  0  0  -0.146284  0  3.907855  0  0  -0.073333  -0.13621  0  3.876877  0
C  C44  1  0.39939419  0.74172747  0.47343998  1  0  0.084026  0  3.791676  0  0  0.095865  0  4.027921  0  0  0.098739  0  4.049685  0  0  0.010857  0.094048  0  4.013185  0
C  C45  1  0.89939596  0.75826877  0.02656068  1  0  0.083995  0  3.791787  0  0  0.095829  0  4.028006  0  0  0.098704  0  4.049764  0  0  0.010817  0.094007  0  4.013284  0
C  C46  1  0.60060853  0.25826716  0.52655751  1  0  0.084023  0  3.791681  0  0  0.095803  0  4.027986  0  0  0.098679  0  4.049746  0  0  0.010802  0.093969  0  4.013254  0
C  C47  1  0.10060303  0.24173139  0.97344049  1  0  0.084033  0  3.791808  0  0  0.095843  0  4.028066  0  0  0.09872  0  4.049822  0  0  0.010815  0.094017  0  4.013324  0
C  C48  1  0.36959545  0.63221358  0.46995882  1  0  -0.145397  0  3.720667  0  0  -0.168092  0  3.972877  0  0  -0.17464  0  3.993202  0  0  -0.08568  -0.163944  0  3.959402  0
C  C49  1  0.86960474  0.86778503  0.03004259  1  0  -0.145534  0  3.720718  0  0  -0.168188  0  3.97287  0  0  -0.174736  0  3.993189  0  0  -0.085705  -0.164043  0  3.959381  0
C  C50  1  0.63040727  0.36778501  0.53004016  1  0  -0.145513  0  3.720741  0  0  -0.168198  0  3.972973  0  0  -0.174747  0  3.993297  0  0  -0.085696  -0.164056  0  3.959516  0
C  C51  1  0.13039612  0.13221593  0.96995768  1  0  -0.145525  0  3.720732  0  0  -0.168186  0  3.972901  0  0  -0.174736  0  3.993226  0  0  -0.085687  -0.164037  0  3.959422  0
C  C52  1  0.18466992  0.57916980  0.42863734  1  0  0.129749  0  3.711359  0  0  0.098419  0  3.96321  0  0  0.10504  0  3.981365  0  0  0.042778  0.094174  0  3.950933  0
C  C53  1  0.68468176  0.92082714  0.07136464  1  0  0.129975  0  3.711342  0  0  0.098585  0  3.963169  0  0  0.10522  0  3.981329  0  0  0.042837  0.094349  0  3.950871  0
C  C54  1  0.81531604  0.42082719  0.57136244  1  0  0.12995  0  3.711481  0  0  0.098588  0  3.963295  0  0  0.105209  0  3.98145  0  0  0.042858  0.094338  0  3.951027  0
C  C55  1  0.31531351  0.07917222  0.92863743  1  0  0.129912  0  3.711389  0  0  0.098558  0  3.963201  0  0  0.105177  0  3.981358  0  0  0.042853  0.094302  0  3.950929  0
C  C56  1  0.59256465  0.80240902  0.51493326  1  0  0.094154  0  3.732611  0  0  0.086706  0  4.013572  0  0  0.093049  0  4.030486  0  0  0.127241  0.082481  0  4.001965  0
C  C57  1  0.09256494  0.69758790  0.98506634  1  0  0.094133  0  3.732635  0  0  0.086707  0  4.013551  0  0  0.093052  0  4.030463  0  0  0.127236  0.08249  0  4.001937  0
C  C58  1  0.40743434  0.19758641  0.48506433  1  0  0.094081  0  3.732784  0  0  0.086694  0  4.01368  0  0  0.093033  0  4.030598  0  0  0.127228  0.082489  0  4.002051  0
C  C59  1  0.90743778  0.30241307  0.01493393  1  0  0.094204  0  3.732697  0  0  0.086781  0  4.013615  0  0  0.093125  0  4.030528  0  0  0.127262  0.082568  0  4.00199  0
C  C60  1  0.91333161  0.87974235  0.59115744  1  0  0.096823  0  3.732815  0  0  0.088539  0  4.015981  0  0  0.095003  0  4.03283  0  0  0.128108  0.084237  0  4.004416  0
C  C61  1  0.41333992  0.62025706  0.90884436  1  0  0.096778  0  3.732956  0  0  0.088487  0  4.016182  0  0  0.094951  0  4.033029  0  0  0.128113  0.084181  0  4.004623  0
C  C62  1  0.08666553  0.12025940  0.40884393  1  0  0.096778  0  3.732973  0  0  0.088446  0  4.016203  0  0  0.094909  0  4.033049  0  0  0.128108  0.08414  0  4.004635  0
C  C63  1  0.58667212  0.37974788  0.09115640  1  0  0.096752  0  3.732839  0  0  0.088439  0  4.016022  0  0  0.094908  0  4.03286  0  0  0.128085  0.084128  0  4.004465  0
C  C64  1  0.10404946  0.91266085  0.64268314  1  0  0.083522  0  3.78832  0  0  0.094137  0  4.026429  0  0  0.096884  0  4.048304  0  0  0.011279  0.092426  0  4.011568  0
C  C65  1  0.60406052  0.58734318  0.85732085  1  0  0.083685  0  3.788465  0  0  0.094203  0  4.026688  0  0  0.096949  0  4.048562  0  0  0.011357  0.092487  0  4.011832  0
C  C66  1  0.89594208  0.08733931  0.35731853  1  0  0.083542  0  3.788379  0  0  0.094177  0  4.026458  0  0  0.096926  0  4.04833  0  0  0.011304  0.092479  0  4.011583  0
C  C67  1  0.39595338  0.41266413  0.14268121  1  0  0.083565  0  3.788422  0  0  0.094201  0  4.026432  0  0  0.09695  0  4.048304  0  0  0.011339  0.092502  0  4.011562  0
C  C68  1  0.26750649  0.99575603  0.63591558  1  0  -0.119699  0  3.63777  0  0  -0.139466  0  3.889304  0  0  -0.145708  0  3.90819  0  0  -0.073317  -0.135504  0  3.876821  0
C  C69  1  0.76751207  0.50424887  0.86408821  1  0  -0.119794  0  3.637857  0  0  -0.139498  0  3.889345  0  0  -0.145739  0  3.908229  0  0  -0.073328  -0.135532  0  3.876849  0
C  C70  1  0.73248879  0.00424334  0.36408549  1  0  -0.119844  0  3.637766  0  0  -0.139582  0  3.889286  0  0  -0.145822  0  3.908169  0  0  -0.073362  -0.13562  0  3.876803  0
C  C71  1  0.23249438  0.49576005  0.13591204  1  0  -0.119893  0  3.637931  0  0  -0.139569  0  3.889306  0  0  -0.145808  0  3.908185  0  0  -0.073343  -0.135609  0  3.876822  0
C  C72  1  0.44116817  0.02889778  0.68668666  1  0  0.143222  0  3.670471  0  0  0.109039  0  3.924485  0  0  0.11648  0  3.940912  0  0  0.049916  0.104197  0  3.913419  0
C  C73  1  0.94117477  0.47110562  0.81331685  1  0  0.143079  0  3.670419  0  0  0.108875  0  3.924368  0  0  0.116317  0  3.940796  0  0  0.049831  0.104044  0  3.913282  0
C  C74  1  0.55882524  0.97110079  0.31331482  1  0  0.143317  0  3.670462  0  0  0.109089  0  3.924431  0  0  0.116529  0  3.940854  0  0  0.049897  0.10425  0  3.913377  0
C  C75  1  0.05883354  0.52889934  0.18668191  1  0  0.143167  0  3.670366  0  0  0.108913  0  3.924336  0  0  0.116355  0  3.940763  0  0  0.049732  0.104081  0  3.913264  0
C  C76  1  0.30729429  0.90253688  0.74795029  1  0  0.133229  0  3.711719  0  0  0.102396  0  3.961065  0  0  0.109195  0  3.978984  0  0  0.043803  0.098015  0  3.948971  0
C  C77  1  0.80730357  0.59746802  0.75205405  1  0  0.133124  0  3.711775  0  0  0.102244  0  3.961102  0  0  0.109036  0  3.979018  0  0  0.043775  0.097858  0  3.949016  0
C  C78  1  0.69270099  0.09746089  0.25205058  1  0  0.133266  0  3.711824  0  0  0.102441  0  3.961098  0  0  0.109219  0  3.979008  0  0  0.043805  0.098075  0  3.948986  0
C  C79  1  0.19270660  0.40253851  0.24794591  1  0  0.133248  0  3.711702  0  0  0.102422  0  3.961036  0  0  0.109197  0  3.978944  0  0  0.043797  0.098041  0  3.94894  0
C  C80  1  0.12604325  0.86555225  0.70010503  1  0  -0.141889  0  3.715669  0  0  -0.163544  0  3.967601  0  0  -0.169955  0  3.987668  0  0  -0.08462  -0.159481  0  3.954274  0
C  C81  1  0.62605334  0.63445338  0.79989918  1  0  -0.141871  0  3.715807  0  0  -0.163498  0  3.96775  0  0  -0.169916  0  3.987829  0  0  -0.084615  -0.15943  0  3.954425  0
C  C82  1  0.87395016  0.13444871  0.29989574  1  0  -0.141863  0  3.715726  0  0  -0.163542  0  3.967636  0  0  -0.169967  0  3.98772  0  0  -0.084582  -0.159484  0  3.9543  0
C  C83  1  0.37395683  0.36555633  0.20010168  1  0  -0.142013  0  3.715929  0  0  -0.163696  0  3.967875  0  0  -0.170118  0  3.987954  0  0  -0.08468  -0.159634  0  3.954541  0
S  S84  1  0.75556598  0.75974434  0.57964003  1  0  0.125423  0  2.480199  0  0  0.129942  0  2.799449  0  0  0.129718  0  2.803267  0  0  0.134275  0.129401  0  2.797262  0
S  S85  1  0.25556518  0.74025422  0.92036097  1  0  0.125399  0  2.480193  0  0  0.129899  0  2.799471  0  0  0.129676  0  2.803287  0  0  0.134234  0.129367  0  2.797277  0
S  S86  1  0.24443860  0.24025187  0.42035866  1  0  0.125432  0  2.48042  0  0  0.129951  0  2.79964  0  0  0.129729  0  2.803463  0  0  0.134255  0.129405  0  2.797448  0
S  S87  1  0.74443754  0.25974833  0.07964049  1  0  0.125429  0  2.480153  0  0  0.129936  0  2.799387  0  0  0.12971  0  2.803204  0  0  0.134241  0.129395  0  2.797197  0
N  N88  1  0.03490131  0.62895544  0.39076048  1  0  -0.312425  0  3.324231  0  0  -0.226906  0  3.593289  0  0  -0.245327  0  3.609729  0  0  -0.331157  -0.214556  0  3.582063  0
N  N89  1  0.53490820  0.87104306  0.10923851  1  0  -0.312348  0  3.324197  0  0  -0.226753  0  3.593131  0  0  -0.245165  0  3.609558  0  0  -0.331111  -0.214412  0  3.581908  0
N  N90  1  0.96508838  0.37104156  0.60923830  1  0  -0.312399  0  3.324251  0  0  -0.226793  0  3.593157  0  0  -0.245207  0  3.609591  0  0  -0.331165  -0.214432  0  3.581919  0
N  N91  1  0.46509639  0.12895471  0.89076237  1  0  -0.312441  0  3.324245  0  0  -0.226847  0  3.593218  0  0  -0.245257  0  3.609646  0  0  -0.331179  -0.21449  0  3.581988  0
N  N92  1  0.66210358  0.89789489  0.50571740  1  0  -0.176723  0  3.04744  0  0  -0.154371  0  3.336293  0  0  -0.161945  0  3.351684  0  0  -0.182905  -0.14892  0  3.325524  0
N  N93  1  0.16210588  0.60210126  0.99428169  1  0  -0.176748  0  3.047453  0  0  -0.154419  0  3.336325  0  0  -0.161996  0  3.351718  0  0  -0.182929  -0.148968  0  3.325548  0
N  N94  1  0.33788796  0.10210131  0.49428179  1  0  -0.176694  0  3.047517  0  0  -0.154374  0  3.336374  0  0  -0.161947  0  3.351766  0  0  -0.182902  -0.148915  0  3.325584  0
N  N95  1  0.83790243  0.39789891  0.00571798  1  0  -0.176778  0  3.047475  0  0  -0.154444  0  3.336326  0  0  -0.162021  0  3.351722  0  0  -0.182934  -0.148986  0  3.325537  0
N  N96  1  0.83986627  0.94184682  0.54895806  1  0  -0.176002  0  3.041163  0  0  -0.15358  0  3.329944  0  0  -0.161248  0  3.345316  0  0  -0.183287  -0.148077  0  3.319189  0
N  N97  1  0.33987156  0.55815256  0.95104364  1  0  -0.175942  0  3.041166  0  0  -0.153489  0  3.329918  0  0  -0.161158  0  3.345291  0  0  -0.183245  -0.147985  0  3.319163  0
N  N98  1  0.16012528  0.05815253  0.45104450  1  0  -0.1759  0  3.041115  0  0  -0.153449  0  3.329887  0  0  -0.161116  0  3.345257  0  0  -0.183231  -0.147952  0  3.319134  0
N  N99  1  0.66013861  0.44185079  0.04895693  1  0  -0.17591  0  3.041137  0  0  -0.153476  0  3.329903  0  0  -0.161145  0  3.345275  0  0  -0.183242  -0.147977  0  3.319155  0
N  N100  1  0.46210783  0.98254300  0.74151464  1  0  -0.312429  0  3.326867  0  0  -0.227867  0  3.596208  0  0  -0.246331  0  3.612808  0  0  -0.332912  -0.215413  0  3.584781  0
N  N101  1  0.96211349  0.51746199  0.75848840  1  0  -0.31247  0  3.326789  0  0  -0.227754  0  3.595932  0  0  -0.246223  0  3.612547  0  0  -0.33291  -0.215308  0  3.584507  0
N  N102  1  0.53789490  0.01745478  0.25848574  1  0  -0.312666  0  3.32707  0  0  -0.227908  0  3.596144  0  0  -0.246378  0  3.612764  0  0  -0.332936  -0.215461  0  3.584707  0
N  N103  1  0.03789109  0.48254615  0.24151126  1  0  -0.312466  0  3.326819  0  0  -0.227729  0  3.595924  0  0  -0.2462  0  3.612548  0  0  -0.3328  -0.215289  0  3.5845  0
Cl  Cl104  1  0.54934154  0.65701687  0.28265401  1  0  -0.546461  0  0.96022  0  0  -0.482483  0  1.237494  0  0  -0.499347  0  1.219696  0  0  -0.319777  -0.470317  0  1.249597  0
Cl  Cl105  1  0.04932801  0.84298643  0.21734310  1  0  -0.546435  0  0.960247  0  0  -0.482449  0  1.237525  0  0  -0.499318  0  1.219734  0  0  -0.319735  -0.470283  0  1.249651  0
Cl  Cl106  1  0.45066491  0.34298332  0.71734367  1  0  -0.54644  0  0.960222  0  0  -0.482465  0  1.23751  0  0  -0.499333  0  1.219719  0  0  -0.31976  -0.470301  0  1.249607  0
Cl  Cl107  1  0.95065981  0.15701374  0.78265707  1  0  -0.546452  0  0.960193  0  0  -0.482456  0  1.237449  0  0  -0.499321  0  1.219652  0  0  -0.319768  -0.470304  0  1.249567  0
Cl  Cl108  1  0.69682905  0.39919001  0.36368661  1  0  -0.595306  0  0.957195  0  0  -0.539278  0  1.249242  0  0  -0.556572  0  1.230213  0  0  -0.333834  -0.526356  0  1.262183  0
Cl  Cl109  1  0.19682533  0.10080547  0.13630591  1  0  -0.595281  0  0.957188  0  0  -0.539282  0  1.249286  0  0  -0.556579  0  1.230257  0  0  -0.333839  -0.52636  0  1.262226  0
Cl  Cl110  1  0.30316436  0.60080703  0.63630919  1  0  -0.595305  0  0.95714  0  0  -0.539303  0  1.249234  0  0  -0.556597  0  1.230201  0  0  -0.333839  -0.526379  0  1.262182  0
Cl  Cl111  1  0.80317181  0.89919309  0.86369606  1  0  -0.595297  0  0.95722  0  0  -0.539299  0  1.24933  0  0  -0.556593  0  1.230294  0  0  -0.333836  -0.526382  0  1.262276  0
