# generated using pymatgen
data_ZnH12C18(N3O2)2
_symmetry_space_group_name_H-M   'P 1'
_cell_length_a   7.57811781
_cell_length_b   9.07366708
_cell_length_c   15.48453953
_cell_angle_alpha   89.52425981
_cell_angle_beta   83.27312876
_cell_angle_gamma   84.11730823
_symmetry_Int_Tables_number   1
_chemical_formula_structural   ZnH12C18(N3O2)2
_chemical_formula_sum   'Zn2 H24 C36 N12 O8'
_cell_volume   1051.83162703
_cell_formula_units_Z   2
loop_
 _symmetry_equiv_pos_site_id
 _symmetry_equiv_pos_as_xyz
  1  'x, y, z'
loop_
 _atom_site_type_symbol
 _atom_site_label
 _atom_site_symmetry_multiplicity
 _atom_site_fract_x
 _atom_site_fract_y
 _atom_site_fract_z
 _atom_site_occupancy
 _atom_site_hle17_bader_spin_density
 _atom_site_hle17_ddec_charge
 _atom_site_hle17_ddec_spin_density
 _atom_site_hle17_ddec_sum_bond_order
 _atom_site_hle17_magmom
 _atom_site_hse06_10hf_bader_spin_density
 _atom_site_hse06_10hf_ddec_charge
 _atom_site_hse06_10hf_ddec_spin_density
 _atom_site_hse06_10hf_ddec_sum_bond_order
 _atom_site_hse06_10hf_magmom
 _atom_site_hse06_bader_spin_density
 _atom_site_hse06_ddec_charge
 _atom_site_hse06_ddec_spin_density
 _atom_site_hse06_ddec_sum_bond_order
 _atom_site_hse06_magmom
 _atom_site_pbe_bader_spin_density
 _atom_site_pbe_cm5_charge
 _atom_site_pbe_ddec_charge
 _atom_site_pbe_ddec_spin_density
 _atom_site_pbe_ddec_sum_bond_order
 _atom_site_pbe_magmom
Zn  Zn0  1  0.08863127  0.36828683  0.24273673  1  0  1.000352  0  1.87675  0  0  0.806055  0  2.359293  0  0  0.853769  0  2.30286  0  0  0.701174  0.77281  0  2.398079  0
Zn  Zn1  1  0.91137591  0.63171317  0.75726261  1  0  1.000475  0  1.876729  0  0  0.806204  0  2.359272  0  0  0.853917  0  2.302838  0  0  0.70119  0.772956  0  2.398072  0
H  H2  1  0.10880156  0.74060625  0.95461069  1  0  0.114265  0  0.934334  0  0  0.123463  0  0.99589  0  0  0.126792  0  0.993701  0  0  0.114638  0.121022  0  0.997625  0
H  H3  1  0.89117793  0.25938082  0.04539387  1  0  0.114171  0  0.934327  0  0  0.123434  0  0.995807  0  0  0.126769  0  0.993609  0  0  0.114653  0.120992  0  0.997542  0
H  H4  1  0.84632956  0.05824296  0.14804063  1  0  0.10663  0  0.976391  0  0  0.112565  0  1.043622  0  0  0.11498  0  1.043419  0  0  0.108605  0.11077  0  1.043937  0
H  H5  1  0.15366303  0.94174615  0.85196367  1  0  0.106592  0  0.976271  0  0  0.112517  0  1.043538  0  0  0.114934  0  1.043329  0  0  0.108574  0.110732  0  1.043836  0
H  H6  1  0.17201756  0.60522745  0.08425151  1  0  0.12171  0  0.904422  0  0  0.135651  0  0.956306  0  0  0.138545  0  0.952831  0  0  0.15624  0.133468  0  0.958881  0
H  H7  1  0.82798145  0.39476933  0.91576392  1  0  0.121802  0  0.904514  0  0  0.135679  0  0.956446  0  0  0.138578  0  0.952968  0  0  0.156244  0.133498  0  0.95903  0
H  H8  1  0.70171897  0.85580956  0.19838276  1  0  0.108237  0  0.929722  0  0  0.118195  0  0.989993  0  0  0.120417  0  0.987839  0  0  0.14548  0.116571  0  0.991535  0
H  H9  1  0.29827278  0.14418843  0.80162347  1  0  0.108252  0  0.929819  0  0  0.118235  0  0.990033  0  0  0.120461  0  0.987876  0  0  0.145492  0.116603  0  0.991573  0
H  H10  1  0.43129524  0.96273295  0.34865638  1  0  0.117  0  0.933281  0  0  0.130687  0  0.986309  0  0  0.133697  0  0.984535  0  0  0.116218  0.128424  0  0.987756  0
H  H11  1  0.56871927  0.03727471  0.65134563  1  0  0.117124  0  0.933302  0  0  0.13074  0  0.98639  0  0  0.133744  0  0.984626  0  0  0.116244  0.128475  0  0.987833  0
H  H12  1  0.71208796  0.17974485  0.53062381  1  0  0.11824  0  0.92576  0  0  0.133007  0  0.974521  0  0  0.135186  0  0.974543  0  0  0.121137  0.131407  0  0.974642  0
H  H13  1  0.28793231  0.82025831  0.46937718  1  0  0.118204  0  0.92588  0  0  0.133073  0  0.974548  0  0  0.135246  0  0.974568  0  0  0.121186  0.131473  0  0.974665  0
H  H14  1  0.92635494  0.19502952  0.40892129  1  0  0.13857  0  0.952123  0  0  0.146483  0  1.012037  0  0  0.150571  0  1.006603  0  0  0.150822  0.143453  0  1.015958  0
H  H15  1  0.07365776  0.80498148  0.59107825  1  0  0.138572  0  0.952053  0  0  0.146315  0  1.012186  0  0  0.150403  0  1.006753  0  0  0.15078  0.143283  0  1.016111  0
H  H16  1  0.47768957  0.17498970  0.26861257  1  0  0.120278  0  0.978364  0  0  0.126178  0  1.043516  0  0  0.128852  0  1.041281  0  0  0.13973  0.124183  0  1.045172  0
H  H17  1  0.52232147  0.82501247  0.73138842  1  0  0.120283  0  0.978332  0  0  0.126149  0  1.04353  0  0  0.128825  0  1.041292  0  0  0.139686  0.12415  0  1.04519  0
H  H18  1  0.41634803  0.27071030  0.98503307  1  0  0.099157  0  0.939234  0  0  0.109203  0  0.997238  0  0  0.113206  0  0.99451  0  0  0.101438  0.106296  0  0.999298  0
H  H19  1  0.58363020  0.72926130  0.01496716  1  0  0.09912  0  0.939271  0  0  0.109107  0  0.997335  0  0  0.113111  0  0.994609  0  0  0.101422  0.10621  0  0.999394  0
H  H20  1  0.60350888  0.12484489  0.86254866  1  0  0.097409  0  0.947791  0  0  0.106136  0  1.009322  0  0  0.110278  0  1.006336  0  0  0.100763  0.103134  0  1.011543  0
H  H21  1  0.39645419  0.87512910  0.13744680  1  0  0.097418  0  0.947675  0  0  0.106094  0  1.009256  0  0  0.110241  0  1.006269  0  0  0.100713  0.103093  0  1.011483  0
H  H22  1  0.23797261  0.38210217  0.57058837  1  0  0.099957  0  0.949723  0  0  0.105927  0  1.015486  0  0  0.110384  0  1.012091  0  0  0.098352  0.102717  0  1.017988  0
H  H23  1  0.76205175  0.61791642  0.42939416  1  0  0.099768  0  0.949865  0  0  0.105761  0  1.015613  0  0  0.110218  0  1.012218  0  0  0.098213  0.102553  0  1.018106  0
H  H24  1  0.45894238  0.47072765  0.66084425  1  0  0.099419  0  0.964882  0  0  0.102896  0  1.037315  0  0  0.107029  0  1.034191  0  0  0.095109  0.099922  0  1.039638  0
H  H25  1  0.54108324  0.52929315  0.33914140  1  0  0.0994  0  0.964951  0  0  0.10293  0  1.037343  0  0  0.107069  0  1.034208  0  0  0.095159  0.099951  0  1.039674  0
C  C26  1  0.97480663  0.88624797  0.05857862  1  0  0.17391  0  3.780286  0  0  0.162718  0  4.034299  0  0  0.166855  0  4.058211  0  0  0.098449  0.159912  0  4.018188  0
C  C27  1  0.02518050  0.11374343  0.94142798  1  0  0.173664  0  3.780522  0  0  0.162467  0  4.034602  0  0  0.166592  0  4.058525  0  0  0.098394  0.159658  0  4.018486  0
C  C28  1  0.06347177  0.85377402  0.97571430  1  0  -0.113635  0  3.728347  0  0  -0.138649  0  3.989269  0  0  -0.141823  0  4.010445  0  0  -0.077895  -0.136479  0  3.974928  0
C  C29  1  0.93651410  0.14621519  0.02428916  1  0  -0.113484  0  3.728383  0  0  -0.138535  0  3.989339  0  0  -0.141707  0  4.010512  0  0  -0.077972  -0.136363  0  3.975003  0
C  C30  1  0.91146004  0.03156587  0.08292005  1  0  -0.113055  0  3.721331  0  0  -0.134865  0  3.977532  0  0  -0.138367  0  3.999867  0  0  -0.079533  -0.132459  0  3.962501  0
C  C31  1  0.08852852  0.96842330  0.91708387  1  0  -0.113036  0  3.721245  0  0  -0.134744  0  3.977227  0  0  -0.13824  0  3.999555  0  0  -0.079557  -0.13234  0  3.962178  0
C  C32  1  0.05030575  0.63996552  0.12618233  1  0  0.1699  0  3.609879  0  0  0.105337  0  3.866021  0  0  0.118716  0  3.877563  0  0  0.171319  0.096621  0  3.858141  0
C  C33  1  0.94968227  0.36003250  0.87382933  1  0  0.169628  0  3.609627  0  0  0.105137  0  3.86575  0  0  0.118506  0  3.877296  0  0  0.171207  0.096411  0  3.857889  0
C  C34  1  0.81021485  0.76820522  0.18672504  1  0  0.143917  0  3.645989  0  0  0.089201  0  3.915727  0  0  0.099403  0  3.928363  0  0  0.159893  0.082529  0  3.90715  0
C  C35  1  0.18977697  0.23179276  0.81328248  1  0  0.14358  0  3.64589  0  0  0.088907  0  3.915594  0  0  0.099097  0  3.92824  0  0  0.159748  0.082243  0  3.907  0
C  C36  1  0.58332490  0.07702972  0.43247226  1  0  0.181013  0  3.770413  0  0  0.170447  0  4.022663  0  0  0.174725  0  4.046683  0  0  0.102821  0.167512  0  4.006461  0
C  C37  1  0.41669395  0.92297457  0.56752948  1  0  0.181119  0  3.770113  0  0  0.170294  0  4.022732  0  0  0.174568  0  4.046751  0  0  0.102802  0.167371  0  4.006513  0
C  C38  1  0.46136900  0.97898730  0.41486013  1  0  -0.10784  0  3.707435  0  0  -0.130072  0  3.957123  0  0  -0.132842  0  3.977405  0  0  -0.073486  -0.1281  0  3.943407  0
C  C39  1  0.53864663  0.02102145  0.58513986  1  0  -0.108131  0  3.707545  0  0  -0.130247  0  3.957288  0  0  -0.133013  0  3.977582  0  0  -0.073611  -0.12827  0  3.943561  0
C  C40  1  0.62178931  0.09906496  0.51717929  1  0  -0.107326  0  3.713953  0  0  -0.128558  0  3.963187  0  0  -0.131683  0  3.984828  0  0  -0.071763  -0.126437  0  3.948586  0
C  C41  1  0.37822785  0.90094156  0.48281996  1  0  -0.107461  0  3.714014  0  0  -0.128766  0  3.963455  0  0  -0.131876  0  3.985082  0  0  -0.071882  -0.126642  0  3.948849  0
C  C42  1  0.83507868  0.20486410  0.35951362  1  0  0.179181  0  3.60089  0  0  0.111628  0  3.861876  0  0  0.12636  0  3.872153  0  0  0.173977  0.102065  0  3.854785  0
C  C43  1  0.16493167  0.79514361  0.64048545  1  0  0.179181  0  3.600862  0  0  0.111765  0  3.861854  0  0  0.126494  0  3.872134  0  0  0.173944  0.1022  0  3.854765  0
C  C44  1  0.60836846  0.19679265  0.28517686  1  0  0.14714  0  3.613769  0  0  0.08969  0  3.892083  0  0  0.100318  0  3.903615  0  0  0.155345  0.082748  0  3.88429  0
C  C45  1  0.39164251  0.80320952  0.71482284  1  0  0.146973  0  3.613952  0  0  0.089608  0  3.892165  0  0  0.100235  0  3.903698  0  0  0.155348  0.082672  0  3.884369  0
C  C46  1  0.39651970  0.08057786  0.06812513  1  0  -0.048884  0  3.752911  0  0  -0.024716  0  3.98043  0  0  -0.031041  0  4.00395  0  0  -0.018226  -0.020588  0  3.964502  0
C  C47  1  0.60344087  0.91939616  0.93187373  1  0  -0.048876  0  3.752882  0  0  -0.024656  0  3.98034  0  0  -0.030982  0  4.003873  0  0  -0.018052  -0.020539  0  3.964412  0
C  C48  1  0.45378121  0.15209926  0.99083427  1  0  -0.079727  0  3.753762  0  0  -0.10328  0  4.005982  0  0  -0.104245  0  4.026382  0  0  -0.090174  -0.102487  0  3.992055  0
C  C49  1  0.54617782  0.84787811  0.00916726  1  0  -0.079503  0  3.75397  0  0  -0.103027  0  4.006132  0  0  -0.103987  0  4.026537  0  0  -0.090131  -0.102242  0  3.992223  0
C  C50  1  0.55648585  0.07188101  0.92325097  1  0  -0.096189  0  3.771459  0  0  -0.119585  0  4.026592  0  0  -0.121467  0  4.048107  0  0  -0.092112  -0.118145  0  4.011869  0
C  C51  1  0.44347015  0.92809860  0.07674817  1  0  -0.096316  0  3.771561  0  0  -0.119612  0  4.02664  0  0  -0.121511  0  4.048171  0  0  -0.09207  -0.118177  0  4.011933  0
C  C52  1  0.28660876  0.16420454  0.14210477  1  0  0.624471  0  3.939957  0  0  0.579476  0  4.226763  0  0  0.612718  0  4.220606  0  0  0.192418  0.556984  0  4.230067  0
C  C53  1  0.71337681  0.83578467  0.85789290  1  0  0.624368  0  3.940543  0  0  0.579387  0  4.227325  0  0  0.612613  0  4.2212  0  0  0.192411  0.556927  0  4.230584  0
C  C54  1  0.37556292  0.45048557  0.44962810  1  0  -0.065098  0  3.756846  0  0  -0.042776  0  3.988916  0  0  -0.049531  0  4.012128  0  0  -0.023951  -0.038305  0  3.973192  0
C  C55  1  0.62445615  0.54953530  0.55035994  1  0  -0.065206  0  3.756295  0  0  -0.042911  0  3.988481  0  0  -0.049662  0  4.011688  0  0  -0.024128  -0.038438  0  3.972758  0
C  C56  1  0.35308419  0.43406981  0.54028308  1  0  -0.080627  0  3.753316  0  0  -0.1027  0  4.005851  0  0  -0.104359  0  4.026979  0  0  -0.091128  -0.101424  0  3.991413  0
C  C57  1  0.64693578  0.56595327  0.45970102  1  0  -0.080248  0  3.752793  0  0  -0.102317  0  4.005285  0  0  -0.103983  0  4.026427  0  0  -0.090816  -0.101047  0  3.990845  0
C  C58  1  0.47676218  0.48290102  0.59038974  1  0  -0.089776  0  3.754298  0  0  -0.114967  0  4.011759  0  0  -0.116121  0  4.032709  0  0  -0.096929  -0.114043  0  3.997407  0
C  C59  1  0.52325767  0.51712317  0.40959436  1  0  -0.089821  0  3.754397  0  0  -0.11507  0  4.011801  0  0  -0.116232  0  4.032763  0  0  -0.097073  -0.114156  0  3.997485  0
C  C60  1  0.24414499  0.39183634  0.39668419  1  0  0.643276  0  3.92928  0  0  0.59663  0  4.221282  0  0  0.630575  0  4.213638  0  0  0.196729  0.573566  0  4.225679  0
C  C61  1  0.75588425  0.60818884  0.60330313  1  0  0.643473  0  3.929207  0  0  0.59682  0  4.221228  0  0  0.630761  0  4.213582  0  0  0.19692  0.573763  0  4.22562  0
N  N62  1  0.98014567  0.56443136  0.19252626  1  0  -0.23873  0  3.213608  0  0  -0.169894  0  3.517907  0  0  -0.184984  0  3.528767  0  0  -0.227669  -0.159813  0  3.510593  0
N  N63  1  0.01984564  0.43557327  0.80748513  1  0  -0.238854  0  3.213651  0  0  -0.170006  0  3.517935  0  0  -0.185095  0  3.528796  0  0  -0.227623  -0.15993  0  3.510636  0
N  N64  1  0.82792067  0.64470038  0.23124346  1  0  -0.189202  0  2.896118  0  0  -0.174796  0  3.169192  0  0  -0.181374  0  3.182952  0  0  -0.207649  -0.17038  0  3.159949  0
N  N65  1  0.17207203  0.35530312  0.76876655  1  0  -0.189044  0  2.896122  0  0  -0.174681  0  3.169193  0  0  -0.181253  0  3.182954  0  0  -0.207624  -0.170273  0  3.159948  0
N  N66  1  0.94677913  0.77086546  0.11975240  1  0  -0.106878  0  3.577452  0  0  -0.018034  0  3.795082  0  0  -0.033599  0  3.818278  0  0  -0.209525  -0.007777  0  3.779232  0
N  N67  1  0.05321302  0.22913031  0.88025705  1  0  -0.106303  0  3.576821  0  0  -0.017518  0  3.794451  0  0  -0.033074  0  3.817655  0  0  -0.209362  -0.00726  0  3.77859  0
N  N68  1  0.86939662  0.27124301  0.28418088  1  0  -0.262602  0  3.274155  0  0  -0.186144  0  3.58839  0  0  -0.203986  0  3.599241  0  0  -0.243125  -0.174231  0  3.581007  0
N  N69  1  0.13060717  0.72876368  0.71581800  1  0  -0.262608  0  3.274016  0  0  -0.186171  0  3.588269  0  0  -0.20401  0  3.599115  0  0  -0.243114  -0.174257  0  3.580889  0
N  N70  1  0.72706726  0.26694084  0.23646057  1  0  -0.223057  0  2.902985  0  0  -0.210007  0  3.185563  0  0  -0.215979  0  3.197782  0  0  -0.229746  -0.206015  0  3.177378  0
N  N71  1  0.27294383  0.73306023  0.76353914  1  0  -0.223026  0  2.90296  0  0  -0.210017  0  3.185546  0  0  -0.215989  0  3.197765  0  0  -0.229754  -0.206027  0  3.177359  0
N  N72  1  0.67095816  0.15515386  0.36278424  1  0  -0.116627  0  3.58166  0  0  -0.027985  0  3.802195  0  0  -0.044676  0  3.82637  0  0  -0.212379  -0.016968  0  3.785656  0
N  N73  1  0.32904944  0.84485610  0.63721759  1  0  -0.116505  0  3.581551  0  0  -0.027779  0  3.802053  0  0  -0.04447  0  3.826231  0  0  -0.212263  -0.016773  0  3.78551  0
O  O74  1  0.26344460  0.10363263  0.21553610  1  0  -0.628267  0  1.905809  0  0  -0.584137  0  2.126612  0  0  -0.606781  0  2.116772  0  0  -0.333216  -0.568248  0  2.132845  0
O  O75  1  0.73654594  0.89635098  0.78446902  1  0  -0.628109  0  1.906315  0  0  -0.583994  0  2.12713  0  0  -0.606629  0  2.117297  0  0  -0.333171  -0.568114  0  2.133343  0
O  O76  1  0.22058169  0.29774884  0.12668287  1  0  -0.650637  0  1.996181  0  0  -0.583054  0  2.253206  0  0  -0.611674  0  2.239853  0  0  -0.341023  -0.56293  0  2.261578  0
O  O77  1  0.77941367  0.70223692  0.87331673  1  0  -0.650762  0  1.996229  0  0  -0.583185  0  2.253226  0  0  -0.611806  0  2.239891  0  0  -0.341128  -0.56307  0  2.261591  0
O  O78  1  0.25224111  0.43868943  0.31652102  1  0  -0.666343  0  2.051547  0  0  -0.590708  0  2.32149  0  0  -0.619867  0  2.304528  0  0  -0.349091  -0.570247  0  2.332421  0
O  O79  1  0.74776950  0.56132380  0.68346831  1  0  -0.666606  0  2.050937  0  0  -0.59099  0  2.320881  0  0  -0.62015  0  2.303915  0  0  -0.349254  -0.570533  0  2.331817  0
O  O80  1  0.14034365  0.30284985  0.42963533  1  0  -0.619449  0  1.909332  0  0  -0.576596  0  2.12207  0  0  -0.598924  0  2.112843  0  0  -0.331928  -0.56097  0  2.127937  0
O  O81  1  0.85967643  0.69715220  0.57035987  1  0  -0.619351  0  1.910155  0  0  -0.576448  0  2.122934  0  0  -0.598769  0  2.113707  0  0  -0.331853  -0.560832  0  2.128802  0
