# generated using pymatgen
data_ZnH20C25S2(NO)4
_symmetry_space_group_name_H-M   'P 1'
_cell_length_a   7.87036790
_cell_length_b   11.54043259
_cell_length_c   15.10537373
_cell_angle_alpha   71.86228368
_cell_angle_beta   83.49432188
_cell_angle_gamma   74.72016112
_symmetry_Int_Tables_number   1
_chemical_formula_structural   ZnH20C25S2(NO)4
_chemical_formula_sum   'Zn2 H40 C50 S4 N8 O8'
_cell_volume   1256.98914388
_cell_formula_units_Z   2
loop_
 _symmetry_equiv_pos_site_id
 _symmetry_equiv_pos_as_xyz
  1  'x, y, z'
loop_
 _atom_site_type_symbol
 _atom_site_label
 _atom_site_symmetry_multiplicity
 _atom_site_fract_x
 _atom_site_fract_y
 _atom_site_fract_z
 _atom_site_occupancy
 _atom_site_hle17_bader_spin_density
 _atom_site_hle17_ddec_charge
 _atom_site_hle17_ddec_spin_density
 _atom_site_hle17_ddec_sum_bond_order
 _atom_site_hle17_magmom
 _atom_site_hse06_10hf_bader_spin_density
 _atom_site_hse06_10hf_ddec_charge
 _atom_site_hse06_10hf_ddec_spin_density
 _atom_site_hse06_10hf_ddec_sum_bond_order
 _atom_site_hse06_10hf_magmom
 _atom_site_hse06_bader_spin_density
 _atom_site_hse06_ddec_charge
 _atom_site_hse06_ddec_spin_density
 _atom_site_hse06_ddec_sum_bond_order
 _atom_site_hse06_magmom
 _atom_site_pbe_bader_spin_density
 _atom_site_pbe_cm5_charge
 _atom_site_pbe_ddec_charge
 _atom_site_pbe_ddec_spin_density
 _atom_site_pbe_ddec_sum_bond_order
 _atom_site_pbe_magmom
Zn  Zn0  1  0.18435613  0.38585667  0.68626959  1  0  0.996343  0  1.820329  0  0  0.800589  0  2.288182  0  0  0.850522  0  2.233151  0  0  0.697013  0.765729  0  2.326  0
Zn  Zn1  1  0.81565286  0.61414323  0.31372995  1  0  0.996322  0  1.820414  0  0  0.800548  0  2.288274  0  0  0.85047  0  2.233251  0  0  0.697014  0.76569  0  2.326094  0
H  H2  1  0.15342842  0.64820363  0.54340443  1  0  0.09153  0  0.970129  0  0  0.10062  0  1.032486  0  0  0.102944  0  1.030637  0  0  0.117763  0.098917  0  1.033787  0
H  H3  1  0.84655331  0.35179736  0.45659257  1  0  0.091585  0  0.970076  0  0  0.100688  0  1.03241  0  0  0.103008  0  1.030563  0  0  0.117806  0.098992  0  1.033682  0
H  H4  1  0.99685825  0.86758278  0.54277457  1  0  0.108986  0  0.930332  0  0  0.123565  0  0.982309  0  0  0.127005  0  0.981311  0  0  0.108378  0.121032  0  0.983304  0
H  H5  1  0.00312089  0.13241823  0.45722060  1  0  0.109003  0  0.930307  0  0  0.12359  0  0.982285  0  0  0.127029  0  0.981287  0  0  0.108409  0.121082  0  0.98325  0
H  H6  1  0.71324806  0.70583880  0.79346866  1  0  0.112469  0  0.983604  0  0  0.119009  0  1.050988  0  0  0.122107  0  1.050421  0  0  0.105972  0.116774  0  1.051503  0
H  H7  1  0.28675973  0.29416107  0.20653693  1  0  0.112482  0  0.983563  0  0  0.119036  0  1.050935  0  0  0.122127  0  1.050374  0  0  0.105975  0.11679  0  1.051471  0
H  H8  1  0.88847414  0.49627969  0.78611993  1  0  0.076255  0  0.961885  0  0  0.085098  0  1.027577  0  0  0.087111  0  1.025694  0  0  0.115326  0.083586  0  1.028997  0
H  H9  1  0.11152881  0.50371928  0.21388484  1  0  0.076214  0  0.961964  0  0  0.085086  0  1.027624  0  0  0.087101  0  1.025739  0  0  0.115317  0.083576  0  1.029042  0
H  H10  1  0.85257197  0.99461480  0.65312255  1  0  0.072138  0  0.951382  0  0  0.086367  0  1.018277  0  0  0.087401  0  1.018767  0  0  0.088239  0.085656  0  1.017906  0
H  H11  1  0.14742678  0.00538515  0.34687762  1  0  0.072142  0  0.951399  0  0  0.086372  0  1.018277  0  0  0.087406  0  1.018766  0  0  0.088228  0.08566  0  1.017908  0
H  H12  1  0.65081481  0.97904850  0.62397491  1  0  0.094463  0  0.939582  0  0  0.113047  0  0.999823  0  0  0.113581  0  1.000185  0  0  0.099525  0.112641  0  0.999606  0
H  H13  1  0.34918042  0.02095052  0.37602769  1  0  0.094471  0  0.939617  0  0  0.113044  0  0.999848  0  0  0.11358  0  1.000208  0  0  0.099536  0.112643  0  0.999631  0
H  H14  1  0.77877262  0.89112578  0.82399681  1  0  0.048353  0  0.96539  0  0  0.062628  0  1.038826  0  0  0.063146  0  1.039279  0  0  0.077547  0.062226  0  1.038548  0
H  H15  1  0.22122803  0.10887228  0.17600435  1  0  0.048372  0  0.965361  0  0  0.062634  0  1.038834  0  0  0.063154  0  1.039286  0  0  0.077545  0.062221  0  1.038564  0
H  H16  1  0.57159763  0.88935709  0.79136697  1  0  0.065214  0  0.996615  0  0  0.074688  0  1.073012  0  0  0.076132  0  1.073044  0  0  0.082904  0.073589  0  1.073086  0
H  H17  1  0.42840182  0.11064471  0.20863669  1  0  0.065209  0  0.996585  0  0  0.074662  0  1.073008  0  0  0.076096  0  1.073061  0  0  0.082896  0.073572  0  1.073059  0
H  H18  1  0.49326457  0.12379741  0.72900806  1  0  0.099156  0  0.939613  0  0  0.113996  0  1.001476  0  0  0.116061  0  1.000347  0  0  0.096872  0.112433  0  1.002459  0
H  H19  1  0.50673839  0.87620532  0.27099251  1  0  0.099116  0  0.939618  0  0  0.113972  0  1.001466  0  0  0.116037  0  1.000336  0  0  0.09686  0.112408  0  1.002447  0
H  H20  1  0.53833432  0.06780262  0.84948546  1  0  0.083852  0  0.91092  0  0  0.104393  0  0.962056  0  0  0.105556  0  0.961931  0  0  0.096674  0.103569  0  0.962171  0
H  H21  1  0.46166700  0.93220107  0.15051168  1  0  0.083811  0  0.910909  0  0  0.104354  0  0.962057  0  0  0.105518  0  0.961929  0  0  0.096634  0.103529  0  0.962172  0
H  H22  1  0.62945691  0.28172995  0.63348690  1  0  0.118306  0  0.956602  0  0  0.128387  0  1.016153  0  0  0.131227  0  1.015933  0  0  0.110541  0.126309  0  1.016552  0
H  H23  1  0.37054954  0.71826995  0.36651479  1  0  0.118312  0  0.956622  0  0  0.128366  0  1.016215  0  0  0.131205  0  1.015993  0  0  0.110535  0.126286  0  1.016615  0
H  H24  1  0.86317885  0.39742695  0.60719234  1  0  0.089163  0  0.980034  0  0  0.094087  0  1.049979  0  0  0.097268  0  1.046916  0  0  0.11488  0.09177  0  1.052138  0
H  H25  1  0.13682316  0.60257861  0.39280630  1  0  0.0891  0  0.980289  0  0  0.094039  0  1.050208  0  0  0.097212  0  1.047174  0  0  0.114853  0.091721  0  1.052368  0
H  H26  1  0.10730776  0.16257324  0.85126777  1  0  0.083783  0  0.927122  0  0  0.094856  0  0.983729  0  0  0.097514  0  0.981358  0  0  0.118778  0.092885  0  0.985498  0
H  H27  1  0.89269677  0.83742855  0.14873227  1  0  0.083814  0  0.927097  0  0  0.094897  0  0.983691  0  0  0.097556  0  0.981323  0  0  0.118788  0.092925  0  0.985463  0
H  H28  1  0.88364975  0.03436831  0.88578979  1  0  0.10469  0  0.94069  0  0  0.11673  0  0.99615  0  0  0.120012  0  0.99555  0  0  0.105839  0.114363  0  0.996786  0
H  H29  1  0.11635956  0.96563063  0.11421128  1  0  0.104709  0  0.940662  0  0  0.116762  0  0.99611  0  0  0.120045  0  0.995508  0  0  0.105859  0.114394  0  0.996747  0
H  H30  1  0.46741997  0.48747992  0.35464318  1  0  0.105259  0  0.951553  0  0  0.113419  0  1.018866  0  0  0.116623  0  1.015827  0  0  0.109261  0.11101  0  1.021214  0
H  H31  1  0.53258605  0.51251719  0.64535324  1  0  0.105258  0  0.951579  0  0  0.113435  0  1.01886  0  0  0.11664  0  1.015819  0  0  0.109264  0.111024  0  1.021219  0
H  H32  1  0.64340345  0.39205196  0.23496687  1  0  0.10782  0  0.98251  0  0  0.112342  0  1.051933  0  0  0.115624  0  1.051662  0  0  0.097214  0.109954  0  1.052302  0
H  H33  1  0.35660995  0.60794228  0.76503308  1  0  0.107835  0  0.982525  0  0  0.112359  0  1.051941  0  0  0.11564  0  1.051671  0  0  0.09722  0.109956  0  1.052322  0
H  H34  1  0.44831561  0.11430428  0.52593845  1  0  0.082157  0  0.954113  0  0  0.082109  0  1.032438  0  0  0.086612  0  1.026898  0  0  0.109979  0.078802  0  1.036464  0
H  H35  1  0.55168054  0.88569569  0.47405989  1  0  0.082175  0  0.954088  0  0  0.082134  0  1.032401  0  0  0.086633  0  1.026865  0  0  0.109987  0.078825  0  1.036428  0
H  H36  1  0.87053168  0.35021819  0.94133456  1  0  0.134459  0  0.962065  0  0  0.143376  0  1.02313  0  0  0.147766  0  1.02032  0  0  0.106387  0.14018  0  1.025378  0
H  H37  1  0.12946995  0.64978079  0.05866698  1  0  0.134472  0  0.962068  0  0  0.143391  0  1.02313  0  0  0.147782  0  1.020318  0  0  0.106389  0.140197  0  1.025382  0
H  H38  1  0.64118220  0.39698057  0.82240311  1  0  0.099012  0  0.949943  0  0  0.108865  0  1.014835  0  0  0.111128  0  1.013617  0  0  0.107203  0.107259  0  1.015586  0
H  H39  1  0.35881659  0.60302312  0.17759683  1  0  0.099013  0  0.949883  0  0  0.108912  0  1.014726  0  0  0.111162  0  1.013537  0  0  0.107225  0.107303  0  1.015479  0
H  H40  1  0.27465465  0.29370922  0.04807190  1  0  0.07749  0  0.943008  0  0  0.081944  0  1.013826  0  0  0.085911  0  1.009423  0  0  0.109668  0.079055  0  1.017005  0
H  H41  1  0.72534422  0.70629822  0.95192980  1  0  0.077464  0  0.943008  0  0  0.081896  0  1.013853  0  0  0.085864  0  1.009448  0  0  0.109646  0.079009  0  1.01703  0
C  C42  1  0.05477541  0.66696408  0.59702360  1  0  0.131948  0  3.702379  0  0  0.097604  0  3.953372  0  0  0.105587  0  3.972239  0  0  0.042401  0.092512  0  3.940483  0
C  C43  1  0.94520790  0.33303596  0.40297287  1  0  0.13193  0  3.702213  0  0  0.09759  0  3.953215  0  0  0.105574  0  3.97208  0  0  0.042363  0.092504  0  3.940338  0
C  C44  1  0.96652414  0.78780758  0.59784732  1  0  -0.168439  0  3.702069  0  0  -0.187513  0  3.953796  0  0  -0.196662  0  3.9752  0  0  -0.083876  -0.181683  0  3.939523  0
C  C45  1  0.03346527  0.21219337  0.40214922  1  0  -0.168573  0  3.702072  0  0  -0.18767  0  3.953822  0  0  -0.196816  0  3.975225  0  0  -0.083909  -0.181862  0  3.939545  0
C  C46  1  0.84381312  0.80688156  0.66999559  1  0  0.167778  0  3.698596  0  0  0.18071  0  3.939974  0  0  0.18724  0  3.961434  0  0  0.017073  0.176519  0  3.925329  0
C  C47  1  0.15618656  0.19311557  0.33000585  1  0  0.167769  0  3.698711  0  0  0.180715  0  3.940049  0  0  0.187245  0  3.961506  0  0  0.017064  0.176524  0  3.925417  0
C  C48  1  0.81119272  0.69917395  0.73709548  1  0  -0.173834  0  3.698523  0  0  -0.189603  0  3.943753  0  0  -0.199244  0  3.966861  0  0  -0.088994  -0.183417  0  3.928427  0
C  C49  1  0.18880893  0.30082503  0.26290738  1  0  -0.173743  0  3.698438  0  0  -0.189541  0  3.943687  0  0  -0.199171  0  3.966801  0  0  -0.088985  -0.183349  0  3.928366  0
C  C50  1  0.90539824  0.58125124  0.73248744  1  0  0.133011  0  3.717922  0  0  0.100033  0  3.967979  0  0  0.108077  0  3.987084  0  0  0.043412  0.094897  0  3.954946  0
C  C51  1  0.09460601  0.41874772  0.26751792  1  0  0.132898  0  3.718051  0  0  0.099905  0  3.968139  0  0  0.107949  0  3.987241  0  0  0.043412  0.094771  0  3.955102  0
C  C52  1  0.75519958  0.93697516  0.67545912  1  0  -0.170705  0  3.704403  0  0  -0.212404  0  3.949787  0  0  -0.214554  0  3.962933  0  0  -0.163104  -0.210762  0  3.940486  0
C  C53  1  0.24479886  0.06302572  0.32454150  1  0  -0.170781  0  3.704599  0  0  -0.212448  0  3.949968  0  0  -0.214596  0  3.963113  0  0  -0.163135  -0.210818  0  3.940679  0
C  C54  1  0.67624957  0.94045243  0.77200191  1  0  -0.099622  0  3.683977  0  0  -0.136183  0  3.937432  0  0  -0.13743  0  3.951534  0  0  -0.170102  -0.135068  0  3.927563  0
C  C55  1  0.32375242  0.05954936  0.22799961  1  0  -0.099574  0  3.683925  0  0  -0.136134  0  3.937429  0  0  -0.137384  0  3.951528  0  0  -0.170062  -0.135007  0  3.92756  0
C  C56  1  0.59836147  0.07403522  0.77910912  1  0  -0.163713  0  3.687002  0  0  -0.206064  0  3.936608  0  0  -0.207994  0  3.948085  0  0  -0.159345  -0.204618  0  3.928554  0
C  C57  1  0.40164276  0.92596751  0.22089071  1  0  -0.163707  0  3.686894  0  0  -0.206073  0  3.936558  0  0  -0.207997  0  3.94803  0  0  -0.159366  -0.204621  0  3.928493  0
C  C58  1  0.73600732  0.14778643  0.76201666  1  0  0.172499  0  3.703231  0  0  0.18802  0  3.94016  0  0  0.194221  0  3.961664  0  0  0.02097  0.184086  0  3.925482  0
C  C59  1  0.26399852  0.85221534  0.23798462  1  0  0.172481  0  3.703136  0  0  0.187988  0  3.940089  0  0  0.194183  0  3.961605  0  0  0.02094  0.184053  0  3.925408  0
C  C60  1  0.73445960  0.25083233  0.68283316  1  0  -0.156457  0  3.68506  0  0  -0.17503  0  3.931937  0  0  -0.18289  0  3.952109  0  0  -0.081062  -0.170106  0  3.918578  0
C  C61  1  0.26554849  0.74917037  0.31716842  1  0  -0.156503  0  3.684999  0  0  -0.175045  0  3.931875  0  0  -0.1829  0  3.952045  0  0  -0.081067  -0.170122  0  3.918514  0
C  C62  1  0.86542513  0.31570375  0.66809353  1  0  0.116083  0  3.709163  0  0  0.084368  0  3.960657  0  0  0.091488  0  3.978593  0  0  0.040956  0.079848  0  3.948506  0
C  C63  1  0.13457841  0.68429335  0.33190900  1  0  0.116184  0  3.709243  0  0  0.084427  0  3.960702  0  0  0.091536  0  3.978622  0  0  0.040991  0.079912  0  3.948543  0
C  C64  1  0.00067625  0.18388663  0.80421152  1  0  0.136727  0  3.723118  0  0  0.103578  0  3.977808  0  0  0.11158  0  3.995689  0  0  0.046881  0.098449  0  3.965631  0
C  C65  1  0.99932795  0.81611234  0.19579053  1  0  0.13669  0  3.723081  0  0  0.103512  0  3.977762  0  0  0.111501  0  3.995641  0  0  0.046872  0.098385  0  3.965584  0
C  C66  1  0.87431905  0.11437406  0.82307439  1  0  -0.184998  0  3.725403  0  0  -0.203375  0  3.976456  0  0  -0.21262  0  3.998847  0  0  -0.089241  -0.19746  0  3.961447  0
C  C67  1  0.12568354  0.88562586  0.17692621  1  0  -0.185014  0  3.725323  0  0  -0.203397  0  3.976387  0  0  -0.212641  0  3.998782  0  0  -0.089254  -0.197481  0  3.961376  0
C  C68  1  0.34601265  0.36336017  0.52340868  1  0  0.634469  0  3.950917  0  0  0.586135  0  4.240882  0  0  0.620921  0  4.233747  0  0  0.197576  0.562584  0  4.244947  0
C  C69  1  0.65397608  0.63663892  0.47658635  1  0  0.634545  0  3.950822  0  0  0.586221  0  4.24077  0  0  0.621007  0  4.233628  0  0  0.197544  0.562672  0  4.244837  0
C  C70  1  0.44743381  0.30806845  0.45048996  1  0  -0.126413  0  3.756515  0  0  -0.102314  0  3.989871  0  0  -0.115327  0  4.014282  0  0  -0.021021  -0.094079  0  3.973523  0
C  C71  1  0.55256489  0.69193151  0.54950756  1  0  -0.126489  0  3.756543  0  0  -0.102378  0  3.989901  0  0  -0.115392  0  4.014316  0  0  -0.021027  -0.094142  0  3.973548  0
C  C72  1  0.50113900  0.38616935  0.36670941  1  0  0.002069  0  3.703631  0  0  -0.025667  0  3.952839  0  0  -0.019812  0  3.969827  0  0  -0.062368  -0.029101  0  3.941149  0
C  C73  1  0.49886479  0.61382682  0.63328869  1  0  0.002117  0  3.703364  0  0  -0.025643  0  3.952579  0  0  -0.019794  0  3.969574  0  0  -0.062351  -0.029081  0  3.940885  0
C  C74  1  0.59901225  0.33368120  0.30030586  1  0  -0.173844  0  3.762421  0  0  -0.191105  0  4.014457  0  0  -0.20018  0  4.036469  0  0  -0.096292  -0.185229  0  3.999724  0
C  C75  1  0.40099769  0.66631587  0.69969628  1  0  -0.173943  0  3.76219  0  0  -0.191155  0  4.014212  0  0  -0.200229  0  4.036231  0  0  -0.096323  -0.185267  0  3.999484  0
C  C76  1  0.64268868  0.20278575  0.32165815  1  0  0.197959  0  3.80134  0  0  0.201046  0  4.070647  0  0  0.211444  0  4.087919  0  0  0.117278  0.194066  0  4.058922  0
C  C77  1  0.35731646  0.79721417  0.67834097  1  0  0.198013  0  3.801389  0  0  0.201014  0  4.070818  0  0  0.21141  0  4.088084  0  0  0.117251  0.194034  0  4.059089  0
C  C78  1  0.49340284  0.17822452  0.46323250  1  0  0.123671  0  3.694031  0  0  0.091116  0  3.951833  0  0  0.099351  0  3.967315  0  0  0.049082  0.085949  0  3.941158  0
C  C79  1  0.50659682  0.82177261  0.53676695  1  0  0.12369  0  3.694016  0  0  0.091128  0  3.951811  0  0  0.099367  0  3.967294  0  0  0.049091  0.085963  0  3.941133  0
C  C80  1  0.68835630  0.29273638  0.05639076  1  0  0.199009  0  3.7982  0  0  0.201835  0  4.066173  0  0  0.211627  0  4.084671  0  0  0.115865  0.195274  0  4.053538  0
C  C81  1  0.31164311  0.70726543  0.94360958  1  0  0.19899  0  3.798219  0  0  0.20181  0  4.066196  0  0  0.211603  0  4.084694  0  0  0.115858  0.195248  0  4.053563  0
C  C82  1  0.73654656  0.33976343  0.96213432  1  0  -0.171463  0  3.703524  0  0  -0.185207  0  3.947061  0  0  -0.194231  0  3.967488  0  0  -0.093314  -0.179383  0  3.933405  0
C  C83  1  0.26345323  0.66024119  0.03786732  1  0  -0.171497  0  3.703734  0  0  -0.185244  0  3.947281  0  0  -0.194267  0  3.967705  0  0  -0.093265  -0.179427  0  3.933632  0
C  C84  1  0.61016631  0.36548150  0.89684253  1  0  0.001568  0  3.700561  0  0  -0.027241  0  3.950828  0  0  -0.021531  0  3.96941  0  0  -0.065304  -0.030606  0  3.938101  0
C  C85  1  0.38982868  0.63452597  0.10315609  1  0  0.00161  0  3.700595  0  0  -0.027218  0  3.950876  0  0  -0.02151  0  3.969454  0  0  -0.065362  -0.030582  0  3.93815  0
C  C86  1  0.44177435  0.34625442  0.92666908  1  0  -0.124542  0  3.753734  0  0  -0.10071  0  3.988352  0  0  -0.11299  0  4.011585  0  0  -0.023699  -0.093033  0  3.972936  0
C  C87  1  0.55822846  0.65374082  0.07332930  1  0  -0.124545  0  3.753722  0  0  -0.100744  0  3.988394  0  0  -0.113023  0  4.011623  0  0  -0.02372  -0.093069  0  3.972979  0
C  C88  1  0.40634341  0.30602243  0.02269936  1  0  0.126557  0  3.7012  0  0  0.096126  0  3.949754  0  0  0.10379  0  3.965658  0  0  0.05118  0.091291  0  3.93888  0
C  C89  1  0.59365815  0.69397281  0.97730109  1  0  0.126518  0  3.701064  0  0  0.096111  0  3.949615  0  0  0.103775  0  3.965517  0  0  0.051174  0.091277  0  3.938742  0
C  C90  1  0.30428388  0.36030736  0.86031305  1  0  0.630717  0  3.956021  0  0  0.581593  0  4.250882  0  0  0.616438  0  4.243227  0  0  0.194925  0.557992  0  4.255307  0
C  C91  1  0.69571354  0.63968884  0.13968809  1  0  0.630608  0  3.956053  0  0  0.581465  0  4.250938  0  0  0.616311  0  4.243282  0  0  0.194876  0.557866  0  4.255362  0
S  S92  1  0.77641243  0.11706766  0.24873928  1  0  0.021394  0  2.431647  0  0  0.013187  0  2.7933  0  0  0.012023  0  2.790116  0  0  0.060017  0.014224  0  2.795378  0
S  S93  1  0.22359166  0.88292381  0.75126256  1  0  0.021408  0  2.431701  0  0  0.01323  0  2.793379  0  0  0.012065  0  2.790198  0  0  0.060049  0.014269  0  2.795459  0
S  S94  1  0.85729185  0.24749232  0.13901532  1  0  -0.009995  0  2.411754  0  0  -0.012308  0  2.767138  0  0  -0.014729  0  2.76495  0  0  0.047751  -0.010473  0  2.768647  0
S  S95  1  0.14270653  0.75250481  0.86098553  1  0  -0.01002  0  2.411751  0  0  -0.012335  0  2.767142  0  0  -0.014755  0  2.764954  0  0  0.047722  -0.010494  0  2.768644  0
N  N96  1  0.99625839  0.28356468  0.72796031  1  0  -0.343007  0  3.333258  0  0  -0.258009  0  3.609437  0  0  -0.278152  0  3.624495  0  0  -0.337475  -0.24449  0  3.599057  0
N  N97  1  0.00374491  0.71643710  0.27204311  1  0  -0.342988  0  3.333219  0  0  -0.257918  0  3.609335  0  0  -0.278032  0  3.624365  0  0  -0.337425  -0.244401  0  3.598955  0
N  N98  1  0.02720926  0.56425053  0.66449494  1  0  -0.346795  0  3.321415  0  0  -0.258964  0  3.599098  0  0  -0.280388  0  3.614509  0  0  -0.335053  -0.244589  0  3.588472  0
N  N99  1  0.97278535  0.43575037  0.33550658  1  0  -0.346586  0  3.321383  0  0  -0.258774  0  3.599087  0  0  -0.280197  0  3.614502  0  0  -0.335017  -0.244401  0  3.588459  0
N  N100  1  0.52674113  0.27896056  0.08678139  1  0  -0.351352  0  3.146083  0  0  -0.310491  0  3.407846  0  0  -0.324422  0  3.424425  0  0  -0.319517  -0.300968  0  3.396314  0
N  N101  1  0.47325381  0.72104315  0.91321812  1  0  -0.351269  0  3.145899  0  0  -0.310405  0  3.407667  0  0  -0.324341  0  3.424251  0  0  -0.31948  -0.300879  0  3.396126  0
N  N102  1  0.59099640  0.12569901  0.40050296  1  0  -0.347507  0  3.070966  0  0  -0.309836  0  3.338335  0  0  -0.323114  0  3.350865  0  0  -0.324452  -0.300694  0  3.329545  0
N  N103  1  0.40900553  0.87429904  0.59949812  1  0  -0.347511  0  3.071046  0  0  -0.309817  0  3.338444  0  0  -0.323093  0  3.350977  0  0  -0.324417  -0.300675  0  3.329653  0
O  O104  1  0.36042598  0.37454382  0.77413551  1  0  -0.645602  0  2.053568  0  0  -0.565154  0  2.32562  0  0  -0.59515  0  2.311938  0  0  -0.32961  -0.544124  0  2.334288  0
O  O105  1  0.63957370  0.62545330  0.22586594  1  0  -0.645628  0  2.05356  0  0  -0.565146  0  2.325584  0  0  -0.595138  0  2.311901  0  0  -0.32962  -0.544117  0  2.334252  0
O  O106  1  0.15086019  0.35449825  0.88999585  1  0  -0.626827  0  1.928343  0  0  -0.589083  0  2.156319  0  0  -0.611351  0  2.146115  0  0  -0.328465  -0.57345  0  2.162791  0
O  O107  1  0.84913350  0.64550923  0.11000153  1  0  -0.62673  0  1.928331  0  0  -0.58898  0  2.15632  0  0  -0.611249  0  2.146118  0  0  -0.328405  -0.573348  0  2.162792  0
O  O108  1  0.31996644  0.28514236  0.60350878  1  0  -0.645906  0  2.027924  0  0  -0.574562  0  2.292169  0  0  -0.603431  0  2.277348  0  0  -0.333597  -0.554373  0  2.301669  0
O  O109  1  0.68004249  0.71485379  0.39649033  1  0  -0.645861  0  2.027983  0  0  -0.574542  0  2.29225  0  0  -0.60341  0  2.277428  0  0  -0.333571  -0.554354  0  2.301749  0
O  O110  1  0.29282397  0.48034285  0.50633666  1  0  -0.615276  0  1.958295  0  0  -0.564598  0  2.189459  0  0  -0.58878  0  2.180249  0  0  -0.315426  -0.547688  0  2.195206  0
O  O111  1  0.70713583  0.51965454  0.49365462  1  0  -0.615429  0  1.958293  0  0  -0.564729  0  2.189433  0  0  -0.588911  0  2.180214  0  0  -0.315444  -0.547821  0  2.195184  0
