# generated using pymatgen
data_MoPH14C7O4
_symmetry_space_group_name_H-M   'P 1'
_cell_length_a   7.51967815
_cell_length_b   8.34820528
_cell_length_c   9.56871506
_cell_angle_alpha   69.01698794
_cell_angle_beta   69.77897406
_cell_angle_gamma   78.36637444
_symmetry_Int_Tables_number   1
_chemical_formula_structural   MoPH14C7O4
_chemical_formula_sum   'Mo2 P2 H28 C14 O8'
_cell_volume   524.19983143
_cell_formula_units_Z   2
loop_
 _symmetry_equiv_pos_site_id
 _symmetry_equiv_pos_as_xyz
  1  'x, y, z'
loop_
 _atom_site_type_symbol
 _atom_site_label
 _atom_site_symmetry_multiplicity
 _atom_site_fract_x
 _atom_site_fract_y
 _atom_site_fract_z
 _atom_site_occupancy
 _atom_site_hle17_bader_spin_density
 _atom_site_hle17_ddec_charge
 _atom_site_hle17_ddec_spin_density
 _atom_site_hle17_ddec_sum_bond_order
 _atom_site_hle17_magmom
 _atom_site_hse06_10hf_bader_spin_density
 _atom_site_hse06_10hf_ddec_charge
 _atom_site_hse06_10hf_ddec_spin_density
 _atom_site_hse06_10hf_ddec_sum_bond_order
 _atom_site_hse06_10hf_magmom
 _atom_site_hse06_bader_spin_density
 _atom_site_hse06_ddec_charge
 _atom_site_hse06_ddec_spin_density
 _atom_site_hse06_ddec_sum_bond_order
 _atom_site_hse06_magmom
 _atom_site_pbe_bader_spin_density
 _atom_site_pbe_cm5_charge
 _atom_site_pbe_ddec_charge
 _atom_site_pbe_ddec_spin_density
 _atom_site_pbe_ddec_sum_bond_order
 _atom_site_pbe_magmom
Mo  Mo0  1  0.03915140  0.92007655  0.60229962  1  0  0.837843  0  3.756379  0  0  0.757556  0  4.378051  0  0  0.796616  0  4.353378  0  0  0.749342  0.730473  0  4.395535  0
Mo  Mo1  1  0.96086587  0.07995351  0.39767979  1  0  0.837164  0  3.756244  0  0  0.757324  0  4.377841  0  0  0.796429  0  4.353119  0  0  0.749299  0.73026  0  4.395342  0
P  P2  1  0.84539128  0.26011760  0.10622635  1  0  0.36951  0  3.308036  0  0  0.335686  0  3.745053  0  0  0.342187  0  3.745305  0  0  0.000918  0.330914  0  3.745097  0
P  P3  1  0.15459736  0.73988071  0.89376987  1  0  0.369494  0  3.307836  0  0  0.335713  0  3.744808  0  0  0.342216  0  3.745058  0  0  0.00096  0.330951  0  3.744817  0
H  H4  1  0.54017829  0.89152906  0.09248255  1  0  0.141417  0  0.946472  0  0  0.159865  0  1.004951  0  0  0.162564  0  1.003506  0  0  0.098979  0.158009  0  1.005815  0
H  H5  1  0.45980632  0.10844742  0.90750698  1  0  0.141424  0  0.946406  0  0  0.1599  0  1.004884  0  0  0.162601  0  1.003436  0  0  0.09898  0.158048  0  1.005745  0
H  H6  1  0.64150471  0.85047957  0.24814726  1  0  0.150222  0  0.958176  0  0  0.166092  0  1.021444  0  0  0.169643  0  1.01954  0  0  0.102798  0.163593  0  1.022816  0
H  H7  1  0.35851968  0.14949377  0.75181346  1  0  0.150223  0  0.958232  0  0  0.166186  0  1.021402  0  0  0.169739  0  1.019493  0  0  0.10283  0.163684  0  1.022777  0
H  H8  1  0.52868099  0.68746107  0.24182141  1  0  0.133635  0  0.944161  0  0  0.153071  0  1.005128  0  0  0.155125  0  1.004983  0  0  0.100019  0.151659  0  1.005138  0
H  H9  1  0.47130499  0.31251798  0.75818575  1  0  0.133638  0  0.944122  0  0  0.153079  0  1.00513  0  0  0.15513  0  1.004989  0  0  0.100007  0.151664  0  1.005141  0
H  H10  1  0.74476367  0.47428622  0.62225408  1  0  0.128231  0  0.962182  0  0  0.146365  0  1.023924  0  0  0.148553  0  1.023065  0  0  0.095423  0.144742  0  1.024682  0
H  H11  1  0.25526128  0.52574117  0.37776689  1  0  0.128355  0  0.962091  0  0  0.146415  0  1.023893  0  0  0.148607  0  1.02303  0  0  0.095445  0.144792  0  1.024657  0
H  H12  1  0.84342616  0.53139175  0.41580110  1  0  0.150002  0  0.945981  0  0  0.167057  0  1.008125  0  0  0.170288  0  1.006717  0  0  0.102754  0.16475  0  1.009159  0
H  H13  1  0.15659661  0.46860866  0.58421534  1  0  0.149985  0  0.946039  0  0  0.166982  0  1.008237  0  0  0.17021  0  1.00683  0  0  0.10274  0.164687  0  1.009252  0
H  H14  1  0.60998200  0.61880867  0.49716001  1  0  0.141973  0  0.95608  0  0  0.160029  0  1.017467  0  0  0.162982  0  1.015903  0  0  0.100157  0.157968  0  1.018483  0
H  H15  1  0.39003774  0.38119306  0.50284745  1  0  0.141989  0  0.956148  0  0  0.159986  0  1.017572  0  0  0.162936  0  1.016016  0  0  0.100183  0.157924  0  1.018591  0
H  H16  1  0.15251340  0.47331853  0.85179749  1  0  0.089214  0  0.947053  0  0  0.111372  0  1.002431  0  0  0.111961  0  1.003582  0  0  0.09604  0.1109  0  1.001589  0
H  H17  1  0.84747427  0.52667464  0.14820374  1  0  0.089249  0  0.947107  0  0  0.111391  0  1.002477  0  0  0.111983  0  1.003624  0  0  0.096009  0.110923  0  1.00164  0
H  H18  1  0.19180428  0.43082969  0.03519209  1  0  0.096645  0  0.942995  0  0  0.115371  0  1.001404  0  0  0.117166  0  1.001064  0  0  0.096079  0.11405  0  1.00168  0
H  H19  1  0.80817338  0.56918293  0.96481314  1  0  0.096547  0  0.943003  0  0  0.115284  0  1.001411  0  0  0.117081  0  1.001066  0  0  0.095988  0.113962  0  1.001672  0
H  H20  1  0.17521831  0.67014143  0.16046679  1  0  0.125915  0  0.95672  0  0  0.148303  0  1.013003  0  0  0.150386  0  1.012757  0  0  0.091012  0.147102  0  1.013505  0
H  H21  1  0.82473506  0.32987153  0.83952624  1  0  0.12594  0  0.956663  0  0  0.148264  0  1.013022  0  0  0.150346  0  1.012775  0  0  0.090996  0.147069  0  1.013511  0
H  H22  1  0.16303170  0.89708605  0.06249243  1  0  0.141335  0  0.963954  0  0  0.163605  0  1.019946  0  0  0.165562  0  1.020412  0  0  0.096631  0.162413  0  1.019467  0
H  H23  1  0.83694281  0.10292918  0.93750135  1  0  0.141338  0  0.964026  0  0  0.163616  0  1.019986  0  0  0.165573  0  1.02045  0  0  0.096639  0.162425  0  1.019507  0
H  H24  1  0.95512791  0.78909269  0.14044849  1  0  0.130946  0  0.972152  0  0  0.151656  0  1.03235  0  0  0.153381  0  1.032609  0  0  0.093265  0.150514  0  1.032231  0
H  H25  1  0.04483091  0.21092147  0.85952907  1  0  0.131034  0  0.97221  0  0  0.151766  0  1.032365  0  0  0.153494  0  1.032622  0  0  0.093305  0.150625  0  1.03224  0
H  H26  1  0.47122560  0.84057485  0.79130813  1  0  0.139889  0  0.966341  0  0  0.164847  0  1.016749  0  0  0.166351  0  1.017399  0  0  0.097119  0.163693  0  1.016401  0
H  H27  1  0.52881544  0.15934039  0.20873619  1  0  0.139773  0  0.966412  0  0  0.164831  0  1.016666  0  0  0.166332  0  1.017323  0  0  0.097116  0.16367  0  1.016348  0
H  H28  1  0.47665145  0.62330781  0.91668111  1  0  0.11921  0  0.970885  0  0  0.140074  0  1.031797  0  0  0.141952  0  1.031517  0  0  0.088063  0.138763  0  1.031875  0
H  H29  1  0.52329233  0.37661912  0.08339375  1  0  0.118977  0  0.971088  0  0  0.139885  0  1.031989  0  0  0.141764  0  1.031708  0  0  0.087929  0.138586  0  1.03206  0
H  H30  1  0.46072130  0.67355375  0.72267944  1  0  0.130401  0  0.976862  0  0  0.153596  0  1.034579  0  0  0.155074  0  1.034803  0  0  0.09466  0.15246  0  1.034496  0
H  H31  1  0.53929463  0.32637472  0.27737395  1  0  0.130414  0  0.977008  0  0  0.153592  0  1.034742  0  0  0.155072  0  1.034962  0  0  0.09468  0.15247  0  1.034654  0
C  C32  1  0.33819133  0.88890698  0.31717489  1  0  0.698985  0  3.771333  0  0  0.655472  0  4.074095  0  0  0.689944  0  4.068354  0  0  0.200955  0.632158  0  4.077639  0
C  C33  1  0.66182525  0.11111279  0.68279643  1  0  0.699045  0  3.771395  0  0  0.655875  0  4.073751  0  0  0.690315  0  4.068053  0  0  0.201114  0.632583  0  4.077263  0
C  C34  1  0.52294647  0.82716950  0.21749356  1  0  -0.455864  0  3.654238  0  0  -0.53132  0  3.89055  0  0  -0.538405  0  3.891654  0  0  -0.242528  -0.526163  0  3.889384  0
C  C35  1  0.47704554  0.17282104  0.78249371  1  0  -0.455882  0  3.654202  0  0  -0.531581  0  3.89034  0  0  -0.538653  0  3.891453  0  0  -0.242608  -0.526435  0  3.889173  0
C  C36  1  0.83413102  0.72952805  0.51164789  1  0  0.710402  0  3.751054  0  0  0.667927  0  4.049545  0  0  0.702135  0  4.044659  0  0  0.204903  0.644823  0  4.052409  0
C  C37  1  0.16589601  0.27050573  0.48834333  1  0  0.71055  0  3.751192  0  0  0.668014  0  4.049771  0  0  0.702236  0  4.044838  0  0  0.205214  0.64491  0  4.052648  0
C  C38  1  0.75203500  0.57969273  0.51262146  1  0  -0.456234  0  3.661217  0  0  -0.533291  0  3.897582  0  0  -0.540322  0  3.898982  0  0  -0.245388  -0.528304  0  3.896446  0
C  C39  1  0.24798997  0.42033336  0.48739051  1  0  -0.456336  0  3.661269  0  0  -0.533204  0  3.897669  0  0  -0.540237  0  3.899056  0  0  -0.245439  -0.528229  0  3.896526  0
C  C40  1  0.89445713  0.48796784  0.04150754  1  0  -0.260963  0  3.691275  0  0  -0.283882  0  3.947775  0  0  -0.287676  0  3.96167  0  0  -0.169478  -0.281014  0  3.93814  0
C  C41  1  0.10551830  0.51203580  0.95848753  1  0  -0.26101  0  3.69127  0  0  -0.283971  0  3.947853  0  0  -0.287762  0  3.961742  0  0  -0.169588  -0.281114  0  3.93825  0
C  C42  1  0.10831328  0.77627179  0.08168854  1  0  -0.465697  0  3.635244  0  0  -0.521772  0  3.871881  0  0  -0.527278  0  3.88026  0  0  -0.255041  -0.518813  0  3.866956  0
C  C43  1  0.89166714  0.22374079  0.91830654  1  0  -0.46579  0  3.635483  0  0  -0.521827  0  3.872139  0  0  -0.527332  0  3.880516  0  0  -0.255069  -0.518857  0  3.86718  0
C  C44  1  0.41532644  0.71606821  0.82656256  1  0  -0.467768  0  3.646693  0  0  -0.524954  0  3.881266  0  0  -0.530046  0  3.889487  0  0  -0.254323  -0.521061  0  3.875623  0
C  C45  1  0.58466160  0.28387095  0.17348474  1  0  -0.467476  0  3.647043  0  0  -0.524717  0  3.881424  0  0  -0.529805  0  3.889633  0  0  -0.254168  -0.520841  0  3.875819  0
O  O46  1  0.29989427  0.82908701  0.46771601  1  0  -0.572178  0  2.116449  0  0  -0.518606  0  2.378671  0  0  -0.546923  0  2.375759  0  0  -0.33798  -0.49919  0  2.38028  0
O  O47  1  0.70012362  0.17097005  0.53225060  1  0  -0.572079  0  2.116531  0  0  -0.518675  0  2.378599  0  0  -0.546985  0  2.375697  0  0  -0.337937  -0.499265  0  2.380204  0
O  O48  1  0.77837848  0.00028731  0.74810763  1  0  -0.591899  0  2.174659  0  0  -0.543539  0  2.445727  0  0  -0.572562  0  2.444635  0  0  -0.33388  -0.5237  0  2.446249  0
O  O49  1  0.22163783  0.99973503  0.25185565  1  0  -0.591795  0  2.174486  0  0  -0.543318  0  2.445635  0  0  -0.572365  0  2.444547  0  0  -0.333751  -0.523459  0  2.446148  0
O  O50  1  0.91335690  0.70942564  0.61751209  1  0  -0.57932  0  2.135356  0  0  -0.527938  0  2.404529  0  0  -0.556601  0  2.402311  0  0  -0.33932  -0.508188  0  2.405473  0
O  O51  1  0.08668172  0.29062212  0.38246737  1  0  -0.579261  0  2.13521  0  0  -0.527957  0  2.404535  0  0  -0.55665  0  2.402351  0  0  -0.339368  -0.508208  0  2.405497  0
O  O52  1  0.17143249  0.12564229  0.59657206  1  0  -0.585776  0  2.152757  0  0  -0.532808  0  2.414864  0  0  -0.562241  0  2.414281  0  0  -0.331463  -0.512752  0  2.415328  0
O  O53  1  0.82856277  0.87439580  0.40339943  1  0  -0.585588  0  2.152458  0  0  -0.532685  0  2.414529  0  0  -0.56209  0  2.413897  0  0  -0.33122  -0.512626  0  2.414991  0
