# generated using pymatgen
data_DyPH11C9SNO9
_symmetry_space_group_name_H-M   'P 1'
_cell_length_a   6.71814531
_cell_length_b   13.34146735
_cell_length_c   14.97294717
_cell_angle_alpha   90.54091180
_cell_angle_beta   90.00007156
_cell_angle_gamma   90.00005220
_symmetry_Int_Tables_number   1
_chemical_formula_structural   DyPH11C9SNO9
_chemical_formula_sum   'Dy4 P4 H44 C36 S4 N4 O36'
_cell_volume   1341.96419782
_cell_formula_units_Z   4
loop_
 _symmetry_equiv_pos_site_id
 _symmetry_equiv_pos_as_xyz
  1  'x, y, z'
loop_
 _atom_site_type_symbol
 _atom_site_label
 _atom_site_symmetry_multiplicity
 _atom_site_fract_x
 _atom_site_fract_y
 _atom_site_fract_z
 _atom_site_occupancy
 _atom_site_hle17_bader_spin_density
 _atom_site_hle17_ddec_charge
 _atom_site_hle17_ddec_spin_density
 _atom_site_hle17_ddec_sum_bond_order
 _atom_site_hle17_magmom
 _atom_site_hse06_10hf_bader_spin_density
 _atom_site_hse06_10hf_ddec_charge
 _atom_site_hse06_10hf_ddec_spin_density
 _atom_site_hse06_10hf_ddec_sum_bond_order
 _atom_site_hse06_10hf_magmom
 _atom_site_hse06_bader_spin_density
 _atom_site_hse06_ddec_charge
 _atom_site_hse06_ddec_spin_density
 _atom_site_hse06_ddec_sum_bond_order
 _atom_site_hse06_magmom
 _atom_site_pbe_bader_spin_density
 _atom_site_pbe_cm5_charge
 _atom_site_pbe_ddec_charge
 _atom_site_pbe_ddec_spin_density
 _atom_site_pbe_ddec_sum_bond_order
 _atom_site_pbe_magmom
Dy  Dy0  1  0.87496755  0.54748229  0.61910507  1  0  2.364518  0  1.594228  0  0  2.301886  0  1.910063  0  0  2.342819  0  1.87206  0  0  1.553477  2.200961  0  2.066697  0
Dy  Dy1  1  0.37496971  0.45251849  0.88089506  1  0  2.364505  0  1.594182  0  0  2.301897  0  1.910014  0  0  2.342831  0  1.872011  0  0  1.55348  2.200958  0  2.066675  0
Dy  Dy2  1  0.12502950  0.45252010  0.38089441  1  0  2.364541  0  1.594231  0  0  2.301913  0  1.91006  0  0  2.342845  0  1.872057  0  0  1.55352  2.200972  0  2.066725  0
Dy  Dy3  1  0.62503031  0.54748014  0.11910573  1  0  2.364541  0  1.594251  0  0  2.301908  0  1.910082  0  0  2.342839  0  1.87208  0  0  1.553504  2.200994  0  2.066694  0
P  P4  1  0.86953312  0.37777747  0.80331879  1  0  1.531338  0  4.949303  0  0  1.367467  0  5.462495  0  0  1.420145  0  5.416493  0  0  0.373726  1.329241  0  5.486187  0
P  P5  1  0.36953061  0.62222256  0.69668267  1  0  1.531461  0  4.949243  0  0  1.367621  0  5.462336  0  0  1.4203  0  5.41633  0  0  0.37378  1.329379  0  5.486072  0
P  P6  1  0.13046691  0.62222266  0.19668067  1  0  1.531452  0  4.949184  0  0  1.367595  0  5.462349  0  0  1.420278  0  5.416337  0  0  0.373787  1.329365  0  5.486056  0
P  P7  1  0.63046644  0.37777758  0.30331813  1  0  1.531372  0  4.949178  0  0  1.36751  0  5.462341  0  0  1.420189  0  5.416339  0  0  0.373769  1.329285  0  5.486044  0
H  H8  1  0.85658019  0.22514398  0.94404964  1  0  0.135827  0  0.934609  0  0  0.144787  0  0.989558  0  0  0.148838  0  0.987869  0  0  0.122794  0.141605  0  0.991577  0
H  H9  1  0.35658799  0.77485455  0.55595046  1  0  0.135864  0  0.934539  0  0  0.14485  0  0.989441  0  0  0.148901  0  0.987752  0  0  0.122824  0.14167  0  0.991461  0
H  H10  1  0.14341388  0.77485391  0.05595047  1  0  0.135827  0  0.934583  0  0  0.144822  0  0.989486  0  0  0.148872  0  0.987796  0  0  0.122813  0.14164  0  0.991507  0
H  H11  1  0.64341501  0.22514634  0.44405035  1  0  0.135822  0  0.934586  0  0  0.144805  0  0.989499  0  0  0.148856  0  0.98781  0  0  0.122815  0.141627  0  0.991522  0
H  H12  1  0.85866243  0.03781235  0.93804893  1  0  0.096311  0  0.926533  0  0  0.111266  0  0.981764  0  0  0.113641  0  0.980004  0  0  0.113517  0.109554  0  0.982987  0
H  H13  1  0.35866315  0.96218692  0.56195117  1  0  0.096305  0  0.926558  0  0  0.111238  0  0.981808  0  0  0.113613  0  0.980049  0  0  0.113511  0.109526  0  0.98303  0
H  H14  1  0.14133759  0.96218554  0.06194917  1  0  0.096311  0  0.926465  0  0  0.11126  0  0.981706  0  0  0.113635  0  0.979945  0  0  0.113513  0.109549  0  0.98293  0
H  H15  1  0.64133985  0.03781471  0.43804964  1  0  0.096299  0  0.92651  0  0  0.111246  0  0.981751  0  0  0.11362  0  0.979993  0  0  0.113515  0.109536  0  0.982975  0
H  H16  1  0.85604925  0.87828133  0.84514415  1  0  0.115746  0  0.950273  0  0  0.12469  0  1.011573  0  0  0.12811  0  1.00921  0  0  0.105702  0.122171  0  1.01335  0
H  H17  1  0.35604721  0.12171870  0.65485462  1  0  0.115719  0  0.950328  0  0  0.1247  0  1.011569  0  0  0.128128  0  1.009212  0  0  0.105721  0.122177  0  1.013349  0
H  H18  1  0.14395375  0.12171656  0.15485328  1  0  0.115704  0  0.950315  0  0  0.124656  0  1.011597  0  0  0.128085  0  1.009236  0  0  0.1057  0.122133  0  1.013379  0
H  H19  1  0.64395431  0.87828294  0.34514686  1  0  0.115695  0  0.950307  0  0  0.12465  0  1.011586  0  0  0.12808  0  1.009228  0  0  0.1057  0.122125  0  1.013369  0
H  H20  1  0.86134210  0.79824317  0.69514750  1  0  0.117869  0  0.955554  0  0  0.126452  0  1.018003  0  0  0.129775  0  1.016365  0  0  0.113162  0.124223  0  1.018638  0
H  H21  1  0.36134508  0.20175910  0.80485063  1  0  0.117877  0  0.95549  0  0  0.126461  0  1.017942  0  0  0.129783  0  1.016305  0  0  0.113162  0.124231  0  1.018575  0
H  H22  1  0.13865792  0.20175696  0.30484929  1  0  0.117849  0  0.955574  0  0  0.126442  0  1.018011  0  0  0.129765  0  1.016373  0  0  0.113137  0.124213  0  1.018645  0
H  H23  1  0.63865792  0.79824328  0.19515019  1  0  0.117877  0  0.955535  0  0  0.126446  0  1.018002  0  0  0.129769  0  1.016364  0  0  0.11314  0.124215  0  1.018633  0
H  H24  1  0.86469710  0.90022426  0.55954562  1  0  0.099527  0  0.950373  0  0  0.110519  0  1.008392  0  0  0.113347  0  1.00671  0  0  0.104691  0.108238  0  1.010057  0
H  H25  1  0.36469729  0.09977876  0.94045319  1  0  0.099546  0  0.950398  0  0  0.110545  0  1.008407  0  0  0.113374  0  1.006725  0  0  0.1047  0.108265  0  1.010071  0
H  H26  1  0.13530442  0.09977587  0.44045184  1  0  0.099563  0  0.950307  0  0  0.110553  0  1.008342  0  0  0.113378  0  1.006662  0  0  0.10471  0.108272  0  1.01001  0
H  H27  1  0.63530422  0.90022512  0.05954831  1  0  0.099547  0  0.950333  0  0  0.110534  0  1.008368  0  0  0.11336  0  1.006688  0  0  0.104696  0.108253  0  1.010035  0
H  H28  1  0.86680707  0.08914421  0.57032676  1  0  0.118914  0  0.96559  0  0  0.126613  0  1.028363  0  0  0.130083  0  1.02695  0  0  0.108009  0.124093  0  1.029475  0
H  H29  1  0.36679979  0.91085957  0.92967406  1  0  0.118865  0  0.965645  0  0  0.126564  0  1.028421  0  0  0.130034  0  1.027008  0  0  0.107976  0.12404  0  1.029538  0
H  H30  1  0.13319295  0.91085668  0.42967137  1  0  0.11887  0  0.965638  0  0  0.126608  0  1.028373  0  0  0.130078  0  1.026959  0  0  0.107995  0.124083  0  1.029492  0
H  H31  1  0.63319428  0.08914356  0.07032810  1  0  0.118899  0  0.965603  0  0  0.126634  0  1.028341  0  0  0.130104  0  1.026928  0  0  0.108014  0.124111  0  1.029458  0
H  H32  1  0.86645604  0.23144641  0.66228749  1  0  0.314943  0  0.914315  0  0  0.29011  0  0.981684  0  0  0.299684  0  0.974114  0  0  0.314478  0.283133  0  0.98764  0
H  H33  1  0.36645271  0.76855437  0.83771263  1  0  0.314889  0  0.914453  0  0  0.290092  0  0.98173  0  0  0.299667  0  0.974159  0  0  0.314492  0.283113  0  0.987688  0
H  H34  1  0.13354398  0.76855223  0.33771129  1  0  0.314871  0  0.914452  0  0  0.29011  0  0.981722  0  0  0.299684  0  0.974151  0  0  0.314477  0.283129  0  0.987681  0
H  H35  1  0.63354434  0.23144802  0.16228818  1  0  0.314919  0  0.914403  0  0  0.290159  0  0.981667  0  0  0.299735  0  0.974093  0  0  0.314492  0.283179  0  0.987628  0
H  H36  1  0.05558694  0.61012190  0.79126425  1  0  0.43686  0  0.860673  0  0  0.410066  0  0.917848  0  0  0.419982  0  0.903202  0  0  0.310728  0.402901  0  0.92805  0
H  H37  1  0.55558772  0.38987948  0.70873571  1  0  0.436842  0  0.860697  0  0  0.410047  0  0.917873  0  0  0.419962  0  0.903228  0  0  0.310724  0.402878  0  0.928079  0
H  H38  1  0.94441457  0.38987898  0.20873656  1  0  0.436847  0  0.860694  0  0  0.410056  0  0.917863  0  0  0.419972  0  0.903216  0  0  0.31073  0.402888  0  0.928067  0
H  H39  1  0.44441528  0.61012140  0.29126376  1  0  0.436888  0  0.860637  0  0  0.410094  0  0.917812  0  0  0.42001  0  0.903165  0  0  0.310739  0.402927  0  0.928016  0
H  H40  1  0.83687109  0.65114927  0.80998814  1  0  0.461811  0  0.819939  0  0  0.43469  0  0.875098  0  0  0.444851  0  0.86022  0  0  0.309732  0.426935  0  0.886401  0
H  H41  1  0.33687253  0.34885300  0.69001332  1  0  0.461856  0  0.81989  0  0  0.434752  0  0.875021  0  0  0.444914  0  0.860141  0  0  0.309782  0.426998  0  0.886323  0
H  H42  1  0.16312745  0.34885087  0.19001400  1  0  0.461852  0  0.819885  0  0  0.434738  0  0.87503  0  0  0.4449  0  0.860149  0  0  0.309772  0.426984  0  0.886331  0
H  H43  1  0.66313196  0.65114939  0.30998750  1  0  0.461804  0  0.819955  0  0  0.434692  0  0.8751  0  0  0.444854  0  0.86022  0  0  0.309742  0.426937  0  0.886403  0
H  H44  1  0.71016734  0.36760302  0.55087331  1  0  0.423981  0  0.869954  0  0  0.395967  0  0.93593  0  0  0.405966  0  0.921096  0  0  0.301685  0.388827  0  0.946301  0
H  H45  1  0.21016705  0.63239768  0.94912739  1  0  0.423995  0  0.869934  0  0  0.395978  0  0.935917  0  0  0.405978  0  0.921081  0  0  0.301686  0.38884  0  0.946286  0
H  H46  1  0.28983268  0.63239786  0.44912816  1  0  0.423969  0  0.869964  0  0  0.395956  0  0.935944  0  0  0.405955  0  0.92111  0  0  0.301686  0.388817  0  0.946315  0
H  H47  1  0.78983298  0.36760020  0.05087339  1  0  0.423965  0  0.869958  0  0  0.395935  0  0.935975  0  0  0.405936  0  0.921139  0  0  0.301666  0.388783  0  0.946358  0
H  H48  1  0.66535434  0.44300204  0.47620842  1  0  0.445078  0  0.838356  0  0  0.418223  0  0.903257  0  0  0.428208  0  0.88853  0  0  0.312533  0.41105  0  0.913482  0
H  H49  1  0.16535272  0.55699897  0.02379242  1  0  0.445037  0  0.838411  0  0  0.418184  0  0.903315  0  0  0.428169  0  0.888587  0  0  0.312508  0.411007  0  0.913542  0
H  H50  1  0.33464568  0.55699810  0.52379305  1  0  0.445007  0  0.838444  0  0  0.418152  0  0.903358  0  0  0.428136  0  0.888633  0  0  0.312511  0.410978  0  0.913584  0
H  H51  1  0.83464581  0.44299967  0.97620903  1  0  0.44506  0  0.83841  0  0  0.418209  0  0.903287  0  0  0.428194  0  0.888561  0  0  0.312538  0.411035  0  0.913513  0
C  C52  1  0.86121075  0.24006267  0.80092409  1  0  0.019438  0  3.557951  0  0  0.027879  0  3.809086  0  0  0.034843  0  3.820122  0  0  0.149553  0.022705  0  3.803771  0
C  C53  1  0.36120850  0.75993661  0.69907668  1  0  0.019367  0  3.558086  0  0  0.027729  0  3.809224  0  0  0.034693  0  3.82026  0  0  0.149486  0.022561  0  3.803905  0
C  C54  1  0.13878927  0.75993522  0.19907535  1  0  0.019401  0  3.557837  0  0  0.027811  0  3.809043  0  0  0.03477  0  3.82008  0  0  0.149582  0.02264  0  3.803719  0
C  C55  1  0.63879152  0.24006427  0.30092479  1  0  0.019401  0  3.557982  0  0  0.027794  0  3.809187  0  0  0.034757  0  3.820222  0  0  0.14947  0.022621  0  3.803872  0
C  C56  1  0.86062732  0.18480557  0.88066502  1  0  -0.076372  0  3.671527  0  0  -0.098751  0  3.927417  0  0  -0.106456  0  3.946147  0  0  -0.061152  -0.094305  0  3.916263  0
C  C57  1  0.36062495  0.81519296  0.61933508  1  0  -0.076379  0  3.67145  0  0  -0.098772  0  3.927329  0  0  -0.106475  0  3.94606  0  0  -0.061154  -0.094324  0  3.916169  0
C  C58  1  0.13937420  0.81519157  0.11933308  1  0  -0.076397  0  3.671344  0  0  -0.098814  0  3.927257  0  0  -0.106511  0  3.945981  0  0  -0.061229  -0.094371  0  3.916105  0
C  C59  1  0.63937508  0.18480718  0.38066572  1  0  -0.076318  0  3.671409  0  0  -0.098696  0  3.927283  0  0  -0.106398  0  3.946012  0  0  -0.061147  -0.094255  0  3.916133  0
C  C60  1  0.86030868  0.08153916  0.87677624  1  0  -0.019146  0  3.670309  0  0  -0.047042  0  3.923108  0  0  -0.041074  0  3.938895  0  0  -0.048578  -0.050713  0  3.912457  0
C  C61  1  0.36030502  0.91845936  0.62322319  1  0  -0.019126  0  3.670264  0  0  -0.047015  0  3.923069  0  0  -0.041052  0  3.938856  0  0  -0.048571  -0.050687  0  3.912421  0
C  C62  1  0.13968986  0.91845872  0.12322187  1  0  -0.019155  0  3.670059  0  0  -0.047024  0  3.92286  0  0  -0.04106  0  3.938643  0  0  -0.04856  -0.050697  0  3.912211  0
C  C63  1  0.63969203  0.08154077  0.37677760  1  0  -0.019184  0  3.670176  0  0  -0.047074  0  3.922978  0  0  -0.04111  0  3.938763  0  0  -0.048602  -0.050747  0  3.912335  0
C  C64  1  0.86134749  0.03009101  0.79371154  1  0  0.001182  0  3.817806  0  0  0.021573  0  4.043292  0  0  0.01686  0  4.069114  0  0  8.2e-05  0.02439  0  4.026164  0
C  C65  1  0.36134267  0.96990827  0.70628790  1  0  0.001165  0  3.817849  0  0  0.021535  0  4.04333  0  0  0.01683  0  4.069155  0  0  0.000134  0.024351  0  4.026203  0
C  C66  1  0.13865551  0.96990763  0.20628591  1  0  0.001204  0  3.817784  0  0  0.021589  0  4.043322  0  0  0.016883  0  4.069143  0  0  0.000169  0.024405  0  4.02619  0
C  C67  1  0.63865736  0.03009111  0.29371356  1  0  0.001182  0  3.817821  0  0  0.021581  0  4.043327  0  0  0.016878  0  4.069148  0  0  0.000185  0.024396  0  4.026194  0
C  C68  1  0.86067995  0.92422188  0.78528953  1  0  -0.097351  0  3.707389  0  0  -0.121338  0  3.963012  0  0  -0.122498  0  3.983962  0  0  -0.082575  -0.120275  0  3.949041  0
C  C69  1  0.36067799  0.07577815  0.71470925  1  0  -0.097326  0  3.707429  0  0  -0.121327  0  3.963037  0  0  -0.122505  0  3.983999  0  0  -0.082657  -0.12026  0  3.94906  0
C  C70  1  0.13932454  0.07577676  0.21470725  1  0  -0.097223  0  3.70736  0  0  -0.121201  0  3.962962  0  0  -0.122377  0  3.983923  0  0  -0.082611  -0.120135  0  3.948987  0
C  C71  1  0.63932650  0.92422273  0.28529155  1  0  -0.097225  0  3.707373  0  0  -0.121209  0  3.962971  0  0  -0.122389  0  3.983935  0  0  -0.082652  -0.120145  0  3.948991  0
C  C72  1  0.86165328  0.87947824  0.70193941  1  0  -0.048459  0  3.701627  0  0  -0.07002  0  3.96302  0  0  -0.074  0  3.985772  0  0  -0.082394  -0.067722  0  3.948566  0
C  C73  1  0.36165312  0.12052179  0.79805870  1  0  -0.048468  0  3.701565  0  0  -0.070031  0  3.962988  0  0  -0.074011  0  3.985746  0  0  -0.082361  -0.067729  0  3.948526  0
C  C74  1  0.13834972  0.12052115  0.29805804  1  0  -0.048509  0  3.701643  0  0  -0.070072  0  3.963039  0  0  -0.074052  0  3.985794  0  0  -0.082381  -0.067772  0  3.948582  0
C  C75  1  0.63834988  0.87947910  0.20194077  1  0  -0.048514  0  3.701563  0  0  -0.070057  0  3.96296  0  0  -0.074037  0  3.985716  0  0  -0.082355  -0.067754  0  3.948492  0
C  C76  1  0.86377732  0.93863297  0.62406670  1  0  -0.031978  0  3.749017  0  0  -0.048513  0  4.004486  0  0  -0.04797  0  4.026164  0  0  -0.078386  -0.048724  0  3.990291  0
C  C77  1  0.36377578  0.06136931  0.87593276  1  0  -0.032156  0  3.749121  0  0  -0.048707  0  4.004621  0  0  -0.048166  0  4.026302  0  0  -0.078471  -0.048913  0  3.990422  0
C  C78  1  0.13622270  0.06136567  0.37593074  1  0  -0.032057  0  3.749004  0  0  -0.048607  0  4.004504  0  0  -0.048067  0  4.026191  0  0  -0.078415  -0.048819  0  3.99031  0
C  C79  1  0.63622424  0.93863458  0.12406807  1  0  -0.032023  0  3.749031  0  0  -0.04857  0  4.004515  0  0  -0.04803  0  4.026201  0  0  -0.078407  -0.048778  0  3.990315  0
C  C80  1  0.86402510  0.04200959  0.62933498  1  0  -0.175857  0  3.725053  0  0  -0.196348  0  3.980647  0  0  -0.203131  0  4.001809  0  0  -0.092423  -0.191862  0  3.966317  0
C  C81  1  0.36402071  0.95799343  0.87066449  1  0  -0.175644  0  3.725046  0  0  -0.196142  0  3.980615  0  0  -0.202924  0  4.001781  0  0  -0.092318  -0.191651  0  3.966279  0
C  C82  1  0.13597791  0.95799054  0.37066515  1  0  -0.175812  0  3.724993  0  0  -0.196307  0  3.980594  0  0  -0.203089  0  4.001753  0  0  -0.092433  -0.191819  0  3.966261  0
C  C83  1  0.63597932  0.04201045  0.12933500  1  0  -0.175857  0  3.725033  0  0  -0.196362  0  3.980646  0  0  -0.203144  0  4.001806  0  0  -0.092436  -0.191877  0  3.966316  0
C  C84  1  0.86234324  0.08847941  0.71445869  1  0  0.215751  0  3.726845  0  0  0.206802  0  3.962155  0  0  0.213953  0  3.984092  0  0  0.124758  0.202115  0  3.947488  0
C  C85  1  0.36234002  0.91152136  0.78554076  1  0  0.215716  0  3.726874  0  0  0.206767  0  3.9621  0  0  0.213913  0  3.984041  0  0  0.124744  0.202083  0  3.947431  0
C  C86  1  0.13765678  0.91151848  0.28553808  1  0  0.215759  0  3.726815  0  0  0.206742  0  3.962238  0  0  0.213892  0  3.984174  0  0  0.124785  0.202057  0  3.947565  0
C  C87  1  0.63765851  0.08848027  0.21446138  1  0  0.215837  0  3.726786  0  0  0.206832  0  3.962178  0  0  0.21398  0  3.984114  0  0  0.124782  0.202147  0  3.947506  0
S  S88  1  0.91100419  0.69241839  0.46173139  1  0  1.580577  0  5.851244  0  0  1.455663  0  6.413168  0  0  1.511845  0  6.373728  0  0  0.556428  1.41725  0  6.429195  0
S  S89  1  0.41100663  0.30758048  0.03827023  1  0  1.580578  0  5.851187  0  0  1.455652  0  6.413123  0  0  1.51184  0  6.373675  0  0  0.556407  1.417239  0  6.429147  0
S  S90  1  0.08899285  0.30758175  0.53826874  1  0  1.580561  0  5.851296  0  0  1.455646  0  6.413205  0  0  1.511829  0  6.373763  0  0  0.55648  1.417232  0  6.429228  0
S  S91  1  0.58899191  0.69241590  0.96173253  1  0  1.580696  0  5.850994  0  0  1.455751  0  6.412954  0  0  1.511932  0  6.373515  0  0  0.556535  1.417339  0  6.42898  0
N  N92  1  0.86158421  0.19103734  0.72263141  1  0  -0.236217  0  3.446211  0  0  -0.172534  0  3.656353  0  0  -0.187911  0  3.672745  0  0  -0.325546  -0.162751  0  3.646458  0
N  N93  1  0.36158227  0.80896344  0.77737071  1  0  -0.236141  0  3.446379  0  0  -0.172359  0  3.656301  0  0  -0.187736  0  3.672693  0  0  -0.325493  -0.162573  0  3.646403  0
N  N94  1  0.13841581  0.80896280  0.27736872  1  0  -0.236148  0  3.446327  0  0  -0.172477  0  3.656443  0  0  -0.187853  0  3.672837  0  0  -0.325567  -0.162693  0  3.646542  0
N  N95  1  0.63841627  0.19103895  0.22263211  1  0  -0.236247  0  3.446375  0  0  -0.172574  0  3.656483  0  0  -0.187952  0  3.672878  0  0  -0.32553  -0.162786  0  3.646583  0
O  O96  1  0.82695727  0.40949763  0.70705220  1  0  -0.967463  0  2.053611  0  0  -0.900575  0  2.321851  0  0  -0.925401  0  2.299469  0  0  -0.458072  -0.871927  0  2.337912  0
O  O97  1  0.32696093  0.59050388  0.79294724  1  0  -0.967474  0  2.053688  0  0  -0.900596  0  2.321928  0  0  -0.925423  0  2.299545  0  0  -0.458074  -0.871945  0  2.337994  0
O  O98  1  0.17303829  0.59050400  0.29294727  1  0  -0.967452  0  2.053598  0  0  -0.900566  0  2.321826  0  0  -0.925394  0  2.299445  0  0  -0.458068  -0.871916  0  2.337889  0
O  O99  1  0.67303910  0.40949551  0.20705221  1  0  -0.967449  0  2.053631  0  0  -0.900567  0  2.321874  0  0  -0.925394  0  2.299493  0  0  -0.458076  -0.871924  0  2.337936  0
O  O100  1  0.70728012  0.40964036  0.86914052  1  0  -0.950103  0  2.033055  0  0  -0.882278  0  2.300633  0  0  -0.908563  0  2.279121  0  0  -0.447207  -0.852936  0  2.31701  0
O  O101  1  0.20727589  0.59036034  0.63085952  1  0  -0.950205  0  2.033018  0  0  -0.882353  0  2.300562  0  0  -0.908639  0  2.27905  0  0  -0.447236  -0.853009  0  2.316942  0
O  O102  1  0.29272437  0.59035903  0.13085760  1  0  -0.950193  0  2.033009  0  0  -0.882337  0  2.300562  0  0  -0.908624  0  2.279047  0  0  -0.447239  -0.853001  0  2.316941  0
O  O103  1  0.79272116  0.40964129  0.36914196  1  0  -0.950183  0  2.033095  0  0  -0.882312  0  2.300642  0  0  -0.908598  0  2.279128  0  0  -0.447213  -0.852969  0  2.317021  0
O  O104  1  0.07724011  0.40120915  0.83572523  1  0  -0.945749  0  2.047429  0  0  -0.881453  0  2.326861  0  0  -0.909314  0  2.306168  0  0  -0.476163  -0.849674  0  2.343757  0
O  O105  1  0.57723817  0.59879000  0.66427205  1  0  -0.945772  0  2.047358  0  0  -0.881475  0  2.326774  0  0  -0.909334  0  2.306076  0  0  -0.476187  -0.849694  0  2.34367  0
O  O106  1  0.92276140  0.59878949  0.16427088  1  0  -0.945803  0  2.047409  0  0  -0.881512  0  2.326844  0  0  -0.909376  0  2.306151  0  0  -0.476223  -0.849739  0  2.343736  0
O  O107  1  0.42275739  0.40121164  0.33572609  1  0  -0.945771  0  2.047312  0  0  -0.881479  0  2.326753  0  0  -0.90934  0  2.306059  0  0  -0.476204  -0.849698  0  2.343651  0
O  O108  1  0.84519303  0.71482701  0.55470196  1  0  -0.786906  0  1.971091  0  0  -0.749538  0  2.242937  0  0  -0.770534  0  2.226308  0  0  -0.40148  -0.726041  0  2.252774  0
O  O109  1  0.34519804  0.28517226  0.94530081  1  0  -0.786817  0  1.971049  0  0  -0.7495  0  2.242957  0  0  -0.770494  0  2.226328  0  0  -0.401451  -0.726003  0  2.252792  0
O  O110  1  0.15480551  0.28517163  0.44529816  1  0  -0.786912  0  1.971096  0  0  -0.74954  0  2.242937  0  0  -0.770532  0  2.226306  0  0  -0.401492  -0.72604  0  2.252774  0
O  O111  1  0.65480645  0.71482487  0.05470196  1  0  -0.786927  0  1.971123  0  0  -0.74954  0  2.242948  0  0  -0.770531  0  2.22632  0  0  -0.401508  -0.726047  0  2.252783  0
O  O112  1  0.92647711  0.57878149  0.45952847  1  0  -0.931313  0  2.159365  0  0  -0.885222  0  2.438985  0  0  -0.907326  0  2.421068  0  0  -0.470333  -0.852786  0  2.448422  0
O  O113  1  0.42648124  0.42121664  0.04047248  1  0  -0.931284  0  2.15934  0  0  -0.885213  0  2.439005  0  0  -0.907316  0  2.421083  0  0  -0.47032  -0.852783  0  2.448439  0
O  O114  1  0.07351696  0.42121865  0.54046765  1  0  -0.931307  0  2.159363  0  0  -0.885227  0  2.439019  0  0  -0.907332  0  2.421104  0  0  -0.470342  -0.852789  0  2.448453  0
O  O115  1  0.57351878  0.57878050  0.95952829  1  0  -0.93138  0  2.159405  0  0  -0.885279  0  2.439011  0  0  -0.907381  0  2.421092  0  0  -0.470364  -0.852846  0  2.448449  0
O  O116  1  0.11304588  0.73607452  0.44525797  1  0  -0.724602  0  1.973084  0  0  -0.66353  0  2.210722  0  0  -0.68577  0  2.194213  0  0  -0.342276  -0.648337  0  2.221817  0
O  O117  1  0.61304451  0.26392421  0.05474682  1  0  -0.724638  0  1.973093  0  0  -0.66355  0  2.210727  0  0  -0.685793  0  2.194223  0  0  -0.342282  -0.648354  0  2.221814  0
O  O118  1  0.88695414  0.26392787  0.55474352  1  0  -0.724664  0  1.973116  0  0  -0.663526  0  2.210702  0  0  -0.685774  0  2.19421  0  0  -0.342305  -0.648334  0  2.221796  0
O  O119  1  0.38695402  0.73607217  0.94525928  1  0  -0.72465  0  1.973135  0  0  -0.663552  0  2.210746  0  0  -0.685802  0  2.194258  0  0  -0.342273  -0.648356  0  2.22184  0
O  O120  1  0.76996074  0.72763191  0.39410895  1  0  -0.689808  0  1.914568  0  0  -0.632996  0  2.14812  0  0  -0.653709  0  2.130113  0  0  -0.34054  -0.619444  0  2.161108  0
O  O121  1  0.26995883  0.27236690  0.10589193  1  0  -0.689875  0  1.914529  0  0  -0.633006  0  2.148063  0  0  -0.65373  0  2.130063  0  0  -0.34056  -0.619457  0  2.161052  0
O  O122  1  0.23004077  0.27237348  0.60589056  1  0  -0.68975  0  1.914545  0  0  -0.632967  0  2.148119  0  0  -0.653678  0  2.130112  0  0  -0.340564  -0.619415  0  2.161107  0
O  O123  1  0.73004119  0.72762874  0.89410883  1  0  -0.689885  0  1.914401  0  0  -0.633038  0  2.147939  0  0  -0.653747  0  2.129931  0  0  -0.340613  -0.61949  0  2.160927  0
O  O124  1  0.92589705  0.62398205  0.76289029  1  0  -0.926675  0  1.860564  0  0  -0.888178  0  2.049663  0  0  -0.905713  0  2.017505  0  0  -0.636005  -0.865996  0  2.076716  0
O  O125  1  0.42590017  0.37602101  0.73710922  1  0  -0.926709  0  1.860548  0  0  -0.88822  0  2.049646  0  0  -0.905755  0  2.017488  0  0  -0.636036  -0.866035  0  2.076703  0
O  O126  1  0.07410297  0.37602108  0.23710987  1  0  -0.926681  0  1.86052  0  0  -0.888204  0  2.049653  0  0  -0.905738  0  2.017491  0  0  -0.636047  -0.866021  0  2.07671  0
O  O127  1  0.57410581  0.62397988  0.26289024  1  0  -0.926697  0  1.860545  0  0  -0.888193  0  2.049628  0  0  -0.905728  0  2.017469  0  0  -0.636014  -0.866013  0  2.076685  0
O  O128  1  0.65025949  0.43445405  0.54141413  1  0  -0.871591  0  1.848036  0  0  -0.836339  0  2.037313  0  0  -0.853573  0  2.00721  0  0  -0.631924  -0.815887  0  2.062253  0
O  O129  1  0.15025761  0.56554588  0.95858719  1  0  -0.871568  0  1.848038  0  0  -0.836316  0  2.037308  0  0  -0.853551  0  2.007203  0  0  -0.631912  -0.815867  0  2.06225  0
O  O130  1  0.34974054  0.56554534  0.45858732  1  0  -0.871532  0  1.848113  0  0  -0.836273  0  2.037388  0  0  -0.853507  0  2.007285  0  0  -0.631919  -0.81582  0  2.06233  0
O  O131  1  0.84974242  0.43445126  0.04141357  1  0  -0.871574  0  1.848051  0  0  -0.836303  0  2.037324  0  0  -0.85354  0  2.007215  0  0  -0.631908  -0.815841  0  2.062301  0
