# generated using pymatgen
data_CdH8(C5O3)2
_symmetry_space_group_name_H-M   'P 1'
_cell_length_a   6.03809728
_cell_length_b   8.17637255
_cell_length_c   19.42891924
_cell_angle_alpha   90.24224821
_cell_angle_beta   89.99985093
_cell_angle_gamma   90.00020544
_symmetry_Int_Tables_number   1
_chemical_formula_structural   CdH8(C5O3)2
_chemical_formula_sum   'Cd4 H32 C40 O24'
_cell_volume   959.19197930
_cell_formula_units_Z   4
loop_
 _symmetry_equiv_pos_site_id
 _symmetry_equiv_pos_as_xyz
  1  'x, y, z'
loop_
 _atom_site_type_symbol
 _atom_site_label
 _atom_site_symmetry_multiplicity
 _atom_site_fract_x
 _atom_site_fract_y
 _atom_site_fract_z
 _atom_site_occupancy
 _atom_site_pbe_bader_spin_density
 _atom_site_pbe_cm5_charge
 _atom_site_pbe_ddec_charge
 _atom_site_pbe_ddec_spin_density
 _atom_site_pbe_ddec_sum_bond_order
 _atom_site_pbe_magmom
Cd  Cd0  1  0.43546420  0.28860019  0.74174142  1  0  0.800594  1.038292  0  2.009369  0
Cd  Cd1  1  0.06453656  0.28860877  0.24174205  1  0  0.800594  1.038291  0  2.009386  0
Cd  Cd2  1  0.56453773  0.71139905  0.25825866  1  0  0.800576  1.038266  0  2.00942  0
Cd  Cd3  1  0.93545875  0.71139536  0.75825648  1  0  0.800588  1.038269  0  2.009396  0
H  H4  1  0.35515447  0.04559931  0.91564854  1  0  0.105867  0.093345  0  1.01079  0
H  H5  1  0.14483205  0.04560933  0.41564963  1  0  0.105861  0.093337  0  1.01083  0
H  H6  1  0.64483752  0.95439504  0.08435152  1  0  0.10581  0.093226  0  1.010842  0
H  H7  1  0.85517153  0.95439358  0.58434890  1  0  0.105875  0.093358  0  1.010812  0
H  H8  1  0.56096157  0.90448204  0.88351168  1  0  0.111754  0.114923  0  1.017471  0
H  H9  1  0.93903643  0.90448550  0.38351253  1  0  0.11176  0.114943  0  1.017461  0
H  H10  1  0.43904202  0.09551843  0.11648685  1  0  0.111764  0.114937  0  1.017453  0
H  H11  1  0.06096716  0.09551497  0.61648601  1  0  0.111765  0.11492  0  1.017519  0
H  H12  1  0.64577396  0.08657941  0.98716936  1  0  0.095504  0.102739  0  1.064069  0
H  H13  1  0.85422088  0.08658754  0.48716616  1  0  0.095512  0.102775  0  1.064136  0
H  H14  1  0.35421803  0.91342228  0.01283072  1  0  0.095505  0.102739  0  1.064106  0
H  H15  1  0.14578436  0.91341171  0.51283340  1  0  0.095513  0.102773  0  1.064116  0
H  H16  1  0.95893312  0.19964736  0.05568167  1  0  0.101813  0.111199  0  1.013689  0
H  H17  1  0.54106096  0.19965607  0.55568086  1  0  0.101808  0.111193  0  1.013714  0
H  H18  1  0.04105887  0.80035189  0.94431891  1  0  0.101817  0.111198  0  1.013691  0
H  H19  1  0.45894429  0.80034440  0.44432075  1  0  0.101781  0.111112  0  1.013773  0
H  H20  1  0.24837713  0.36453517  0.00174940  1  0  0.097337  0.11234  0  1.052486  0
H  H21  1  0.25161775  0.36453833  0.50174636  1  0  0.097368  0.112381  0  1.052545  0
H  H22  1  0.75161652  0.63546408  0.99825067  1  0  0.097351  0.112362  0  1.052567  0
H  H23  1  0.74838584  0.63546092  0.49825475  1  0  0.097376  0.112383  0  1.052547  0
H  H24  1  0.93007010  0.29785609  0.80410079  1  0  0.111217  0.147345  0  1.018458  0
H  H25  1  0.56992069  0.29785979  0.30409730  1  0  0.111235  0.147454  0  1.018427  0
H  H26  1  0.06992520  0.70214193  0.19590031  1  0  0.11122  0.147367  0  1.018481  0
H  H27  1  0.43007959  0.70213701  0.69590328  1  0  0.111243  0.147456  0  1.018374  0
H  H28  1  0.52281245  0.43433148  0.93291001  1  0  0.10798  0.091581  0  1.018183  0
H  H29  1  0.97718287  0.43433627  0.43290928  1  0  0.10799  0.091576  0  1.018185  0
H  H30  1  0.47718617  0.56566532  0.06708852  1  0  0.107971  0.091558  0  1.018269  0
H  H31  1  0.02282237  0.56566420  0.56709131  1  0  0.107973  0.09157  0  1.018161  0
H  H32  1  0.36341835  0.61803201  0.92244201  1  0  0.112181  0.105097  0  1.00483  0
H  H33  1  0.13658080  0.61803345  0.42244155  1  0  0.11218  0.105088  0  1.00483  0
H  H34  1  0.63658523  0.38196723  0.07755704  1  0  0.112162  0.105055  0  1.004853  0
H  H35  1  0.86342775  0.38196702  0.57755956  1  0  0.112196  0.105079  0  1.004857  0
C  C36  1  0.29515476  0.96273381  0.81387757  1  0  0.214903  0.624308  0  4.152078  0
C  C37  1  0.20484532  0.96273542  0.31387860  1  0  0.215012  0.624393  0  4.151971  0
C  C38  1  0.70484386  0.03726544  0.18612095  1  0  0.215011  0.624442  0  4.151964  0
C  C39  1  0.79515993  0.03726871  0.68611993  1  0  0.214997  0.624371  0  4.152176  0
C  C40  1  0.45671306  0.01010665  0.87078100  1  0  -0.07312  -0.137633  0  3.870766  0
C  C41  1  0.04328361  0.01010905  0.37078113  1  0  -0.0731  -0.137634  0  3.870754  0
C  C42  1  0.54328556  0.98989260  0.12921959  1  0  -0.073121  -0.13761  0  3.870839  0
C  C43  1  0.95672163  0.98989141  0.62921792  1  0  -0.073161  -0.137741  0  3.870948  0
C  C44  1  0.76633246  0.18911448  0.89132835  1  0  0.078947  0.283586  0  4.048927  0
C  C45  1  0.73366535  0.18911740  0.39132524  1  0  0.07903  0.283717  0  4.048844  0
C  C46  1  0.23366450  0.81088721  0.10867328  1  0  0.078926  0.283564  0  4.048895  0
C  C47  1  0.26633990  0.81087818  0.60867483  1  0  0.079062  0.283755  0  4.048805  0
C  C48  1  0.77455653  0.15769189  0.96216731  1  0  -0.125755  -0.257665  0  4.028856  0
C  C49  1  0.72543059  0.15769845  0.46216421  1  0  -0.125802  -0.257853  0  4.029191  0
C  C50  1  0.22543381  0.84231102  0.03783380  1  0  -0.125752  -0.257673  0  4.028999  0
C  C51  1  0.27457134  0.84230446  0.53783638  1  0  -0.125792  -0.257845  0  4.029036  0
C  C52  1  0.95091598  0.22110495  0.00036895  1  0  -0.093502  -0.035137  0  4.037921  0
C  C53  1  0.54907867  0.22110635  0.50036709  1  0  -0.093449  -0.035034  0  4.037971  0
C  C54  1  0.04907933  0.77889796  0.99963216  1  0  -0.093437  -0.035019  0  4.037941  0
C  C55  1  0.45092658  0.77889412  0.49963453  1  0  -0.093462  -0.03495  0  4.037832  0
C  C56  1  0.11773738  0.31408799  0.96963604  1  0  -0.122651  -0.244074  0  4.009251  0
C  C57  1  0.38225495  0.31409375  0.46963488  1  0  -0.122708  -0.24413  0  4.009228  0
C  C58  1  0.88225958  0.68590880  0.03036300  1  0  -0.12271  -0.244146  0  4.009383  0
C  C59  1  0.61774533  0.68590427  0.53036622  1  0  -0.122691  -0.244135  0  4.009087  0
C  C60  1  0.10832750  0.33991131  0.89853505  1  0  0.080269  0.279215  0  4.047537  0
C  C61  1  0.39167218  0.33991464  0.39853285  1  0  0.080368  0.279432  0  4.047516  0
C  C62  1  0.89166947  0.66008794  0.10146502  1  0  0.080291  0.279244  0  4.047673  0
C  C63  1  0.60832975  0.66008215  0.60146774  1  0  0.080365  0.279466  0  4.047395  0
C  C64  1  0.93421020  0.27707600  0.85930965  1  0  -0.120865  -0.315727  0  3.960201  0
C  C65  1  0.56578334  0.27708091  0.35930771  1  0  -0.120976  -0.316037  0  3.960327  0
C  C66  1  0.06578511  0.72292325  0.14068991  1  0  -0.120882  -0.315798  0  3.960364  0
C  C67  1  0.43421528  0.72291956  0.64069236  1  0  -0.120995  -0.316079  0  3.96038  0
C  C68  1  0.43424350  0.51170615  0.89556574  1  0  -0.065776  -0.122817  0  3.889632  0
C  C69  1  0.06574874  0.51171229  0.39556586  1  0  -0.065794  -0.122749  0  3.889619  0
C  C70  1  0.56575511  0.48829187  0.10443279  1  0  -0.065738  -0.122749  0  3.889639  0
C  C71  1  0.93425816  0.48828940  0.60443525  1  0  -0.065755  -0.122696  0  3.889707  0
C  C72  1  0.60241108  0.57156115  0.84345440  1  0  0.207022  0.596201  0  4.174689  0
C  C73  1  0.89758234  0.57156817  0.34345426  1  0  0.206946  0.596133  0  4.174767  0
C  C74  1  0.39758422  0.42843442  0.15654309  1  0  0.207069  0.596255  0  4.174683  0
C  C75  1  0.10242124  0.42843474  0.65654582  1  0  0.206873  0.596092  0  4.174918  0
O  O76  1  0.24239114  0.06259405  0.76716988  1  0  -0.314275  -0.540588  0  2.308905  0
O  O77  1  0.25760832  0.06259702  0.26716932  1  0  -0.314276  -0.540572  0  2.308848  0
O  O78  1  0.75759920  0.93740887  0.23283072  1  0  -0.314254  -0.540502  0  2.308774  0
O  O79  1  0.74239362  0.93740344  0.73282972  1  0  -0.314272  -0.540524  0  2.308787  0
O  O80  1  0.21546206  0.81955276  0.82106291  1  0  -0.321602  -0.547409  0  2.238619  0
O  O81  1  0.28454389  0.81955704  0.32106337  1  0  -0.321717  -0.547489  0  2.238527  0
O  O82  1  0.78454649  0.18044281  0.17893407  1  0  -0.321681  -0.547516  0  2.238534  0
O  O83  1  0.71546135  0.18044221  0.67893465  1  0  -0.321688  -0.547476  0  2.238718  0
O  O84  1  0.59233235  0.14429526  0.84948571  1  0  -0.185434  -0.212185  0  2.683761  0
O  O85  1  0.90766063  0.14429741  0.34948298  1  0  -0.18549  -0.212211  0  2.683869  0
O  O86  1  0.40766461  0.85570766  0.15051694  1  0  -0.185438  -0.212182  0  2.683777  0
O  O87  1  0.09234131  0.85570428  0.65051710  1  0  -0.185473  -0.212137  0  2.683757  0
O  O88  1  0.26470824  0.42289124  0.86075480  1  0  -0.179126  -0.198197  0  2.653802  0
O  O89  1  0.23528553  0.42289660  0.36075375  1  0  -0.17916  -0.198312  0  2.653737  0
O  O90  1  0.73528872  0.57710434  0.13924527  1  0  -0.179139  -0.198217  0  2.653843  0
O  O91  1  0.76471640  0.57710264  0.63924735  1  0  -0.179153  -0.198369  0  2.653769  0
O  O92  1  0.60483747  0.51633326  0.78173533  1  0  -0.318644  -0.569522  0  2.373795  0
O  O93  1  0.89515456  0.51634150  0.28173519  1  0  -0.318586  -0.56947  0  2.37385  0
O  O94  1  0.39515783  0.48366476  0.21826423  1  0  -0.318698  -0.569579  0  2.373694  0
O  O95  1  0.10484406  0.48366019  0.71826592  1  0  -0.31861  -0.569469  0  2.373699  0
O  O96  1  0.74173991  0.67648999  0.86383536  1  0  -0.304651  -0.519239  0  2.198567  0
O  O97  1  0.75825220  0.67649664  0.36383636  1  0  -0.3046  -0.51923  0  2.198702  0
O  O98  1  0.25826037  0.32351170  0.13616369  1  0  -0.304629  -0.519222  0  2.198782  0
O  O99  1  0.24174642  0.32350750  0.63616475  1  0  -0.304539  -0.519154  0  2.198825  0
