# generated using pymatgen
data_CdH15C12NO5
_symmetry_space_group_name_H-M   'P 1'
_cell_length_a   5.82527112
_cell_length_b   9.76489302
_cell_length_c   11.84750226
_cell_angle_alpha   102.13625466
_cell_angle_beta   103.76075735
_cell_angle_gamma   93.04683416
_symmetry_Int_Tables_number   1
_chemical_formula_structural   CdH15C12NO5
_chemical_formula_sum   'Cd2 H30 C24 N2 O10'
_cell_volume   636.16272286
_cell_formula_units_Z   2
loop_
 _symmetry_equiv_pos_site_id
 _symmetry_equiv_pos_as_xyz
  1  'x, y, z'
loop_
 _atom_site_type_symbol
 _atom_site_label
 _atom_site_symmetry_multiplicity
 _atom_site_fract_x
 _atom_site_fract_y
 _atom_site_fract_z
 _atom_site_occupancy
 _atom_site_hle17_bader_spin_density
 _atom_site_hle17_ddec_charge
 _atom_site_hle17_ddec_spin_density
 _atom_site_hle17_ddec_sum_bond_order
 _atom_site_hle17_magmom
 _atom_site_hse06_10hf_bader_spin_density
 _atom_site_hse06_10hf_ddec_charge
 _atom_site_hse06_10hf_ddec_spin_density
 _atom_site_hse06_10hf_ddec_sum_bond_order
 _atom_site_hse06_10hf_magmom
 _atom_site_hse06_bader_spin_density
 _atom_site_hse06_ddec_charge
 _atom_site_hse06_ddec_spin_density
 _atom_site_hse06_ddec_sum_bond_order
 _atom_site_hse06_magmom
 _atom_site_pbe_bader_spin_density
 _atom_site_pbe_cm5_charge
 _atom_site_pbe_ddec_charge
 _atom_site_pbe_ddec_spin_density
 _atom_site_pbe_ddec_sum_bond_order
 _atom_site_pbe_magmom
Cd  Cd0  1  0.21341540  0.59459241  0.75447895  1  0  1.157395  0  1.56577  0  0  0.969102  0  1.998556  0  0  1.028029  0  1.9441  0  0  0.767153  0.927678  0  2.03559  0
Cd  Cd1  1  0.78657475  0.40541162  0.24551804  1  0  1.15742  0  1.565698  0  0  0.969143  0  1.998483  0  0  1.028069  0  1.944026  0  0  0.767175  0.927722  0  2.03552  0
H  H2  1  0.62257804  0.04601642  0.93578055  1  0  0.132625  0  0.944782  0  0  0.144095  0  1.007482  0  0  0.147867  0  1.004947  0  0  0.104507  0.141315  0  1.009456  0
H  H3  1  0.37745252  0.95397873  0.06422573  1  0  0.132654  0  0.944678  0  0  0.144128  0  1.00741  0  0  0.147902  0  1.004876  0  0  0.104564  0.141349  0  1.009383  0
H  H4  1  0.85746011  0.94080352  0.94202540  1  0  0.106  0  0.948873  0  0  0.122634  0  1.008904  0  0  0.124757  0  1.007945  0  0  0.103371  0.120952  0  1.009934  0
H  H5  1  0.14255423  0.05918967  0.05797184  1  0  0.105996  0  0.948917  0  0  0.122652  0  1.008945  0  0  0.124777  0  1.007988  0  0  0.103367  0.12097  0  1.009975  0
H  H6  1  0.09202367  0.91355732  0.79220143  1  0  0.087167  0  0.98707  0  0  0.097911  0  1.052189  0  0  0.100537  0  1.051308  0  0  0.093497  0.096031  0  1.053102  0
H  H7  1  0.90799499  0.08644741  0.20779490  1  0  0.087156  0  0.987136  0  0  0.097948  0  1.052192  0  0  0.100574  0  1.05131  0  0  0.093529  0.096065  0  1.053112  0
H  H8  1  0.21528395  0.00773598  0.63438793  1  0  0.088679  0  0.965734  0  0  0.100487  0  1.023745  0  0  0.102542  0  1.02398  0  0  0.098985  0.09869  0  1.024228  0
H  H9  1  0.78472017  0.99225832  0.36559898  1  0  0.088735  0  0.965915  0  0  0.100545  0  1.023901  0  0  0.102602  0  1.024131  0  0  0.098978  0.098744  0  1.024384  0
H  H10  1  0.98736254  0.18204497  0.54329528  1  0  0.095389  0  0.962708  0  0  0.105847  0  1.025993  0  0  0.108717  0  1.025058  0  0  0.09877  0.103907  0  1.026526  0
H  H11  1  0.01263167  0.81795262  0.45669267  1  0  0.095364  0  0.962811  0  0  0.105868  0  1.026029  0  0  0.108746  0  1.025075  0  0  0.098782  0.103922  0  1.026577  0
H  H12  1  0.50789724  0.16572677  0.76704021  1  0  0.097534  0  0.968797  0  0  0.108904  0  1.030938  0  0  0.111721  0  1.03007  0  0  0.098557  0.106503  0  1.032315  0
H  H13  1  0.49211270  0.83427070  0.23295890  1  0  0.097474  0  0.968759  0  0  0.108844  0  1.030899  0  0  0.111659  0  1.03003  0  0  0.098534  0.106444  0  1.032275  0
H  H14  1  0.44993939  0.21587034  0.50396572  1  0  0.123118  0  0.916811  0  0  0.140491  0  0.970413  0  0  0.142599  0  0.96995  0  0  0.110171  0.139228  0  0.970691  0
H  H15  1  0.55003196  0.78412980  0.49604523  1  0  0.123141  0  0.91687  0  0  0.140515  0  0.970471  0  0  0.142628  0  0.970003  0  0  0.110166  0.139251  0  0.97075  0
H  H16  1  0.69494630  0.34311244  0.54465388  1  0  0.130804  0  0.909392  0  0  0.148123  0  0.964345  0  0  0.150889  0  0.962569  0  0  0.113209  0.145865  0  0.966145  0
H  H17  1  0.30502397  0.65688126  0.45533728  1  0  0.130755  0  0.909425  0  0  0.148056  0  0.96444  0  0  0.150822  0  0.962666  0  0  0.113182  0.145811  0  0.96622  0
H  H18  1  0.30523108  0.42742664  0.97730443  1  0  0.069519  0  0.919619  0  0  0.087557  0  0.981449  0  0  0.088117  0  0.980909  0  0  0.104676  0.087004  0  0.982093  0
H  H19  1  0.69476808  0.57257837  0.02269634  1  0  0.069466  0  0.9197  0  0  0.087555  0  0.981448  0  0  0.088117  0  0.980909  0  0  0.104675  0.087  0  0.982094  0
H  H20  1  0.10271453  0.31119558  0.85415697  1  0  0.071348  0  0.94933  0  0  0.086475  0  1.016035  0  0  0.085405  0  1.01917  0  0  0.105744  0.087162  0  1.013918  0
H  H21  1  0.89728487  0.68881047  0.14584316  1  0  0.071296  0  0.949315  0  0  0.086404  0  1.016049  0  0  0.085337  0  1.019186  0  0  0.105692  0.087091  0  1.013929  0
H  H22  1  0.04905442  0.27096129  0.04963539  1  0  0.066943  0  0.935007  0  0  0.087723  0  0.991701  0  0  0.086945  0  0.993244  0  0  0.105735  0.088148  0  0.990852  0
H  H23  1  0.95094850  0.72904472  0.95036516  1  0  0.06695  0  0.934904  0  0  0.087747  0  0.991615  0  0  0.086967  0  0.993161  0  0  0.105737  0.088174  0  0.990766  0
H  H24  1  0.78989367  0.32242042  0.96404492  1  0  0.078845  0  0.926068  0  0  0.095581  0  0.988455  0  0  0.096187  0  0.988465  0  0  0.108043  0.09513  0  0.988512  0
H  H25  1  0.21010683  0.67758244  0.03595312  1  0  0.078814  0  0.926107  0  0  0.095575  0  0.988485  0  0  0.096179  0  0.988497  0  0  0.108043  0.095127  0  0.988538  0
H  H26  1  0.81419958  0.61536630  0.55284674  1  0  0.434063  0  0.869911  0  0  0.401104  0  0.935534  0  0  0.413155  0  0.91815  0  0  0.28549  0.392529  0  0.947936  0
H  H27  1  0.18580086  0.38463659  0.44715552  1  0  0.434112  0  0.869822  0  0  0.401144  0  0.935464  0  0  0.413197  0  0.918075  0  0  0.285503  0.392569  0  0.947868  0
H  H28  1  0.74136497  0.69289539  0.67228763  1  0  0.432536  0  0.869312  0  0  0.399641  0  0.936092  0  0  0.410537  0  0.920504  0  0  0.28769  0.391918  0  0.947167  0
H  H29  1  0.25862911  0.30711073  0.32771356  1  0  0.432559  0  0.869307  0  0  0.39968  0  0.936065  0  0  0.410576  0  0.920477  0  0  0.287679  0.391957  0  0.947141  0
H  H30  1  0.85103796  0.49081259  0.83585358  1  0  0.265618  0  0.94714  0  0  0.256863  0  1.000688  0  0  0.263113  0  0.997749  0  0  0.287014  0.252461  0  1.002727  0
H  H31  1  0.14896029  0.50918820  0.16414637  1  0  0.26564  0  0.947119  0  0  0.256891  0  1.000649  0  0  0.263139  0  0.997713  0  0  0.287028  0.252493  0  1.002681  0
C  C32  1  0.53341346  0.83585597  0.82936799  1  0  0.694963  0  3.851185  0  0  0.648697  0  4.146957  0  0  0.681673  0  4.142289  0  0  0.202687  0.626314  0  4.149134  0
C  C33  1  0.46659382  0.16413729  0.17062841  1  0  0.694821  0  3.85124  0  0  0.648636  0  4.146941  0  0  0.681617  0  4.142267  0  0  0.20262  0.626251  0  4.149124  0
C  C34  1  0.70545316  0.96989364  0.87969876  1  0  -0.317405  0  3.694476  0  0  -0.35903  0  3.934175  0  0  -0.365587  0  3.941211  0  0  -0.162166  -0.354311  0  3.929413  0
C  C35  1  0.29456545  0.03011112  0.12030094  1  0  -0.317302  0  3.694478  0  0  -0.359079  0  3.934257  0  0  -0.365645  0  3.941302  0  0  -0.162127  -0.354362  0  3.929499  0
C  C36  1  0.78878649  0.03170596  0.78847284  1  0  0.12352  0  3.78105  0  0  0.144505  0  4.017307  0  0  0.145849  0  4.041708  0  0  -0.015915  0.143502  0  4.000964  0
C  C37  1  0.21121975  0.96829162  0.21153682  1  0  0.12348  0  3.781055  0  0  0.144571  0  4.017193  0  0  0.145915  0  4.041595  0  0  -0.01597  0.143568  0  4.000853  0
C  C38  1  0.99008634  0.98905248  0.75168412  1  0  -0.138676  0  3.755064  0  0  -0.161925  0  4.003024  0  0  -0.164888  0  4.023749  0  0  -0.104738  -0.160021  0  3.989487  0
C  C39  1  0.00991769  0.01095034  0.24831434  1  0  -0.138736  0  3.755202  0  0  -0.162054  0  4.003122  0  0  -0.165021  0  4.023855  0  0  -0.104824  -0.160148  0  3.989593  0
C  C40  1  0.06029843  0.04286031  0.66365220  1  0  -0.069692  0  3.816779  0  0  -0.080732  0  4.068347  0  0  -0.081822  0  4.089766  0  0  -0.098575  -0.07976  0  4.054228  0
C  C41  1  0.93969654  0.95714157  0.33634585  1  0  -0.069799  0  3.81714  0  0  -0.080849  0  4.068725  0  0  -0.08194  0  4.090142  0  0  -0.098577  -0.079871  0  4.054602  0
C  C42  1  0.93144724  0.14031094  0.61208034  1  0  -0.13894  0  3.749269  0  0  -0.161686  0  3.998437  0  0  -0.16519  0  4.019901  0  0  -0.099486  -0.15898  0  3.983332  0
C  C43  1  0.06854584  0.85969833  0.38791619  1  0  -0.138941  0  3.749516  0  0  -0.161726  0  3.998659  0  0  -0.165225  0  4.020121  0  0  -0.099535  -0.159019  0  3.983544  0
C  C44  1  0.72956261  0.18483173  0.64760748  1  0  0.122627  0  3.759067  0  0  0.144293  0  3.994174  0  0  0.145769  0  4.018215  0  0  -0.014291  0.143232  0  3.977549  0
C  C45  1  0.27043258  0.81515540  0.35239656  1  0  0.122653  0  3.758943  0  0  0.144391  0  3.99397  0  0  0.145868  0  4.018013  0  0  -0.014246  0.143331  0  3.977342  0
C  C46  1  0.66201480  0.13055110  0.73677878  1  0  -0.182046  0  3.70336  0  0  -0.20804  0  3.945087  0  0  -0.211663  0  3.965142  0  0  -0.096681  -0.20545  0  3.932226  0
C  C47  1  0.33798342  0.86944123  0.26321806  1  0  -0.181968  0  3.703221  0  0  -0.207976  0  3.944857  0  0  -0.211594  0  3.964908  0  0  -0.096627  -0.205386  0  3.931992  0
C  C48  1  0.58239283  0.28025396  0.58227832  1  0  -0.311329  0  3.683921  0  0  -0.351053  0  3.921077  0  0  -0.357207  0  3.928273  0  0  -0.154547  -0.346679  0  3.916162  0
C  C49  1  0.41759737  0.71974274  0.41772588  1  0  -0.311307  0  3.684121  0  0  -0.351114  0  3.921349  0  0  -0.357275  0  3.928555  0  0  -0.154554  -0.34675  0  3.916423  0
C  C50  1  0.45486225  0.38494896  0.65191400  1  0  0.708794  0  3.829325  0  0  0.654638  0  4.13423  0  0  0.688495  0  4.128067  0  0  0.209621  0.631483  0  4.137965  0
C  C51  1  0.54512762  0.61505404  0.34808616  1  0  0.708843  0  3.829471  0  0  0.654736  0  4.134306  0  0  0.688591  0  4.128146  0  0  0.209669  0.631581  0  4.138046  0
C  C52  1  0.11612010  0.39987102  0.93052476  1  0  0.007161  0  3.635614  0  0  -0.053528  0  3.902203  0  0  -0.049189  0  3.914508  0  0  -0.075671  -0.056367  0  3.893656  0
C  C53  1  0.88387907  0.60013397  0.06947517  1  0  0.007313  0  3.635539  0  0  -0.053347  0  3.902104  0  0  -0.04902  0  3.914422  0  0  -0.075563  -0.056185  0  3.893562  0
C  C54  1  0.97520900  0.35865596  0.01379211  1  0  0.006385  0  3.630551  0  0  -0.051226  0  3.892219  0  0  -0.047251  0  3.90536  0  0  -0.076353  -0.053813  0  3.883197  0
C  C55  1  0.02479477  0.64134582  0.98620868  1  0  0.006429  0  3.630401  0  0  -0.051277  0  3.89217  0  0  -0.047297  0  3.905312  0  0  -0.076378  -0.053872  0  3.883153  0
N  N56  1  0.02525924  0.52224828  0.88523673  1  0  -0.441071  0  3.198378  0  0  -0.358615  0  3.449865  0  0  -0.381188  0  3.461942  0  0  -0.491023  -0.342674  0  3.440836  0
N  N57  1  0.97473416  0.47775468  0.11476385  1  0  -0.441153  0  3.198432  0  0  -0.358734  0  3.449929  0  0  -0.381304  0  3.462012  0  0  -0.491107  -0.342798  0  3.440894  0
O  O58  1  0.51098178  0.76402896  0.72313914  1  0  -0.664373  0  1.973436  0  0  -0.594568  0  2.204156  0  0  -0.62369  0  2.195399  0  0  -0.322764  -0.574179  0  2.209515  0
O  O59  1  0.48901467  0.23598034  0.27686878  1  0  -0.664497  0  1.972973  0  0  -0.59472  0  2.203665  0  0  -0.623845  0  2.194904  0  0  -0.322853  -0.574329  0  2.209032  0
O  O60  1  0.41503154  0.79770544  0.89748677  1  0  -0.653554  0  1.947406  0  0  -0.589368  0  2.189835  0  0  -0.618557  0  2.180641  0  0  -0.330667  -0.569076  0  2.195345  0
O  O61  1  0.58498024  0.20228465  0.10251723  1  0  -0.653348  0  1.94758  0  0  -0.589191  0  2.189969  0  0  -0.618382  0  2.180782  0  0  -0.330558  -0.568899  0  2.19548  0
O  O62  1  0.52926276  0.43092864  0.76397849  1  0  -0.643103  0  1.963776  0  0  -0.579215  0  2.201  0  0  -0.605963  0  2.191526  0  0  -0.316594  -0.560565  0  2.206852  0
O  O63  1  0.47073425  0.56907539  0.23603199  1  0  -0.643053  0  1.964092  0  0  -0.579153  0  2.201264  0  0  -0.605894  0  2.191788  0  0  -0.316527  -0.560509  0  2.207122  0
O  O64  1  0.27001582  0.42946781  0.59245453  1  0  -0.66366  0  1.998707  0  0  -0.586435  0  2.23612  0  0  -0.617691  0  2.225056  0  0  -0.323042  -0.564575  0  2.243227  0
O  O65  1  0.72998286  0.57053510  0.40754752  1  0  -0.663694  0  1.998517  0  0  -0.586522  0  2.235939  0  0  -0.617781  0  2.224878  0  0  -0.323103  -0.564661  0  2.243044  0
O  O66  1  0.86274758  0.63824576  0.64253000  1  0  -0.877191  0  1.855691  0  0  -0.809223  0  2.066725  0  0  -0.832995  0  2.030093  0  0  -0.602378  -0.792572  0  2.092813  0
O  O67  1  0.13724694  0.36175400  0.35746764  1  0  -0.877265  0  1.855567  0  0  -0.809312  0  2.066573  0  0  -0.833085  0  2.029936  0  0  -0.602404  -0.792662  0  2.092663  0
