# generated using pymatgen
data_SrP2H12(C7O5)2
_symmetry_space_group_name_H-M   'P 1'
_cell_length_a   5.51549484
_cell_length_b   7.80091846
_cell_length_c   19.68073550
_cell_angle_alpha   101.44434387
_cell_angle_beta   98.75229803
_cell_angle_gamma   90.01294163
_symmetry_Int_Tables_number   1
_chemical_formula_structural   SrP2H12(C7O5)2
_chemical_formula_sum   'Sr2 P4 H24 C28 O20'
_cell_volume   819.87719454
_cell_formula_units_Z   2
loop_
 _symmetry_equiv_pos_site_id
 _symmetry_equiv_pos_as_xyz
  1  'x, y, z'
loop_
 _atom_site_type_symbol
 _atom_site_label
 _atom_site_symmetry_multiplicity
 _atom_site_fract_x
 _atom_site_fract_y
 _atom_site_fract_z
 _atom_site_occupancy
 _atom_site_hle17_bader_spin_density
 _atom_site_hle17_ddec_charge
 _atom_site_hle17_ddec_spin_density
 _atom_site_hle17_ddec_sum_bond_order
 _atom_site_hle17_magmom
 _atom_site_hse06_10hf_bader_spin_density
 _atom_site_hse06_10hf_ddec_charge
 _atom_site_hse06_10hf_ddec_spin_density
 _atom_site_hse06_10hf_ddec_sum_bond_order
 _atom_site_hse06_10hf_magmom
 _atom_site_hse06_bader_spin_density
 _atom_site_hse06_ddec_charge
 _atom_site_hse06_ddec_spin_density
 _atom_site_hse06_ddec_sum_bond_order
 _atom_site_hse06_magmom
 _atom_site_pbe_bader_spin_density
 _atom_site_pbe_cm5_charge
 _atom_site_pbe_ddec_charge
 _atom_site_pbe_ddec_spin_density
 _atom_site_pbe_ddec_sum_bond_order
 _atom_site_pbe_magmom
Sr  Sr0  1  0.25002080  0.82549739  0.00001713  1  0  1.669195  0  1.102806  0  0  1.540942  0  1.459409  0  0  1.574052  0  1.418843  0  0  1.05669  1.516353  0  1.488346  0
Sr  Sr1  1  0.74997996  0.17450258  0.99998323  1  0  1.669183  0  1.102826  0  0  1.540912  0  1.459482  0  0  1.57402  0  1.418917  0  0  1.056693  1.51632  0  1.488418  0
P  P2  1  0.76731162  0.80160668  0.10624978  1  0  1.486656  0  4.814154  0  0  1.329498  0  5.301501  0  0  1.380184  0  5.2607  0  0  0.363416  1.294086  0  5.3292  0
P  P3  1  0.73265120  0.69533110  0.89383632  1  0  1.487676  0  4.815375  0  0  1.32966  0  5.303252  0  0  1.380214  0  5.262908  0  0  0.362992  1.294303  0  5.330699  0
P  P4  1  0.23269103  0.19839331  0.89375115  1  0  1.486669  0  4.814067  0  0  1.32953  0  5.30142  0  0  1.380214  0  5.260621  0  0  0.363433  1.294122  0  5.329113  0
P  P5  1  0.26735114  0.30466757  0.10616247  1  0  1.487601  0  4.815515  0  0  1.329602  0  5.303313  0  0  1.380173  0  5.262941  0  0  0.362992  1.29423  0  5.330807  0
H  H6  1  0.56855380  0.52699294  0.08552665  1  0  0.450609  0  0.854219  0  0  0.414664  0  0.924235  0  0  0.42688  0  0.906917  0  0  0.316376  0.406118  0  0.936316  0
H  H7  1  0.93131759  0.44130254  0.91439785  1  0  0.451124  0  0.853948  0  0  0.415699  0  0.923191  0  0  0.427931  0  0.905833  0  0  0.31622  0.407143  0  0.9353  0
H  H8  1  0.43144320  0.47300832  0.91447268  1  0  0.45064  0  0.854196  0  0  0.414707  0  0.924185  0  0  0.426923  0  0.906866  0  0  0.316401  0.406157  0  0.936273  0
H  H9  1  0.06868110  0.55869481  0.08560123  1  0  0.451137  0  0.853937  0  0  0.415686  0  0.923224  0  0  0.427919  0  0.905865  0  0  0.316194  0.407131  0  0.93533  0
H  H10  1  0.68271238  0.92265692  0.50410450  1  0  0.403919  0  0.88722  0  0  0.37354  0  0.964263  0  0  0.386666  0  0.946344  0  0  0.305682  0.364324  0  0.974048  0
H  H11  1  0.81772859  0.41801687  0.49603359  1  0  0.40541  0  0.884981  0  0  0.374047  0  0.963709  0  0  0.387242  0  0.945481  0  0  0.305938  0.364785  0  0.973592  0
H  H12  1  0.31733835  0.07734725  0.49590037  1  0  0.404065  0  0.887052  0  0  0.373615  0  0.9642  0  0  0.38677  0  0.946216  0  0  0.305721  0.364354  0  0.974063  0
H  H13  1  0.18221507  0.58199326  0.50396114  1  0  0.405198  0  0.885295  0  0  0.373836  0  0.964026  0  0  0.387024  0  0.945802  0  0  0.305819  0.364581  0  0.9739  0
H  H14  1  0.05783158  0.72465973  0.23641861  1  0  0.093679  0  0.967601  0  0  0.101561  0  1.033885  0  0  0.103625  0  1.034921  0  0  0.101131  0.10008  0  1.03319  0
H  H15  1  0.44204584  0.48842456  0.76368369  1  0  0.093402  0  0.966741  0  0  0.101269  0  1.033215  0  0  0.103269  0  1.034356  0  0  0.100903  0.099785  0  1.03255  0
H  H16  1  0.94219506  0.27535084  0.76358241  1  0  0.093635  0  0.967564  0  0  0.101559  0  1.033818  0  0  0.103621  0  1.034859  0  0  0.101142  0.100085  0  1.033116  0
H  H17  1  0.55794948  0.51156755  0.23631843  1  0  0.093414  0  0.966736  0  0  0.101298  0  1.033204  0  0  0.103286  0  1.034357  0  0  0.100907  0.099809  0  1.032539  0
H  H18  1  0.98268192  0.79131465  0.36053747  1  0  0.105541  0  0.951405  0  0  0.111041  0  1.018346  0  0  0.114162  0  1.016886  0  0  0.106189  0.108759  0  1.019508  0
H  H19  1  0.51729954  0.43057007  0.63958344  1  0  0.105858  0  0.950454  0  0  0.11113  0  1.017739  0  0  0.114233  0  1.016302  0  0  0.106209  0.108878  0  1.018899  0
H  H20  1  0.01735226  0.20869989  0.63946461  1  0  0.105502  0  0.95131  0  0  0.111007  0  1.018236  0  0  0.114131  0  1.016774  0  0  0.106193  0.10873  0  1.0194  0
H  H21  1  0.48267570  0.56942848  0.36041751  1  0  0.105805  0  0.950471  0  0  0.111144  0  1.017662  0  0  0.114248  0  1.016223  0  0  0.106213  0.108883  0  1.018819  0
H  H22  1  0.32200072  0.05165333  0.29893539  1  0  0.099179  0  0.973776  0  0  0.105038  0  1.042197  0  0  0.107329  0  1.042557  0  0  0.102996  0.103417  0  1.041931  0
H  H23  1  0.17805446  0.75279119  0.70119218  1  0  0.098845  0  0.974571  0  0  0.105222  0  1.042424  0  0  0.107524  0  1.042823  0  0  0.103665  0.103593  0  1.042148  0
H  H24  1  0.67801292  0.94833626  0.70106763  1  0  0.099207  0  0.973677  0  0  0.105066  0  1.042096  0  0  0.107364  0  1.042435  0  0  0.10298  0.103447  0  1.041829  0
H  H25  1  0.82192357  0.24720734  0.29880225  1  0  0.098899  0  0.974509  0  0  0.105305  0  1.042328  0  0  0.107602  0  1.04274  0  0  0.10369  0.103661  0  1.04209  0
H  H26  1  0.39500324  0.98691532  0.17483863  1  0  0.102097  0  0.964851  0  0  0.11059  0  1.030197  0  0  0.113722  0  1.028825  0  0  0.114462  0.108232  0  1.03143  0
H  H27  1  0.10495177  0.81244940  0.82526776  1  0  0.101349  0  0.965778  0  0  0.109708  0  1.031416  0  0  0.112889  0  1.029937  0  0  0.113946  0.107337  0  1.032717  0
H  H28  1  0.60499946  0.01307421  0.82516454  1  0  0.102112  0  0.964865  0  0  0.110623  0  1.030167  0  0  0.113758  0  1.028798  0  0  0.11447  0.108263  0  1.0314  0
H  H29  1  0.89504646  0.18754400  0.17472845  1  0  0.10129  0  0.965752  0  0  0.109629  0  1.031447  0  0  0.112811  0  1.029967  0  0  0.113891  0.107255  0  1.032747  0
C  C30  1  0.73044403  0.85020176  0.19751771  1  0  -0.242938  0  3.766916  0  0  -0.200461  0  4.002979  0  0  -0.209025  0  4.024006  0  0  -0.015056  -0.194613  0  3.988879  0
C  C31  1  0.76950645  0.65285014  0.80258064  1  0  -0.246593  0  3.767782  0  0  -0.20349  0  4.00311  0  0  -0.212103  0  4.024185  0  0  -0.016738  -0.197593  0  3.988959  0
C  C32  1  0.26956754  0.14979304  0.80248260  1  0  -0.24288  0  3.766569  0  0  -0.20044  0  4.002679  0  0  -0.209004  0  4.023708  0  0  -0.015073  -0.194596  0  3.98859  0
C  C33  1  0.23049028  0.34714327  0.19741806  1  0  -0.246762  0  3.767684  0  0  -0.203605  0  4.002961  0  0  -0.21222  0  4.024036  0  0  -0.016803  -0.1977  0  3.988798  0
C  C34  1  0.89569267  0.79518858  0.24991840  1  0  -0.046017  0  3.744155  0  0  -0.066789  0  3.990697  0  0  -0.06806  0  4.012715  0  0  -0.080394  -0.065926  0  3.975799  0
C  C35  1  0.60425759  0.54536353  0.75017436  1  0  -0.042664  0  3.741004  0  0  -0.063278  0  3.986732  0  0  -0.064468  0  4.008739  0  0  -0.07839  -0.062451  0  3.971853  0
C  C36  1  0.10432827  0.20481803  0.75008162  1  0  -0.045918  0  3.743858  0  0  -0.066714  0  3.990393  0  0  -0.067989  0  4.012419  0  0  -0.080429  -0.065862  0  3.975517  0
C  C37  1  0.39573764  0.45463380  0.24982612  1  0  -0.042554  0  3.740798  0  0  -0.06323  0  3.98653  0  0  -0.064407  0  4.008538  0  0  -0.078327  -0.0624  0  3.971638  0
C  C38  1  0.85363433  0.83175561  0.31943123  1  0  -0.053813  0  3.680876  0  0  -0.079245  0  3.934154  0  0  -0.079413  0  3.954029  0  0  -0.072995  -0.078988  0  3.920677  0
C  C39  1  0.64639927  0.51222088  0.68067213  1  0  -0.054618  0  3.680513  0  0  -0.080295  0  3.934189  0  0  -0.080432  0  3.954008  0  0  -0.07373  -0.080037  0  3.920644  0
C  C40  1  0.14639420  0.16824844  0.68057137  1  0  -0.053822  0  3.68073  0  0  -0.079231  0  3.934042  0  0  -0.079405  0  3.953926  0  0  -0.072982  -0.078974  0  3.920574  0
C  C41  1  0.35358118  0.48777114  0.31932797  1  0  -0.054655  0  3.68054  0  0  -0.080318  0  3.934183  0  0  -0.080453  0  3.954  0  0  -0.073865  -0.080054  0  3.920626  0
C  C42  1  0.64494787  0.92272939  0.33672556  1  0  -0.067838  0  3.750281  0  0  -0.047658  0  3.985165  0  0  -0.055276  0  4.007184  0  0  -0.010807  -0.042682  0  3.970312  0
C  C43  1  0.85520889  0.58582439  0.66339351  1  0  -0.068014  0  3.750398  0  0  -0.047487  0  3.985143  0  0  -0.05515  0  4.007262  0  0  -0.010573  -0.042457  0  3.97022  0
C  C44  1  0.35508405  0.07726683  0.66327654  1  0  -0.06784  0  3.750588  0  0  -0.047732  0  3.985483  0  0  -0.055355  0  4.007508  0  0  -0.010799  -0.042751  0  3.97063  0
C  C45  1  0.14476982  0.41417416  0.33660603  1  0  -0.067914  0  3.750349  0  0  -0.047569  0  3.985127  0  0  -0.05524  0  4.007235  0  0  -0.010527  -0.042541  0  3.970209  0
C  C46  1  0.48148292  0.97949538  0.28444545  1  0  -0.061701  0  3.709213  0  0  -0.083983  0  3.956916  0  0  -0.084306  0  3.977641  0  0  -0.075361  -0.083591  0  3.942843  0
C  C47  1  0.01858981  0.69505413  0.71566391  1  0  -0.062485  0  3.710348  0  0  -0.08538  0  3.958087  0  0  -0.085734  0  3.978838  0  0  -0.076584  -0.084989  0  3.943997  0
C  C48  1  0.51852510  0.02049679  0.71555606  1  0  -0.06172  0  3.709429  0  0  -0.083982  0  3.957129  0  0  -0.084302  0  3.977858  0  0  -0.075397  -0.083602  0  3.943064  0
C  C49  1  0.98139192  0.30493919  0.28433176  1  0  -0.062485  0  3.710126  0  0  -0.08536  0  3.95784  0  0  -0.085719  0  3.978604  0  0  -0.076625  -0.084966  0  3.943737  0
C  C50  1  0.52337247  0.94325085  0.21530017  1  0  -0.038089  0  3.724423  0  0  -0.059613  0  3.969425  0  0  -0.060745  0  3.990067  0  0  -0.072442  -0.058891  0  3.955581  0
C  C51  1  0.97663791  0.72813538  0.78480256  1  0  -0.03528  0  3.723023  0  0  -0.056906  0  3.967776  0  0  -0.057979  0  3.988415  0  0  -0.07081  -0.056242  0  3.953957  0
C  C52  1  0.47663589  0.05674133  0.78470390  1  0  -0.038222  0  3.724407  0  0  -0.059753  0  3.96942  0  0  -0.060886  0  3.990058  0  0  -0.072435  -0.059024  0  3.955581  0
C  C53  1  0.02334938  0.27185797  0.21519380  1  0  -0.03517  0  3.722932  0  0  -0.056825  0  3.967683  0  0  -0.057898  0  3.988318  0  0  -0.070706  -0.056161  0  3.953857  0
C  C54  1  0.58609181  0.95881146  0.40940223  1  0  0.661444  0  3.798726  0  0  0.610405  0  4.096978  0  0  0.64471  0  4.087051  0  0  0.242735  0.587124  0  4.103203  0
C  C55  1  0.91412502  0.54918673  0.59070324  1  0  0.662071  0  3.797876  0  0  0.610785  0  4.096132  0  0  0.645098  0  4.086231  0  0  0.242555  0.587492  0  4.102328  0
C  C56  1  0.41393327  0.04118735  0.59060290  1  0  0.661676  0  3.798674  0  0  0.610708  0  4.096812  0  0  0.645022  0  4.086877  0  0  0.242931  0.58742  0  4.103028  0
C  C57  1  0.08580682  0.45080501  0.40928813  1  0  0.661564  0  3.79872  0  0  0.610588  0  4.096544  0  0  0.644922  0  4.086599  0  0  0.24249  0.587289  0  4.102771  0
O  O58  1  0.02982523  0.74674631  0.09915043  1  0  -0.873509  0  1.963662  0  0  -0.791712  0  2.214174  0  0  -0.817132  0  2.193859  0  0  -0.39271  -0.773585  0  2.227707  0
O  O59  1  0.47013285  0.64752835  0.90093682  1  0  -0.873791  0  1.963972  0  0  -0.791302  0  2.214397  0  0  -0.816737  0  2.19413  0  0  -0.393806  -0.773203  0  2.228  0
O  O60  1  0.97017717  0.25325236  0.90084887  1  0  -0.873508  0  1.963701  0  0  -0.791732  0  2.214205  0  0  -0.817154  0  2.193896  0  0  -0.392739  -0.773595  0  2.227712  0
O  O61  1  0.52986613  0.35247554  0.09906329  1  0  -0.873726  0  1.963983  0  0  -0.791253  0  2.214428  0  0  -0.816691  0  2.194161  0  0  -0.393836  -0.773153  0  2.228036  0
O  O62  1  0.67347076  0.95138170  0.07177654  1  0  -0.948191  0  1.986724  0  0  -0.870574  0  2.262248  0  0  -0.896488  0  2.2421  0  0  -0.45254  -0.851925  0  2.275648  0
O  O63  1  0.82661531  0.87956368  0.92840186  1  0  -0.949458  0  1.98823  0  0  -0.870986  0  2.263215  0  0  -0.897049  0  2.243376  0  0  -0.452387  -0.852277  0  2.276449  0
O  O64  1  0.32653757  0.04861963  0.92822571  1  0  -0.948181  0  1.986766  0  0  -0.870562  0  2.262278  0  0  -0.896478  0  2.242132  0  0  -0.452472  -0.851876  0  2.275594  0
O  O65  1  0.17339076  0.12043501  0.07159756  1  0  -0.949405  0  1.988263  0  0  -0.870967  0  2.263299  0  0  -0.897032  0  2.243456  0  0  -0.452372  -0.852258  0  2.276545  0
O  O66  1  0.57410760  0.64621437  0.06917150  1  0  -0.820113  0  2.058401  0  0  -0.739144  0  2.29794  0  0  -0.762071  0  2.272046  0  0  -0.408665  -0.722877  0  2.315612  0
O  O67  1  0.92574892  0.57689721  0.93082180  1  0  -0.820299  0  2.058785  0  0  -0.73971  0  2.298117  0  0  -0.76272  0  2.272435  0  0  -0.40801  -0.723365  0  2.31561  0
O  O68  1  0.42589131  0.35378951  0.93082810  1  0  -0.820105  0  2.05837  0  0  -0.739154  0  2.297932  0  0  -0.762079  0  2.272035  0  0  -0.408682  -0.722885  0  2.315603  0
O  O69  1  0.07424984  0.42310014  0.06917779  1  0  -0.820247  0  2.058826  0  0  -0.739642  0  2.298173  0  0  -0.762655  0  2.272484  0  0  -0.407945  -0.723299  0  2.315672  0
O  O70  1  0.39971759  0.04104874  0.42330798  1  0  -0.558657  0  1.972207  0  0  -0.509662  0  2.181255  0  0  -0.532011  0  2.170896  0  0  -0.281262  -0.494375  0  2.187498  0
O  O71  1  0.10008858  0.61799435  0.57673827  1  0  -0.559402  0  1.971162  0  0  -0.509834  0  2.180299  0  0  -0.532202  0  2.169903  0  0  -0.281472  -0.494548  0  2.186528  0
O  O72  1  0.60030442  0.95891342  0.57669418  1  0  -0.558812  0  1.971958  0  0  -0.50986  0  2.180925  0  0  -0.532203  0  2.170575  0  0  -0.281398  -0.494591  0  2.187149  0
O  O73  1  0.89986774  0.38203021  0.42325292  1  0  -0.55909  0  1.972264  0  0  -0.509607  0  2.181261  0  0  -0.531975  0  2.170845  0  0  -0.281313  -0.494322  0  2.18752  0
O  O74  1  0.73993942  0.89459116  0.45547279  1  0  -0.526573  0  2.081486  0  0  -0.478226  0  2.291685  0  0  -0.499893  0  2.27323  0  0  -0.318716  -0.463174  0  2.301798  0
O  O75  1  0.76072027  0.43836617  0.54466137  1  0  -0.527995  0  2.080451  0  0  -0.479001  0  2.291404  0  0  -0.500684  0  2.272684  0  0  -0.318611  -0.463949  0  2.301658  0
O  O76  1  0.26012836  0.10543533  0.54453285  1  0  -0.526726  0  2.081598  0  0  -0.478341  0  2.291804  0  0  -0.500024  0  2.273284  0  0  -0.31876  -0.463255  0  2.301997  0
O  O77  1  0.23924792  0.56163887  0.45534037  1  0  -0.527872  0  2.080024  0  0  -0.479  0  2.290903  0  0  -0.500689  0  2.272169  0  0  -0.318723  -0.463945  0  2.30114  0
