# generated using pymatgen
data_HgH17C21(NO2)3
_symmetry_space_group_name_H-M   'P 1'
_cell_length_a   8.79967759
_cell_length_b   10.51421997
_cell_length_c   10.99437203
_cell_angle_alpha   90.00004645
_cell_angle_beta   89.99978815
_cell_angle_gamma   104.18262982
_symmetry_Int_Tables_number   1
_chemical_formula_structural   HgH17C21(NO2)3
_chemical_formula_sum   'Hg2 H34 C42 N6 O12'
_cell_volume   986.21334361
_cell_formula_units_Z   2
loop_
 _symmetry_equiv_pos_site_id
 _symmetry_equiv_pos_as_xyz
  1  'x, y, z'
loop_
 _atom_site_type_symbol
 _atom_site_label
 _atom_site_symmetry_multiplicity
 _atom_site_fract_x
 _atom_site_fract_y
 _atom_site_fract_z
 _atom_site_occupancy
 _atom_site_pbe_bader_spin_density
 _atom_site_pbe_cm5_charge
 _atom_site_pbe_ddec_charge
 _atom_site_pbe_ddec_spin_density
 _atom_site_pbe_ddec_sum_bond_order
 _atom_site_pbe_magmom
Hg  Hg0  1  0.74999880  0.24999970  0.05584210  1  0  0.62499  0.612068  0  2.248253  0
Hg  Hg1  1  0.25000025  0.75000085  0.94415753  1  0  0.624988  0.612086  0  2.248333  0
H  H2  1  0.04954372  0.48312281  0.11237579  1  0  0.123793  0.105178  0  0.99574  0
H  H3  1  0.45045943  0.01687797  0.11237410  1  0  0.123789  0.105198  0  0.99571  0
H  H4  1  0.95046102  0.51687775  0.88762566  1  0  0.123767  0.105161  0  0.99573  0
H  H5  1  0.54954132  0.98312062  0.88762553  1  0  0.123786  0.105199  0  0.995729  0
H  H6  1  0.14930640  0.66983820  0.25335694  1  0  0.113223  0.123416  0  1.015526  0
H  H7  1  0.35069814  0.83016260  0.25335761  1  0  0.113245  0.123423  0  1.01551  0
H  H8  1  0.85070032  0.33016137  0.74664269  1  0  0.113219  0.12336  0  1.015555  0
H  H9  1  0.64930403  0.16983697  0.74664384  1  0  0.11323  0.123425  0  1.015508  0
H  H10  1  0.99339850  0.69289328  0.43905161  1  0  0.11167  0.118767  0  1.030709  0
H  H11  1  0.50660222  0.80710807  0.43905147  1  0  0.11166  0.118716  0  1.030768  0
H  H12  1  0.00660680  0.30710923  0.56094802  1  0  0.111676  0.118738  0  1.030756  0
H  H13  1  0.49339654  0.19289150  0.56094998  1  0  0.111673  0.118754  0  1.030725  0
H  H14  1  0.65362292  0.34242615  0.32475987  1  0  0.1188  0.087883  0  1.004445  0
H  H15  1  0.84638168  0.15757420  0.32475769  1  0  0.118838  0.087925  0  1.004419  0
H  H16  1  0.34638579  0.65757636  0.67524249  1  0  0.118851  0.087939  0  1.004378  0
H  H17  1  0.15362020  0.84242439  0.67524285  1  0  0.118821  0.087906  0  1.004386  0
H  H18  1  0.70474158  0.53864457  0.75541293  1  0  0.108425  0.122243  0  1.052051  0
H  H19  1  0.79525710  0.96135479  0.75541296  1  0  0.108427  0.122235  0  1.052051  0
H  H20  1  0.29525604  0.46135500  0.24458488  1  0  0.108417  0.1222  0  1.052065  0
H  H21  1  0.20473768  0.03864282  0.24458940  1  0  0.108401  0.122187  0  1.052057  0
H  H22  1  0.75000036  0.75000016  0.87182069  1  0  0.112767  0.130083  0  1.007622  0
H  H23  1  0.24998988  0.24999745  0.12817985  1  0  0.112782  0.130091  0  1.007621  0
H  H24  1  0.05172786  0.99672841  0.84881732  1  0  0.09187  0.14385  0  1.023452  0
H  H25  1  0.44827135  0.50326742  0.84881836  1  0  0.091909  0.143945  0  1.023368  0
H  H26  1  0.94827316  0.00326724  0.15118139  1  0  0.091903  0.143924  0  1.023398  0
H  H27  1  0.55172941  0.49673510  0.15118218  1  0  0.091926  0.143963  0  1.023378  0
H  H28  1  0.20917244  0.12654352  0.90480176  1  0  0.094873  0.158489  0  1.015445  0
H  H29  1  0.29082192  0.37345521  0.90479809  1  0  0.094909  0.158517  0  1.015398  0
H  H30  1  0.79082263  0.87345507  0.09520060  1  0  0.094918  0.158526  0  1.015395  0
H  H31  1  0.70917799  0.62654829  0.09520154  1  0  0.094886  0.158487  0  1.01543  0
H  H32  1  0.10910313  0.14572870  0.76670398  1  0  0.096756  0.153049  0  1.005132  0
H  H33  1  0.39089727  0.35426906  0.76670365  1  0  0.096754  0.153049  0  1.00513  0
H  H34  1  0.89089620  0.85426891  0.23329564  1  0  0.096751  0.153041  0  1.005133  0
H  H35  1  0.60910548  0.64573247  0.23329416  1  0  0.096759  0.153067  0  1.005164  0
C  C36  1  0.98327646  0.49677614  0.19302112  1  0  0.062647  0.107875  0  3.897509  0
C  C37  1  0.51672791  0.00322520  0.19301890  1  0  0.062649  0.107844  0  3.897398  0
C  C38  1  0.01672941  0.50322441  0.80698032  1  0  0.062706  0.107939  0  3.897291  0
C  C39  1  0.48327284  0.99677339  0.80697982  1  0  0.062608  0.107843  0  3.897535  0
C  C40  1  0.03851914  0.60041051  0.27295892  1  0  -0.07371  -0.104861  0  3.929787  0
C  C41  1  0.46148417  0.89959029  0.27295841  1  0  -0.073756  -0.104874  0  3.929674  0
C  C42  1  0.96148559  0.39959004  0.72704070  1  0  -0.073724  -0.104808  0  3.92972  0
C  C43  1  0.53851772  0.10040830  0.72704122  1  0  -0.07372  -0.104875  0  3.929866  0
C  C44  1  0.95140860  0.61190263  0.37621858  1  0  -0.053108  -0.045991  0  3.895529  0
C  C45  1  0.54859157  0.88809971  0.37622111  1  0  -0.053093  -0.045988  0  3.895513  0
C  C46  1  0.04859444  0.38809988  0.62378014  1  0  -0.05311  -0.046019  0  3.895531  0
C  C47  1  0.45140833  0.11189986  0.62378216  1  0  -0.053138  -0.046047  0  3.895633  0
C  C48  1  0.81111885  0.51705409  0.39772430  1  0  -0.009531  -0.051196  0  3.969268  0
C  C49  1  0.68888207  0.98294727  0.39772194  1  0  -0.009535  -0.051054  0  3.969171  0
C  C50  1  0.18888589  0.48294647  0.60227624  1  0  -0.009541  -0.051024  0  3.969231  0
C  C51  1  0.31111755  0.01705524  0.60227769  1  0  -0.009489  -0.051019  0  3.969255  0
C  C52  1  0.76332945  0.41662012  0.31221331  1  0  0.061189  0.074735  0  3.919549  0
C  C53  1  0.73667407  0.08338023  0.31221049  1  0  0.061158  0.074602  0  3.919411  0
C  C54  1  0.23667869  0.58338043  0.68778723  1  0  0.061146  0.074616  0  3.919425  0
C  C55  1  0.26332696  0.91661934  0.68778914  1  0  0.061145  0.074695  0  3.919405  0
C  C56  1  0.71587086  0.51374481  0.51020563  1  0  0.171131  0.338811  0  3.973391  0
C  C57  1  0.78413040  0.98625948  0.51020298  1  0  0.17108  0.338712  0  3.97342  0
C  C58  1  0.28413102  0.48625378  0.48979400  1  0  0.171155  0.338753  0  3.973444  0
C  C59  1  0.21587095  0.01374892  0.48979755  1  0  0.171052  0.338582  0  3.973528  0
C  C60  1  0.73136844  0.63808070  0.58079632  1  0  0.107786  0.119776  0  4.005553  0
C  C61  1  0.76863135  0.86191966  0.58079453  1  0  0.107729  0.119611  0  4.005576  0
C  C62  1  0.26863459  0.36191789  0.41920149  1  0  0.107759  0.119749  0  4.005541  0
C  C63  1  0.23136771  0.13808482  0.41920328  1  0  0.107702  0.119768  0  4.005426  0
C  C64  1  0.72548641  0.63265123  0.70818968  1  0  -0.069898  -0.129288  0  3.894151  0
C  C65  1  0.77451052  0.86734912  0.70818970  1  0  -0.069875  -0.12917  0  3.894104  0
C  C66  1  0.27450924  0.36734933  0.29180904  1  0  -0.069861  -0.129147  0  3.894158  0
C  C67  1  0.22548370  0.13265045  0.29181084  1  0  -0.069838  -0.12915  0  3.894029  0
C  C68  1  0.74999831  0.75000017  0.77283095  1  0  -0.063793  -0.010354  0  3.899912  0
C  C69  1  0.24999306  0.24999744  0.22716959  1  0  -0.06382  -0.010438  0  3.899968  0
C  C70  1  0.97748129  0.15840798  0.92702109  1  0  0.191772  0.658829  0  4.151654  0
C  C71  1  0.52250772  0.34158348  0.92702456  1  0  0.191916  0.658922  0  4.151621  0
C  C72  1  0.02250921  0.84158276  0.07297672  1  0  0.191933  0.658959  0  4.151584  0
C  C73  1  0.47749048  0.65841806  0.07297598  1  0  0.191871  0.658898  0  4.151745  0
C  C74  1  0.09554723  0.10309062  0.85858827  1  0  -0.249873  -0.517707  0  3.872441  0
C  C75  1  0.40444762  0.39690518  0.85858793  1  0  -0.249969  -0.517831  0  3.872398  0
C  C76  1  0.90444840  0.89690601  0.14141227  1  0  -0.249969  -0.517813  0  3.872386  0
C  C77  1  0.59555143  0.60309538  0.14141352  1  0  -0.249977  -0.517863  0  3.872428  0
N  N78  1  0.84704011  0.40743134  0.21233481  1  0  -0.304294  -0.206618  0  3.525832  0
N  N79  1  0.65296473  0.09256805  0.21233225  1  0  -0.304277  -0.20655  0  3.525744  0
N  N80  1  0.15296689  0.59256921  0.78766755  1  0  -0.304353  -0.206695  0  3.525724  0
N  N81  1  0.34703687  0.90742956  0.78766738  1  0  -0.304214  -0.206601  0  3.525826  0
N  N82  1  0.75000089  0.74999920  0.51708192  1  0  -0.299307  -0.300877  0  3.323716  0
N  N83  1  0.25000157  0.25000135  0.48291862  1  0  -0.299248  -0.300893  0  3.323657  0
O  O84  1  0.63000679  0.40971290  0.54712733  1  0  -0.247738  -0.387157  0  2.130086  0
O  O85  1  0.86999736  0.09028939  0.54712776  1  0  -0.247666  -0.387024  0  2.13008  0
O  O86  1  0.36999481  0.59028471  0.45287048  1  0  -0.24773  -0.387129  0  2.130108  0
O  O87  1  0.13000512  0.90971901  0.45287369  1  0  -0.24768  -0.387037  0  2.130107  0
O  O88  1  0.02531610  0.25227789  0.00173822  1  0  -0.316817  -0.54514  0  2.146606  0
O  O89  1  0.47466964  0.24771604  0.00174028  1  0  -0.316901  -0.545196  0  2.146623  0
O  O90  1  0.97467100  0.74771678  0.99826050  1  0  -0.316889  -0.5452  0  2.146663  0
O  O91  1  0.52533084  0.75228549  0.99825935  1  0  -0.316925  -0.545239  0  2.146631  0
O  O92  1  0.83169794  0.10886285  0.90629977  1  0  -0.316287  -0.540437  0  2.166331  0
O  O93  1  0.66829542  0.39112763  0.90630740  1  0  -0.31632  -0.540438  0  2.166266  0
O  O94  1  0.16829710  0.89112789  0.09369349  1  0  -0.316354  -0.54048  0  2.166241  0
O  O95  1  0.33170562  0.60887587  0.09369314  1  0  -0.316261  -0.54038  0  2.166414  0
