# generated using pymatgen
data_MgZnH14C16(NO8)2
_symmetry_space_group_name_H-M   'P 1'
_cell_length_a   7.00095116
_cell_length_b   7.00097786
_cell_length_c   20.79470763
_cell_angle_alpha   88.77081202
_cell_angle_beta   88.77051226
_cell_angle_gamma   87.52849992
_symmetry_Int_Tables_number   1
_chemical_formula_structural   MgZnH14C16(NO8)2
_chemical_formula_sum   'Mg2 Zn2 H28 C32 N4 O32'
_cell_volume   1017.82397853
_cell_formula_units_Z   2
loop_
 _symmetry_equiv_pos_site_id
 _symmetry_equiv_pos_as_xyz
  1  'x, y, z'
loop_
 _atom_site_type_symbol
 _atom_site_label
 _atom_site_symmetry_multiplicity
 _atom_site_fract_x
 _atom_site_fract_y
 _atom_site_fract_z
 _atom_site_occupancy
 _atom_site_hle17_bader_spin_density
 _atom_site_hle17_ddec_charge
 _atom_site_hle17_ddec_spin_density
 _atom_site_hle17_ddec_sum_bond_order
 _atom_site_hle17_magmom
 _atom_site_hse06_10hf_bader_spin_density
 _atom_site_hse06_10hf_ddec_charge
 _atom_site_hse06_10hf_ddec_spin_density
 _atom_site_hse06_10hf_ddec_sum_bond_order
 _atom_site_hse06_10hf_magmom
 _atom_site_hse06_bader_spin_density
 _atom_site_hse06_ddec_charge
 _atom_site_hse06_ddec_spin_density
 _atom_site_hse06_ddec_sum_bond_order
 _atom_site_hse06_magmom
 _atom_site_pbe_bader_spin_density
 _atom_site_pbe_cm5_charge
 _atom_site_pbe_ddec_charge
 _atom_site_pbe_ddec_spin_density
 _atom_site_pbe_ddec_sum_bond_order
 _atom_site_pbe_magmom
Mg  Mg0  1  0.18692304  0.81307793  0.25000006  1  0  1.598526  0  1.012524  0  0  1.492636  0  1.269279  0  0  1.514281  0  1.232547  0  0  0.820677  1.477383  0  1.295016  0
Mg  Mg1  1  0.81307543  0.18692335  0.74999968  1  0  1.598543  0  1.012532  0  0  1.492637  0  1.269311  0  0  1.514282  0  1.232578  0  0  0.82071  1.477403  0  1.295028  0
Zn  Zn2  1  0.63361148  0.36639048  0.24999919  1  0  1.179596  0  1.678071  0  0  0.986766  0  2.155256  0  0  1.042425  0  2.086178  0  0  0.704035  0.947355  0  2.203303  0
Zn  Zn3  1  0.36639135  0.63360941  0.75000053  1  0  1.179595  0  1.678032  0  0  0.98678  0  2.155204  0  0  1.042435  0  2.086124  0  0  0.704041  0.947376  0  2.203255  0
H  H4  1  0.77161671  0.29666592  0.47524398  1  0  0.107975  0  0.963599  0  0  0.112033  0  1.033071  0  0  0.115481  0  1.031248  0  0  0.104488  0.109546  0  1.034555  0
H  H5  1  0.70333829  0.22838064  0.02475423  1  0  0.107908  0  0.963603  0  0  0.112021  0  1.033006  0  0  0.115445  0  1.031236  0  0  0.104479  0.10953  0  1.03449  0
H  H6  1  0.22838469  0.70333396  0.52475479  1  0  0.107973  0  0.963617  0  0  0.112057  0  1.033044  0  0  0.115474  0  1.03128  0  0  0.104483  0.109569  0  1.034529  0
H  H7  1  0.29666183  0.77161637  0.97524504  1  0  0.107897  0  0.963553  0  0  0.111996  0  1.03299  0  0  0.115409  0  1.031212  0  0  0.104475  0.109508  0  1.034475  0
H  H8  1  0.99152094  0.17392379  0.56075168  1  0  0.128927  0  0.923156  0  0  0.137291  0  0.981512  0  0  0.141501  0  0.978103  0  0  0.121984  0.134201  0  0.984124  0
H  H9  1  0.82608231  0.00847393  0.93924604  1  0  0.128909  0  0.923147  0  0  0.137257  0  0.981536  0  0  0.141468  0  0.978125  0  0  0.121959  0.134168  0  0.984151  0
H  H10  1  0.00848069  0.82607180  0.43924663  1  0  0.1289  0  0.923159  0  0  0.137273  0  0.981509  0  0  0.141484  0  0.978096  0  0  0.121971  0.134184  0  0.984123  0
H  H11  1  0.17392067  0.99152310  0.06075418  1  0  0.12888  0  0.923149  0  0  0.137243  0  0.981513  0  0  0.141454  0  0.978103  0  0  0.121961  0.134153  0  0.984128  0
H  H12  1  0.47481636  0.28555710  0.43541197  1  0  0.124093  0  0.947871  0  0  0.126855  0  1.020508  0  0  0.130818  0  1.017184  0  0  0.11535  0.12398  0  1.022965  0
H  H13  1  0.71444528  0.52518269  0.06458841  1  0  0.124097  0  0.947833  0  0  0.126851  0  1.020498  0  0  0.130816  0  1.017171  0  0  0.115352  0.123974  0  1.022953  0
H  H14  1  0.52518354  0.71444419  0.56458728  1  0  0.124141  0  0.947807  0  0  0.12688  0  1.020481  0  0  0.130845  0  1.017154  0  0  0.115362  0.124002  0  1.02294  0
H  H15  1  0.28555334  0.47481572  0.93541327  1  0  0.124165  0  0.947806  0  0  0.126891  0  1.020494  0  0  0.130856  0  1.017167  0  0  0.115374  0.124012  0  1.022955  0
H  H16  1  0.37775396  0.06998825  0.31982513  1  0  0.439181  0  0.859365  0  0  0.405489  0  0.926496  0  0  0.415745  0  0.911459  0  0  0.298162  0.398291  0  0.937046  0
H  H17  1  0.93001064  0.62225007  0.18017466  1  0  0.439303  0  0.859195  0  0  0.405523  0  0.926455  0  0  0.415777  0  0.91142  0  0  0.298188  0.398324  0  0.937005  0
H  H18  1  0.62224586  0.93001448  0.68017411  1  0  0.439211  0  0.859323  0  0  0.405538  0  0.926432  0  0  0.415792  0  0.911397  0  0  0.298174  0.398337  0  0.936984  0
H  H19  1  0.06998483  0.37775404  0.81982508  1  0  0.439261  0  0.859257  0  0  0.405482  0  0.926515  0  0  0.415738  0  0.911478  0  0  0.298147  0.398284  0  0.937064  0
H  H20  1  0.37890598  0.87834281  0.36182940  1  0  0.429445  0  0.86191  0  0  0.393673  0  0.932503  0  0  0.403884  0  0.917171  0  0  0.30125  0.38648  0  0.94331  0
H  H21  1  0.12165805  0.62109733  0.13817108  1  0  0.429443  0  0.861913  0  0  0.39367  0  0.932509  0  0  0.403881  0  0.917178  0  0  0.301236  0.386476  0  0.943316  0
H  H22  1  0.62109384  0.12165991  0.63816984  1  0  0.429416  0  0.861927  0  0  0.393663  0  0.932488  0  0  0.403873  0  0.917159  0  0  0.301236  0.386471  0  0.943294  0
H  H23  1  0.87833892  0.37890536  0.86182962  1  0  0.429456  0  0.861877  0  0  0.393695  0  0.932448  0  0  0.403905  0  0.917119  0  0  0.301241  0.386504  0  0.943252  0
H  H24  1  0.85032656  0.77712260  0.31939931  1  0  0.444505  0  0.848329  0  0  0.410887  0  0.915905  0  0  0.420485  0  0.901745  0  0  0.301446  0.404114  0  0.925894  0
H  H25  1  0.22287711  0.14967251  0.18060120  1  0  0.444515  0  0.848311  0  0  0.410898  0  0.915886  0  0  0.420494  0  0.901726  0  0  0.301454  0.404125  0  0.925874  0
H  H26  1  0.14967334  0.22287869  0.68060090  1  0  0.444495  0  0.848341  0  0  0.410874  0  0.915922  0  0  0.420472  0  0.901761  0  0  0.301444  0.404101  0  0.925911  0
H  H27  1  0.77712129  0.85033019  0.81939901  1  0  0.444513  0  0.848311  0  0  0.410891  0  0.915893  0  0  0.420489  0  0.901732  0  0  0.301454  0.40412  0  0.92588  0
H  H28  1  0.88587370  0.99911786  0.30619140  1  0  0.450224  0  0.828547  0  0  0.417995  0  0.893937  0  0  0.42769  0  0.879493  0  0  0.311286  0.411117  0  0.904203  0
H  H29  1  0.00088031  0.11412629  0.19380879  1  0  0.450217  0  0.828546  0  0  0.417983  0  0.893952  0  0  0.427679  0  0.879507  0  0  0.311274  0.411103  0  0.904218  0
H  H30  1  0.11412619  0.00088343  0.69380881  1  0  0.450196  0  0.828557  0  0  0.417978  0  0.893953  0  0  0.427668  0  0.879515  0  0  0.311282  0.411103  0  0.904214  0
H  H31  1  0.99911959  0.88587500  0.80619094  1  0  0.450191  0  0.828552  0  0  0.417967  0  0.893966  0  0  0.427659  0  0.879526  0  0  0.311268  0.411092  0  0.904227  0
C  C32  1  0.28219626  0.41721816  0.33178908  1  0  0.726849  0  3.840003  0  0  0.667517  0  4.134819  0  0  0.703528  0  4.124146  0  0  0.244302  0.643003  0  4.14158  0
C  C33  1  0.58278230  0.71780742  0.16821060  1  0  0.72671  0  3.840361  0  0  0.667436  0  4.135073  0  0  0.703445  0  4.124401  0  0  0.244253  0.642917  0  4.141845  0
C  C34  1  0.71780657  0.58278173  0.66821015  1  0  0.726867  0  3.840272  0  0  0.667496  0  4.135172  0  0  0.703502  0  4.1245  0  0  0.244319  0.642989  0  4.141931  0
C  C35  1  0.41721617  0.28219385  0.83179010  1  0  0.726673  0  3.840422  0  0  0.667426  0  4.135132  0  0  0.703438  0  4.124459  0  0  0.244277  0.642896  0  4.141914  0
C  C36  1  0.19772836  0.35023422  0.39499344  1  0  -0.06384  0  3.687632  0  0  -0.046148  0  3.92051  0  0  -0.053928  0  3.94087  0  0  -0.001663  -0.041316  0  3.907144  0
C  C37  1  0.64976804  0.80227286  0.10500531  1  0  -0.063779  0  3.687478  0  0  -0.046153  0  3.920404  0  0  -0.053934  0  3.940768  0  0  -0.001659  -0.041313  0  3.907027  0
C  C38  1  0.80227583  0.64976711  0.60500626  1  0  -0.063732  0  3.687466  0  0  -0.046077  0  3.920413  0  0  -0.053857  0  3.940778  0  0  -0.001649  -0.041266  0  3.90707  0
C  C39  1  0.35022907  0.19772697  0.89499493  1  0  -0.06365  0  3.68742  0  0  -0.0461  0  3.920427  0  0  -0.053879  0  3.940789  0  0  -0.001632  -0.04125  0  3.907041  0
C  C40  1  0.99884302  0.35317580  0.40640068  1  0  -0.008591  0  3.654079  0  0  -0.002714  0  3.892099  0  0  -0.003194  0  3.910139  0  0  0.014299  -0.002489  0  3.880141  0
C  C41  1  0.64682486  0.00116004  0.09359833  1  0  -0.008669  0  3.654068  0  0  -0.002777  0  3.892119  0  0  -0.003254  0  3.910151  0  0  0.014274  -0.002557  0  3.88016  0
C  C42  1  0.00116139  0.64682124  0.59359953  1  0  -0.008602  0  3.654082  0  0  -0.002707  0  3.892102  0  0  -0.003188  0  3.910143  0  0  0.014326  -0.002472  0  3.880144  0
C  C43  1  0.35316798  0.99883976  0.90640145  1  0  -0.008735  0  3.654143  0  0  -0.002834  0  3.892185  0  0  -0.003313  0  3.910215  0  0  0.014287  -0.002614  0  3.880221  0
C  C44  1  0.92532394  0.29202285  0.46623454  1  0  -0.072902  0  3.70806  0  0  -0.096649  0  3.968623  0  0  -0.101302  0  3.98983  0  0  -0.079569  -0.093602  0  3.954549  0
C  C45  1  0.70797930  0.07467545  0.03376449  1  0  -0.072756  0  3.707984  0  0  -0.096533  0  3.968538  0  0  -0.101182  0  3.989737  0  0  -0.079548  -0.093482  0  3.954455  0
C  C46  1  0.07467904  0.70797418  0.53376519  1  0  -0.072972  0  3.708011  0  0  -0.09673  0  3.968594  0  0  -0.101374  0  3.9898  0  0  -0.079587  -0.093683  0  3.95452  0
C  C47  1  0.29201918  0.92532583  0.96623525  1  0  -0.072747  0  3.70802  0  0  -0.096536  0  3.968583  0  0  -0.101161  0  3.9898  0  0  -0.079547  -0.093489  0  3.954505  0
C  C48  1  0.04637926  0.22369157  0.51428494  1  0  -0.068046  0  3.696297  0  0  -0.096501  0  3.959445  0  0  -0.094513  0  3.977189  0  0  -0.066524  -0.097663  0  3.9476  0
C  C49  1  0.77631364  0.95361691  0.98571412  1  0  -0.068107  0  3.696236  0  0  -0.09655  0  3.959423  0  0  -0.09456  0  3.977166  0  0  -0.066496  -0.097715  0  3.947579  0
C  C50  1  0.95362222  0.77630687  0.48571432  1  0  -0.068046  0  3.696278  0  0  -0.096514  0  3.959422  0  0  -0.094522  0  3.977157  0  0  -0.066556  -0.09768  0  3.947583  0
C  C51  1  0.22368791  0.04638010  0.01428658  1  0  -0.068048  0  3.696213  0  0  -0.096495  0  3.959418  0  0  -0.094504  0  3.97715  0  0  -0.066506  -0.097659  0  3.947573  0
C  C52  1  0.24341080  0.22468180  0.50224014  1  0  0.074251  0  3.73075  0  0  0.055604  0  3.993769  0  0  0.051334  0  4.015691  0  0  0.078431  0.058199  0  3.979122  0
C  C53  1  0.77532325  0.75658155  0.99775974  1  0  0.074277  0  3.730974  0  0  0.055624  0  3.994048  0  0  0.051354  0  4.015975  0  0  0.078465  0.058218  0  3.979398  0
C  C54  1  0.75659203  0.77531809  0.49775910  1  0  0.074239  0  3.731019  0  0  0.055667  0  3.994012  0  0  0.051397  0  4.015935  0  0  0.078469  0.058262  0  3.979363  0
C  C55  1  0.22467830  0.24341546  0.00224096  1  0  0.074297  0  3.731028  0  0  0.055616  0  3.99408  0  0  0.051348  0  4.016005  0  0  0.078469  0.058211  0  3.979428  0
C  C56  1  0.32086027  0.28844479  0.44378436  1  0  -0.088781  0  3.68216  0  0  -0.131147  0  3.948981  0  0  -0.127824  0  3.96498  0  0  -0.070424  -0.133112  0  3.938272  0
C  C57  1  0.71155879  0.67914102  0.05621518  1  0  -0.088762  0  3.682264  0  0  -0.131108  0  3.949128  0  0  -0.127788  0  3.965135  0  0  -0.070438  -0.133073  0  3.938407  0
C  C58  1  0.67914399  0.71155511  0.55621487  1  0  -0.088856  0  3.682205  0  0  -0.131204  0  3.94905  0  0  -0.127879  0  3.965044  0  0  -0.070436  -0.133157  0  3.938334  0
C  C59  1  0.28843990  0.32085596  0.94378603  1  0  -0.088913  0  3.682343  0  0  -0.13121  0  3.949239  0  0  -0.127888  0  3.96524  0  0  -0.070489  -0.133178  0  3.938515  0
C  C60  1  0.86055919  0.41120420  0.35446853  1  0  0.664888  0  3.908954  0  0  0.610017  0  4.211438  0  0  0.644198  0  4.203676  0  0  0.215934  0.586719  0  4.21564  0
C  C61  1  0.58879805  0.13944032  0.14553067  1  0  0.664914  0  3.90897  0  0  0.610042  0  4.21146  0  0  0.644227  0  4.203691  0  0  0.215947  0.586745  0  4.215662  0
C  C62  1  0.13944221  0.58879568  0.64553168  1  0  0.665022  0  3.908959  0  0  0.610162  0  4.21142  0  0  0.644341  0  4.203655  0  0  0.215992  0.586862  0  4.215625  0
C  C63  1  0.41119885  0.86056380  0.85446858  1  0  0.664934  0  3.9089  0  0  0.610154  0  4.211244  0  0  0.644338  0  4.203475  0  0  0.215873  0.58686  0  4.215446  0
N  N64  1  0.37100980  0.15082023  0.55179246  1  0  0.483535  0  3.939074  0  0  0.534179  0  4.196867  0  0  0.55686  0  4.20321  0  0  0.054767  0.518868  0  4.192788  0
N  N65  1  0.84917818  0.62898704  0.94820678  1  0  0.483655  0  3.939033  0  0  0.534158  0  4.197014  0  0  0.556839  0  4.203358  0  0  0.054726  0.518847  0  4.192938  0
N  N66  1  0.62899446  0.84917967  0.44820773  1  0  0.48365  0  3.939147  0  0  0.534118  0  4.19718  0  0  0.556799  0  4.203524  0  0  0.054751  0.518808  0  4.193101  0
N  N67  1  0.15082059  0.37100852  0.05179348  1  0  0.483545  0  3.939155  0  0  0.53415  0  4.197008  0  0  0.556831  0  4.203351  0  0  0.054713  0.518839  0  4.19293  0
O  O68  1  0.42266783  0.30975616  0.31001569  1  0  -0.670601  0  2.122384  0  0  -0.58419  0  2.397251  0  0  -0.614861  0  2.376861  0  0  -0.305943  -0.563014  0  2.410995  0
O  O69  1  0.69024220  0.57733535  0.18998524  1  0  -0.670627  0  2.122497  0  0  -0.584187  0  2.397324  0  0  -0.614846  0  2.376927  0  0  -0.305936  -0.563018  0  2.411078  0
O  O70  1  0.57733485  0.69024659  0.68998353  1  0  -0.670611  0  2.122458  0  0  -0.5842  0  2.397356  0  0  -0.614852  0  2.376955  0  0  -0.305909  -0.56303  0  2.411103  0
O  O71  1  0.30975620  0.42266735  0.81001641  1  0  -0.670578  0  2.122423  0  0  -0.584136  0  2.397236  0  0  -0.614807  0  2.376848  0  0  -0.30593  -0.562964  0  2.410998  0
O  O72  1  0.21658155  0.56776858  0.30624867  1  0  -0.67682  0  2.03338  0  0  -0.61955  0  2.275275  0  0  -0.642778  0  2.261842  0  0  -0.317453  -0.603464  0  2.284117  0
O  O73  1  0.43223391  0.78343107  0.19375065  1  0  -0.676763  0  2.033592  0  0  -0.619505  0  2.275453  0  0  -0.642735  0  2.262025  0  0  -0.317411  -0.603417  0  2.284298  0
O  O74  1  0.78342106  0.43223560  0.69375102  1  0  -0.676861  0  2.033599  0  0  -0.619556  0  2.275509  0  0  -0.642787  0  2.26208  0  0  -0.31748  -0.603473  0  2.284342  0
O  O75  1  0.56776163  0.21657160  0.80624958  1  0  -0.676756  0  2.033683  0  0  -0.619503  0  2.275556  0  0  -0.642733  0  2.262125  0  0  -0.317425  -0.603416  0  2.284401  0
O  O76  1  0.84840620  0.28943052  0.30944159  1  0  -0.637969  0  2.03462  0  0  -0.556406  0  2.289011  0  0  -0.587905  0  2.274558  0  0  -0.304262  -0.534013  0  2.298171  0
O  O77  1  0.71057134  0.15159285  0.19055704  1  0  -0.637983  0  2.034651  0  0  -0.556421  0  2.289044  0  0  -0.587929  0  2.274599  0  0  -0.304278  -0.53403  0  2.298206  0
O  O78  1  0.15159107  0.71056645  0.69055819  1  0  -0.638051  0  2.034682  0  0  -0.556508  0  2.289086  0  0  -0.587993  0  2.274616  0  0  -0.304319  -0.534115  0  2.298251  0
O  O79  1  0.28942977  0.84841275  0.80944121  1  0  -0.637994  0  2.034612  0  0  -0.556474  0  2.288982  0  0  -0.587981  0  2.274535  0  0  -0.304258  -0.534084  0  2.298146  0
O  O80  1  0.76250872  0.56482542  0.35845031  1  0  -0.620841  0  1.944286  0  0  -0.57475  0  2.176035  0  0  -0.60116  0  2.167841  0  0  -0.310569  -0.555214  0  2.180474  0
O  O81  1  0.43517731  0.23749324  0.14154909  1  0  -0.62082  0  1.944219  0  0  -0.574732  0  2.175973  0  0  -0.601139  0  2.167776  0  0  -0.310561  -0.555201  0  2.18042  0
O  O82  1  0.23749561  0.43517305  0.64155037  1  0  -0.620892  0  1.944197  0  0  -0.574798  0  2.175939  0  0  -0.601208  0  2.167746  0  0  -0.310588  -0.555264  0  2.180385  0
O  O83  1  0.56481958  0.76251089  0.85845112  1  0  -0.620836  0  1.944207  0  0  -0.574777  0  2.17591  0  0  -0.601186  0  2.167712  0  0  -0.310529  -0.555244  0  2.180353  0
O  O84  1  0.30916659  0.03386178  0.59177304  1  0  -0.344609  0  1.813574  0  0  -0.328537  0  2.019109  0  0  -0.339698  0  2.01495  0  0  -0.108775  -0.321404  0  2.022338  0
O  O85  1  0.96613637  0.69082379  0.90822428  1  0  -0.34471  0  1.813613  0  0  -0.328531  0  2.019119  0  0  -0.339693  0  2.014958  0  0  -0.108745  -0.3214  0  2.022354  0
O  O86  1  0.69083330  0.96613951  0.40822717  1  0  -0.344614  0  1.81346  0  0  -0.328506  0  2.019085  0  0  -0.339667  0  2.014926  0  0  -0.108784  -0.321377  0  2.022318  0
O  O87  1  0.03385962  0.30917032  0.09177456  1  0  -0.344707  0  1.813592  0  0  -0.328575  0  2.019088  0  0  -0.339736  0  2.014927  0  0  -0.108798  -0.321447  0  2.022321  0
O  O88  1  0.53906496  0.20569515  0.55156634  1  0  -0.378814  0  1.779583  0  0  -0.354848  0  1.969089  0  0  -0.369593  0  1.965647  0  0  -0.128079  -0.345183  0  1.971719  0
O  O89  1  0.79430207  0.46093374  0.94843328  1  0  -0.378859  0  1.77953  0  0  -0.354839  0  1.969084  0  0  -0.36958  0  1.965643  0  0  -0.128087  -0.345175  0  1.971712  0
O  O90  1  0.46093788  0.79430474  0.44843242  1  0  -0.378878  0  1.779709  0  0  -0.354839  0  1.969291  0  0  -0.369583  0  1.96585  0  0  -0.128067  -0.345172  0  1.971919  0
O  O91  1  0.20569383  0.53906178  0.05156844  1  0  -0.378759  0  1.779611  0  0  -0.3548  0  1.969165  0  0  -0.369543  0  1.965718  0  0  -0.128037  -0.345138  0  1.971794  0
O  O92  1  0.33107938  0.93855693  0.32210253  1  0  -0.92447  0  1.865176  0  0  -0.869886  0  2.053933  0  0  -0.886125  0  2.020583  0  0  -0.618951  -0.858479  0  2.077146  0
O  O93  1  0.06144138  0.66892125  0.17789808  1  0  -0.924577  0  1.86501  0  0  -0.869921  0  2.053883  0  0  -0.88616  0  2.020536  0  0  -0.618978  -0.858514  0  2.077095  0
O  O94  1  0.66891767  0.06144433  0.67789770  1  0  -0.924469  0  1.865154  0  0  -0.869912  0  2.053866  0  0  -0.886153  0  2.020521  0  0  -0.618979  -0.858509  0  2.077074  0
O  O95  1  0.93855408  0.33108286  0.82210166  1  0  -0.924531  0  1.865052  0  0  -0.869887  0  2.053923  0  0  -0.886126  0  2.020575  0  0  -0.618937  -0.858485  0  2.077127  0
O  O96  1  0.92041503  0.86900575  0.29238767  1  0  -0.906642  0  1.834735  0  0  -0.849912  0  2.021182  0  0  -0.86699  0  1.989667  0  0  -0.611833  -0.837914  0  2.043185  0
O  O97  1  0.13099245  0.07958490  0.20761237  1  0  -0.90662  0  1.8347  0  0  -0.849901  0  2.021179  0  0  -0.866978  0  1.989664  0  0  -0.611824  -0.837906  0  2.043186  0
O  O98  1  0.07958345  0.13099553  0.70761207  1  0  -0.906609  0  1.834743  0  0  -0.849889  0  2.021206  0  0  -0.866964  0  1.989703  0  0  -0.61185  -0.837905  0  2.043197  0
O  O99  1  0.86900602  0.92041637  0.79238736  1  0  -0.906597  0  1.834698  0  0  -0.849875  0  2.021173  0  0  -0.866948  0  1.989669  0  0  -0.611823  -0.837889  0  2.043162  0
