# generated using pymatgen
data_ZnH9C13NO5
_symmetry_space_group_name_H-M   'P 1'
_cell_length_a   10.02127791
_cell_length_b   11.26578202
_cell_length_c   11.32024771
_cell_angle_alpha   104.95336588
_cell_angle_beta   96.41905034
_cell_angle_gamma   108.24041335
_symmetry_Int_Tables_number   1
_chemical_formula_structural   ZnH9C13NO5
_chemical_formula_sum   'Zn4 H36 C52 N4 O20'
_cell_volume   1146.59049980
_cell_formula_units_Z   4
loop_
 _symmetry_equiv_pos_site_id
 _symmetry_equiv_pos_as_xyz
  1  'x, y, z'
loop_
 _atom_site_type_symbol
 _atom_site_label
 _atom_site_symmetry_multiplicity
 _atom_site_fract_x
 _atom_site_fract_y
 _atom_site_fract_z
 _atom_site_occupancy
 _atom_site_hle17_bader_spin_density
 _atom_site_hle17_ddec_charge
 _atom_site_hle17_ddec_spin_density
 _atom_site_hle17_ddec_sum_bond_order
 _atom_site_hle17_magmom
 _atom_site_hse06_10hf_bader_spin_density
 _atom_site_hse06_10hf_ddec_charge
 _atom_site_hse06_10hf_ddec_spin_density
 _atom_site_hse06_10hf_ddec_sum_bond_order
 _atom_site_hse06_10hf_magmom
 _atom_site_hse06_bader_spin_density
 _atom_site_hse06_ddec_charge
 _atom_site_hse06_ddec_spin_density
 _atom_site_hse06_ddec_sum_bond_order
 _atom_site_hse06_magmom
 _atom_site_pbe_bader_spin_density
 _atom_site_pbe_cm5_charge
 _atom_site_pbe_ddec_charge
 _atom_site_pbe_ddec_spin_density
 _atom_site_pbe_ddec_sum_bond_order
 _atom_site_pbe_magmom
Zn  Zn0  1  0.22022797  0.35643967  0.64501790  1  0  1.083109  0  1.761901  0  0  0.910456  0  2.20305  0  0  0.956036  0  2.150717  0  0  0.691781  0.87863  0  2.238873  0
Zn  Zn1  1  0.77977044  0.64356068  0.35498146  1  0  1.083103  0  1.761891  0  0  0.910449  0  2.203041  0  0  0.956029  0  2.150707  0  0  0.691778  0.878625  0  2.238861  0
Zn  Zn2  1  0.25155359  0.64880850  0.30073084  1  0  1.166196  0  1.727452  0  0  0.990753  0  2.213225  0  0  1.041682  0  2.146818  0  0  0.693062  0.954801  0  2.259096  0
Zn  Zn3  1  0.74844684  0.35119184  0.69927047  1  0  1.166215  0  1.727439  0  0  0.990763  0  2.213204  0  0  1.041686  0  2.146812  0  0  0.693066  0.954809  0  2.259079  0
H  H4  1  0.48764598  0.47454038  0.60459833  1  0  0.43288  0  0.844402  0  0  0.402988  0  0.919295  0  0  0.412662  0  0.905002  0  0  0.305976  0.396147  0  0.927677  0
H  H5  1  0.51235420  0.52546194  0.39540259  1  0  0.432886  0  0.844428  0  0  0.402986  0  0.919307  0  0  0.41266  0  0.905015  0  0  0.305968  0.396145  0  0.927717  0
H  H6  1  0.37427762  0.40609049  0.47246165  1  0  0.424333  0  0.879792  0  0  0.392652  0  0.946054  0  0  0.403588  0  0.929991  0  0  0.295572  0.384932  0  0.957384  0
H  H7  1  0.62572318  0.59391085  0.52753731  1  0  0.424323  0  0.879823  0  0  0.392643  0  0.946061  0  0  0.403585  0  0.929995  0  0  0.295579  0.384925  0  0.957389  0
H  H8  1  0.08576960  0.43914856  0.46090108  1  0  0.424144  0  0.833681  0  0  0.39987  0  0.901587  0  0  0.408693  0  0.891401  0  0  0.30475  0.39364  0  0.908767  0
H  H9  1  0.91422819  0.56085277  0.53909935  1  0  0.424135  0  0.833722  0  0  0.399855  0  0.90164  0  0  0.408679  0  0.891453  0  0  0.304743  0.393625  0  0.908823  0
H  H10  1  0.22110567  0.54882774  0.55191211  1  0  0.416398  0  0.899586  0  0  0.383963  0  0.967566  0  0  0.394813  0  0.951666  0  0  0.28664  0.376369  0  0.978675  0
H  H11  1  0.77889275  0.45117261  0.44808813  1  0  0.4164  0  0.899583  0  0  0.383966  0  0.967559  0  0  0.394816  0  0.95166  0  0  0.28664  0.376373  0  0.978668  0
H  H12  1  0.68635108  0.84624967  0.52537361  1  0  0.084134  0  0.94159  0  0  0.094836  0  1.001615  0  0  0.096447  0  1.000393  0  0  0.119999  0.093579  0  1.002699  0
H  H13  1  0.31364771  0.15375167  0.47462516  1  0  0.084153  0  0.941556  0  0  0.09485  0  1.001581  0  0  0.096462  0  1.000357  0  0  0.120015  0.093592  0  1.002667  0
H  H14  1  0.78940188  0.03592966  0.72036178  1  0  0.112386  0  0.955169  0  0  0.123554  0  1.013386  0  0  0.125664  0  1.014657  0  0  0.108405  0.121745  0  1.01353  0
H  H15  1  0.21059854  0.96407069  0.27963777  1  0  0.112363  0  0.955162  0  0  0.123541  0  1.013369  0  0  0.125649  0  1.014642  0  0  0.108403  0.121731  0  1.013513  0
H  H16  1  0.07753286  0.41720373  0.04713597  1  0  0.110537  0  0.946676  0  0  0.1187  0  1.011155  0  0  0.122174  0  1.009234  0  0  0.108324  0.11618  0  1.012734  0
H  H17  1  0.92246642  0.58279366  0.95286446  1  0  0.110522  0  0.94674  0  0  0.118685  0  1.011219  0  0  0.12216  0  1.009297  0  0  0.108315  0.116166  0  1.012797  0
H  H18  1  0.15115895  0.99043182  0.93007015  1  0  0.089776  0  0.95458  0  0  0.101975  0  1.014693  0  0  0.104929  0  1.013768  0  0  0.100489  0.099807  0  1.015649  0
H  H19  1  0.84883971  0.00956655  0.06993048  1  0  0.089823  0  0.954522  0  0  0.101993  0  1.014672  0  0  0.104947  0  1.013747  0  0  0.100502  0.099827  0  1.015625  0
H  H20  1  0.24906280  0.14378662  0.14735496  1  0  0.093724  0  0.982478  0  0  0.101658  0  1.052369  0  0  0.1041  0  1.0515  0  0  0.101806  0.099874  0  1.053091  0
H  H21  1  0.75093624  0.85621274  0.85264596  1  0  0.093732  0  0.982525  0  0  0.101667  0  1.052409  0  0  0.104108  0  1.051542  0  0  0.101798  0.099882  0  1.053132  0
H  H22  1  0.19232391  0.97173451  0.72013694  1  0  0.102951  0  0.984774  0  0  0.112522  0  1.047691  0  0  0.114668  0  1.048646  0  0  0.103476  0.110855  0  1.047778  0
H  H23  1  0.80767412  0.02826486  0.27986213  1  0  0.103006  0  0.984746  0  0  0.112555  0  1.047678  0  0  0.114701  0  1.048633  0  0  0.103495  0.110887  0  1.047768  0
H  H24  1  0.48922223  0.50509415  0.84417655  1  0  0.088165  0  0.982507  0  0  0.093015  0  1.04985  0  0  0.096261  0  1.047289  0  0  0.115071  0.090743  0  1.051506  0
H  H25  1  0.51077957  0.49490718  0.15582339  1  0  0.088164  0  0.982497  0  0  0.09301  0  1.049843  0  0  0.09625  0  1.047297  0  0  0.115061  0.090737  0  1.0515  0
H  H26  1  0.10704172  0.56913497  0.77025562  1  0  0.094225  0  0.949632  0  0  0.10059  0  1.01523  0  0  0.103464  0  1.012627  0  0  0.11658  0.098505  0  1.017121  0
H  H27  1  0.89295970  0.43086539  0.22974314  1  0  0.094238  0  0.949624  0  0  0.100596  0  1.015222  0  0  0.10347  0  1.012617  0  0  0.116578  0.09851  0  1.017115  0
H  H28  1  0.07592867  0.79357742  0.51721395  1  0  0.093372  0  0.951974  0  0  0.102144  0  1.013203  0  0  0.104607  0  1.011304  0  0  0.118414  0.100214  0  1.014868  0
H  H29  1  0.92407074  0.20642294  0.48278285  1  0  0.093369  0  0.952017  0  0  0.102218  0  1.013142  0  0  0.104691  0  1.011233  0  0  0.118425  0.100284  0  1.014804  0
H  H30  1  0.58533647  0.70110052  0.03274293  1  0  0.112323  0  0.966204  0  0  0.122598  0  1.025248  0  0  0.124841  0  1.026614  0  0  0.10752  0.120617  0  1.025294  0
H  H31  1  0.41466458  0.29889885  0.96725730  1  0  0.112291  0  0.966209  0  0  0.122579  0  1.025233  0  0  0.124825  0  1.026591  0  0  0.107513  0.120609  0  1.025271  0
H  H32  1  0.18733218  0.76803026  0.95672526  1  0  0.102372  0  0.962591  0  0  0.111842  0  1.025917  0  0  0.114545  0  1.025698  0  0  0.104095  0.109714  0  1.026835  0
H  H33  1  0.81266787  0.23196910  0.04327664  1  0  0.102367  0  0.962575  0  0  0.111876  0  1.025847  0  0  0.114576  0  1.025642  0  0  0.104118  0.109748  0  1.026765  0
H  H34  1  0.63259477  0.97716542  0.42863489  1  0  0.104055  0  0.957338  0  0  0.110971  0  1.025722  0  0  0.11421  0  1.023673  0  0  0.106719  0.108683  0  1.027265  0
H  H35  1  0.36740804  0.02283592  0.57136515  1  0  0.104079  0  0.957322  0  0  0.110993  0  1.025721  0  0  0.114229  0  1.02367  0  0  0.106733  0.108704  0  1.027264  0
H  H36  1  0.37135271  0.98895172  0.03621893  1  0  0.090663  0  0.965976  0  0  0.101995  0  1.028294  0  0  0.104494  0  1.028151  0  0  0.099568  0.100166  0  1.028585  0
H  H37  1  0.62864633  0.01104764  0.96378199  1  0  0.090688  0  0.965965  0  0  0.10202  0  1.028288  0  0  0.104515  0  1.028151  0  0  0.099578  0.100192  0  1.028582  0
H  H38  1  0.47504213  0.19178742  0.22216239  1  0  0.110957  0  0.958113  0  0  0.115794  0  1.028704  0  0  0.119747  0  1.025659  0  0  0.106154  0.113011  0  1.030746  0
H  H39  1  0.52495728  0.80821293  0.77783707  1  0  0.110949  0  0.958122  0  0  0.115772  0  1.028724  0  0  0.119725  0  1.025677  0  0  0.106143  0.112988  0  1.030769  0
C  C40  1  0.97148332  0.28627176  0.80343920  1  0  0.672612  0  3.889087  0  0  0.618482  0  4.186398  0  0  0.653997  0  4.177352  0  0  0.220094  0.594356  0  4.191491  0
C  C41  1  0.02851773  0.71372761  0.19656192  1  0  0.672603  0  3.889073  0  0  0.618468  0  4.186401  0  0  0.65398  0  4.17736  0  0  0.22008  0.594342  0  4.191493  0
C  C42  1  0.54474896  0.74372150  0.25178706  1  0  0.67777  0  3.88089  0  0  0.622296  0  4.178704  0  0  0.657781  0  4.1693  0  0  0.222153  0.59821  0  4.184088  0
C  C43  1  0.45525208  0.25627787  0.74821317  1  0  0.677852  0  3.880786  0  0  0.622306  0  4.178716  0  0  0.657795  0  4.169312  0  0  0.222134  0.598212  0  4.184118  0
C  C44  1  0.04539837  0.24142025  0.89711320  1  0  -0.08904  0  3.698182  0  0  -0.069666  0  3.933244  0  0  -0.076967  0  3.952924  0  0  -0.007514  -0.064906  0  3.920356  0
C  C45  1  0.95459952  0.75857616  0.10288684  1  0  -0.088957  0  3.698131  0  0  -0.069607  0  3.933216  0  0  -0.076899  0  3.952885  0  0  -0.007532  -0.064848  0  3.920331  0
C  C46  1  0.79961801  0.88080864  0.56944665  1  0  0.146921  0  3.680921  0  0  0.114017  0  3.93445  0  0  0.121665  0  3.952566  0  0  0.050949  0.109523  0  3.921803  0
C  C47  1  0.20037902  0.11919073  0.43055232  1  0  0.146852  0  3.681043  0  0  0.113967  0  3.934546  0  0  0.121619  0  3.952661  0  0  0.050918  0.109474  0  3.921898  0
C  C48  1  0.85783003  0.98555260  0.67938869  1  0  -0.155162  0  3.683049  0  0  -0.173293  0  3.930591  0  0  -0.181088  0  3.9518  0  0  -0.080522  -0.168566  0  3.917089  0
C  C49  1  0.14216762  0.01444578  0.32061096  1  0  -0.155143  0  3.683058  0  0  -0.173293  0  3.930613  0  0  -0.181088  0  3.951822  0  0  -0.080543  -0.168565  0  3.917109  0
C  C50  1  0.00119876  0.01970406  0.73871043  1  0  0.112618  0  3.74943  0  0  0.123477  0  3.982423  0  0  0.128074  0  4.003303  0  0  0.017934  0.120467  0  3.968273  0
C  C51  1  0.99879989  0.98029433  0.26128932  1  0  0.11272  0  3.749386  0  0  0.123567  0  3.982378  0  0  0.128164  0  4.003259  0  0  0.017927  0.120559  0  3.968224  0
C  C52  1  0.06494458  0.11927475  0.86309679  1  0  0.053848  0  3.722821  0  0  0.058417  0  3.95467  0  0  0.061029  0  3.975156  0  0  0.005542  0.056752  0  3.940751  0
C  C53  1  0.93505269  0.88072264  0.13690345  1  0  0.053781  0  3.722839  0  0  0.058389  0  3.954644  0  0  0.060997  0  3.975132  0  0  0.005578  0.056725  0  3.940726  0
C  C54  1  0.09542681  0.32414151  0.02085232  1  0  -0.071944  0  3.692356  0  0  -0.104408  0  3.935504  0  0  -0.102653  0  3.95431  0  0  -0.076727  -0.105761  0  3.923927  0
C  C55  1  0.90457045  0.67585588  0.97914792  1  0  -0.072036  0  3.692506  0  0  -0.104503  0  3.935672  0  0  -0.102747  0  3.954467  0  0  -0.076752  -0.105854  0  3.924093  0
C  C56  1  0.16949268  0.28991702  0.11135439  1  0  -0.068787  0  3.748406  0  0  -0.044657  0  3.983248  0  0  -0.05299  0  4.005782  0  0  -0.018781  -0.039431  0  3.968784  0
C  C57  1  0.83050598  0.71008136  0.88864624  1  0  -0.068743  0  3.748451  0  0  -0.044615  0  3.983291  0  0  -0.052948  0  4.005827  0  0  -0.018777  -0.039391  0  3.968828  0
C  C58  1  0.22412905  0.38005239  0.24383806  1  0  0.670635  0  3.87041  0  0  0.616927  0  4.166481  0  0  0.651217  0  4.158086  0  0  0.217628  0.593672  0  4.171409  0
C  C59  1  0.77587362  0.61994598  0.75616296  1  0  0.670711  0  3.870257  0  0  0.617017  0  4.166291  0  0  0.651306  0  4.157896  0  0  0.217682  0.593764  0  4.171223  0
C  C60  1  0.13983907  0.08645182  0.95475202  1  0  -0.108004  0  3.738748  0  0  -0.127041  0  3.993549  0  0  -0.131188  0  4.013715  0  0  -0.085957  -0.124133  0  3.979579  0
C  C61  1  0.86015959  0.91354656  0.04524861  1  0  -0.10797  0  3.738685  0  0  -0.126997  0  3.993477  0  0  -0.131143  0  4.013643  0  0  -0.085941  -0.124086  0  3.979502  0
C  C62  1  0.19272984  0.17062624  0.07659754  1  0  -0.064989  0  3.754152  0  0  -0.093928  0  4.009301  0  0  -0.09241  0  4.029511  0  0  -0.084222  -0.094698  0  3.995482  0
C  C63  1  0.80726920  0.82937312  0.92340250  1  0  -0.065058  0  3.754178  0  0  -0.093993  0  4.009319  0  0  -0.092478  0  4.029531  0  0  -0.084225  -0.094762  0  3.995499  0
C  C64  1  0.07998285  0.94782390  0.67975332  1  0  -0.153208  0  3.696584  0  0  -0.172609  0  3.942986  0  0  -0.179998  0  3.963949  0  0  -0.083607  -0.167946  0  3.929427  0
C  C65  1  0.92001618  0.05217547  0.32024496  1  0  -0.153327  0  3.696559  0  0  -0.172711  0  3.942991  0  0  -0.180101  0  3.963958  0  0  -0.083601  -0.168047  0  3.929431  0
C  C66  1  0.42500140  0.56539497  0.87305711  1  0  0.136701  0  3.682997  0  0  0.10553  0  3.9343  0  0  0.113175  0  3.950659  0  0  0.04523  0.100798  0  3.922982  0
C  C67  1  0.57500041  0.43460637  0.12694283  1  0  0.136713  0  3.683038  0  0  0.105546  0  3.934342  0  0  0.113189  0  3.9507  0  0  0.04523  0.100814  0  3.923026  0
C  C68  1  0.21266418  0.60213890  0.83080967  1  0  0.134075  0  3.67099  0  0  0.10518  0  3.916589  0  0  0.111792  0  3.935048  0  0  0.046072  0.10097  0  3.904131  0
C  C69  1  0.78733763  0.39786244  0.16919027  1  0  0.134024  0  3.670984  0  0  0.105156  0  3.916557  0  0  0.111767  0  3.935019  0  0  0.046059  0.100947  0  3.904097  0
C  C70  1  0.01574987  0.84784770  0.56736606  1  0  0.129264  0  3.689238  0  0  0.100701  0  3.934046  0  0  0.107703  0  3.952262  0  0  0.045661  0.096465  0  3.921648  0
C  C71  1  0.98425131  0.15215462  0.43263319  1  0  0.129336  0  3.689212  0  0  0.10072  0  3.933969  0  0  0.107714  0  3.952194  0  0  0.045674  0.096491  0  3.921564  0
C  C72  1  0.52037930  0.86519307  0.23843429  1  0  -0.10738  0  3.72844  0  0  -0.088607  0  3.966881  0  0  -0.095688  0  3.985553  0  0  -0.011996  -0.084039  0  3.95443  0
C  C73  1  0.47962112  0.13480729  0.76156526  1  0  -0.107415  0  3.72845  0  0  -0.088596  0  3.966881  0  0  -0.095685  0  3.985556  0  0  -0.011979  -0.084027  0  3.954433  0
C  C74  1  0.44551734  0.86768975  0.12630269  1  0  0.045926  0  3.733931  0  0  0.049552  0  3.968617  0  0  0.0522  0  3.989237  0  0  0.001172  0.048003  0  3.954508  0
C  C75  1  0.55448131  0.13230864  0.87369706  1  0  0.045943  0  3.733992  0  0  0.049589  0  3.968679  0  0  0.052241  0  3.989295  0  0  0.00119  0.048041  0  3.954571  0
C  C76  1  0.47786558  0.67528254  0.97866458  1  0  -0.163542  0  3.698702  0  0  -0.180336  0  3.943558  0  0  -0.188635  0  3.965444  0  0  -0.084641  -0.175058  0  3.929364  0
C  C77  1  0.52213484  0.32471782  0.02133496  1  0  -0.163544  0  3.698633  0  0  -0.180324  0  3.943503  0  0  -0.188623  0  3.965389  0  0  -0.084637  -0.175055  0  3.929303  0
C  C78  1  0.25902664  0.71412835  0.93434567  1  0  -0.144772  0  3.695116  0  0  -0.163519  0  3.943217  0  0  -0.170295  0  3.96336  0  0  -0.080349  -0.159443  0  3.930523  0
C  C79  1  0.74097579  0.28587201  0.06565407  1  0  -0.144793  0  3.695028  0  0  -0.163547  0  3.94314  0  0  -0.170326  0  3.96328  0  0  -0.080371  -0.15947  0  3.930446  0
C  C80  1  0.39356495  0.75188546  0.01287371  1  0  0.108945  0  3.755433  0  0  0.119893  0  3.987732  0  0  0.124197  0  4.008851  0  0  0.013564  0.117038  0  3.973526  0
C  C81  1  0.60643647  0.24811489  0.98712682  1  0  0.109025  0  3.75535  0  0  0.119894  0  3.987749  0  0  0.124199  0  4.008866  0  0  0.013587  0.117038  0  3.973546  0
C  C82  1  0.57462101  0.97824660  0.34196686  1  0  -0.067933  0  3.725861  0  0  -0.102141  0  3.974671  0  0  -0.099249  0  3.992017  0  0  -0.078741  -0.104318  0  3.963985  0
C  C83  1  0.42537903  0.02175277  0.65803239  1  0  -0.067911  0  3.725862  0  0  -0.102134  0  3.974679  0  0  -0.099238  0  3.992027  0  0  -0.078756  -0.104312  0  3.963991  0
C  C84  1  0.55979833  0.09574327  0.33596571  1  0  -0.064025  0  3.76195  0  0  -0.039078  0  3.993062  0  0  -0.047906  0  4.015729  0  0  -0.018623  -0.033507  0  3.979003  0
C  C85  1  0.44020108  0.90425708  0.66403374  1  0  -0.064083  0  3.761974  0  0  -0.039121  0  3.993081  0  0  -0.04795  0  4.015748  0  0  -0.018628  -0.033547  0  3.979021  0
C  C86  1  0.42678973  0.98556068  0.12306854  1  0  -0.116348  0  3.742438  0  0  -0.13435  0  3.996921  0  0  -0.138441  0  4.016972  0  0  -0.089414  -0.13151  0  3.983013  0
C  C87  1  0.57321070  0.01443967  0.87693189  1  0  -0.11637  0  3.742378  0  0  -0.134376  0  3.996861  0  0  -0.138466  0  4.016914  0  0  -0.089424  -0.13154  0  3.982953  0
C  C88  1  0.63083943  0.21913242  0.44392659  1  0  0.646851  0  3.914709  0  0  0.597994  0  4.201994  0  0  0.632077  0  4.195095  0  0  0.210542  0.574719  0  4.206384  0
C  C89  1  0.36915998  0.78086793  0.55607286  1  0  0.646788  0  3.91486  0  0  0.597928  0  4.202151  0  0  0.63201  0  4.195255  0  0  0.210478  0.574653  0  4.206539  0
C  C90  1  0.48482988  0.09899163  0.22550947  1  0  -0.068919  0  3.739782  0  0  -0.097003  0  3.995036  0  0  -0.095123  0  4.013809  0  0  -0.083554  -0.098011  0  3.982604  0
C  C91  1  0.51516915  0.90100774  0.77448969  1  0  -0.068907  0  3.739678  0  0  -0.09698  0  3.994932  0  0  -0.095098  0  4.013704  0  0  -0.083551  -0.097988  0  3.982501  0
N  N92  1  0.29374047  0.52765553  0.80073507  1  0  -0.327569  0  3.268826  0  0  -0.245348  0  3.529856  0  0  -0.264444  0  3.546566  0  0  -0.32343  -0.232452  0  3.518206  0
N  N93  1  0.70626134  0.47234581  0.19926487  1  0  -0.327553  0  3.268936  0  0  -0.245346  0  3.52996  0  0  -0.264439  0  3.546667  0  0  -0.323413  -0.232449  0  3.518309  0
N  N94  1  0.87660739  0.81289545  0.51342672  1  0  -0.325256  0  3.271242  0  0  -0.244629  0  3.532383  0  0  -0.263524  0  3.54962  0  0  -0.323891  -0.23189  0  3.520044  0
N  N95  1  0.12339240  0.18710590  0.48657126  1  0  -0.325319  0  3.271306  0  0  -0.244698  0  3.532472  0  0  -0.263598  0  3.549715  0  0  -0.323926  -0.23196  0  3.52013  0
O  O96  1  0.43556770  0.64432661  0.24689984  1  0  -0.650931  0  2.080429  0  0  -0.573694  0  2.347777  0  0  -0.604022  0  2.333716  0  0  -0.312857  -0.552404  0  2.356733  0
O  O97  1  0.56443272  0.35567373  0.75310059  1  0  -0.650958  0  2.080365  0  0  -0.573701  0  2.347758  0  0  -0.60403  0  2.333702  0  0  -0.312857  -0.552409  0  2.356721  0
O  O98  1  0.01683602  0.29609677  0.70583602  1  0  -0.629348  0  2.068355  0  0  -0.571506  0  2.339705  0  0  -0.597981  0  2.326475  0  0  -0.299139  -0.552471  0  2.347704  0
O  O99  1  0.98316540  0.70390358  0.29416450  1  0  -0.629336  0  2.068311  0  0  -0.571507  0  2.3397  0  0  -0.597968  0  2.326439  0  0  -0.299149  -0.552473  0  2.347701  0
O  O100  1  0.15737775  0.46064990  0.27972534  1  0  -0.697006  0  2.052929  0  0  -0.624066  0  2.336192  0  0  -0.650667  0  2.314362  0  0  -0.342471  -0.60539  0  2.350594  0
O  O101  1  0.84262267  0.53935046  0.72027333  1  0  -0.697021  0  2.052991  0  0  -0.624047  0  2.3362  0  0  -0.650647  0  2.314368  0  0  -0.342457  -0.605363  0  2.350582  0
O  O102  1  0.86084174  0.31286478  0.83116056  1  0  -0.646805  0  2.04326  0  0  -0.576103  0  2.318792  0  0  -0.606481  0  2.304984  0  0  -0.314687  -0.55452  0  2.327494  0
O  O103  1  0.13915868  0.68713556  0.16883987  1  0  -0.646806  0  2.0433  0  0  -0.576086  0  2.318802  0  0  -0.606469  0  2.305  0  0  -0.314655  -0.554507  0  2.327513  0
O  O104  1  0.39796651  0.40221750  0.55863938  1  0  -0.833835  0  1.979657  0  0  -0.776177  0  2.204867  0  0  -0.796542  0  2.171538  0  0  -0.578729  -0.761903  0  2.226423  0
O  O105  1  0.60203406  0.59778580  0.44136184  1  0  -0.83383  0  1.97972  0  0  -0.776152  0  2.20491  0  0  -0.796527  0  2.171564  0  0  -0.57873  -0.761877  0  2.226489  0
O  O106  1  0.32787634  0.37179428  0.31048205  1  0  -0.605629  0  1.971736  0  0  -0.547771  0  2.195528  0  0  -0.571176  0  2.185457  0  0  -0.296245  -0.531457  0  2.201967  0
O  O107  1  0.67212370  0.62820508  0.68951809  1  0  -0.605667  0  1.971535  0  0  -0.547849  0  2.195352  0  0  -0.571255  0  2.185284  0  0  -0.296292  -0.531536  0  2.201792  0
O  O108  1  0.13274400  0.47397723  0.54932527  1  0  -0.831686  0  1.896465  0  0  -0.777369  0  2.101157  0  0  -0.797562  0  2.072359  0  0  -0.577828  -0.762992  0  2.120745  0
O  O109  1  0.86725504  0.52602213  0.45067477  1  0  -0.831671  0  1.896475  0  0  -0.777365  0  2.101179  0  0  -0.797556  0  2.072371  0  0  -0.577821  -0.762988  0  2.120769  0
O  O110  1  0.67320220  0.74809876  0.26646535  1  0  -0.61223  0  2.022931  0  0  -0.554277  0  2.28853  0  0  -0.581008  0  2.27769  0  0  -0.299861  -0.535442  0  2.295503  0
O  O111  1  0.32679683  0.25190062  0.73353293  1  0  -0.612274  0  2.022874  0  0  -0.554317  0  2.288529  0  0  -0.581046  0  2.277685  0  0  -0.299862  -0.535477  0  2.295508  0
O  O112  1  0.63399155  0.32664486  0.43013052  1  0  -0.601767  0  2.014739  0  0  -0.549454  0  2.243012  0  0  -0.57217  0  2.232279  0  0  -0.307149  -0.533725  0  2.250181  0
O  O113  1  0.36600825  0.67335648  0.56986746  1  0  -0.601729  0  2.014788  0  0  -0.549429  0  2.243082  0  0  -0.572146  0  2.23235  0  0  -0.307134  -0.533699  0  2.250249  0
O  O114  1  0.68722625  0.20392771  0.54538965  1  0  -0.666766  0  2.061153  0  0  -0.594316  0  2.340876  0  0  -0.624323  0  2.32497  0  0  -0.330008  -0.573225  0  2.35179  0
O  O115  1  0.31277455  0.79607363  0.45460931  1  0  -0.666716  0  2.061189  0  0  -0.594265  0  2.340895  0  0  -0.62427  0  2.324986  0  0  -0.329976  -0.573174  0  2.35181  0
