# generated using pymatgen
data_ZnH10C12(NO)4
_symmetry_space_group_name_H-M   'P 1'
_cell_length_a   7.90584407
_cell_length_b   7.90583746
_cell_length_c   22.39704608
_cell_angle_alpha   90.00003518
_cell_angle_beta   89.99998435
_cell_angle_gamma   89.99968561
_symmetry_Int_Tables_number   1
_chemical_formula_structural   ZnH10C12(NO)4
_chemical_formula_sum   'Zn4 H40 C48 N16 O16'
_cell_volume   1399.86730156
_cell_formula_units_Z   4
loop_
 _symmetry_equiv_pos_site_id
 _symmetry_equiv_pos_as_xyz
  1  'x, y, z'
loop_
 _atom_site_type_symbol
 _atom_site_label
 _atom_site_symmetry_multiplicity
 _atom_site_fract_x
 _atom_site_fract_y
 _atom_site_fract_z
 _atom_site_occupancy
 _atom_site_hle17_bader_spin_density
 _atom_site_hle17_ddec_charge
 _atom_site_hle17_ddec_spin_density
 _atom_site_hle17_ddec_sum_bond_order
 _atom_site_hle17_magmom
 _atom_site_hse06_10hf_bader_spin_density
 _atom_site_hse06_10hf_ddec_charge
 _atom_site_hse06_10hf_ddec_spin_density
 _atom_site_hse06_10hf_ddec_sum_bond_order
 _atom_site_hse06_10hf_magmom
 _atom_site_hse06_bader_spin_density
 _atom_site_hse06_ddec_charge
 _atom_site_hse06_ddec_spin_density
 _atom_site_hse06_ddec_sum_bond_order
 _atom_site_hse06_magmom
 _atom_site_pbe_bader_spin_density
 _atom_site_pbe_cm5_charge
 _atom_site_pbe_ddec_charge
 _atom_site_pbe_ddec_spin_density
 _atom_site_pbe_ddec_sum_bond_order
 _atom_site_pbe_magmom
Zn  Zn0  1  0.61569221  0.61569146  0.00000048  1  0  0.996715  0  1.845788  0  0  0.799671  0  2.315081  0  0  0.84882  0  2.260818  0  0  0.691157  0.765329  0  2.352356  0
Zn  Zn1  1  0.38430813  0.38430528  0.49999899  1  0  0.99674  0  1.845774  0  0  0.799687  0  2.315057  0  0  0.848834  0  2.260795  0  0  0.691134  0.765347  0  2.352333  0
Zn  Zn2  1  0.88431123  0.11568699  0.24999990  1  0  0.996735  0  1.845873  0  0  0.799621  0  2.315187  0  0  0.848771  0  2.260926  0  0  0.691147  0.76528  0  2.352465  0
Zn  Zn3  1  0.11568639  0.88431272  0.75000033  1  0  0.996698  0  1.845896  0  0  0.799604  0  2.315203  0  0  0.84875  0  2.260942  0  0  0.691158  0.765263  0  2.352481  0
H  H4  1  0.27456765  0.47681165  0.19543474  1  0  0.117086  0  0.941473  0  0  0.130517  0  0.99265  0  0  0.133993  0  0.992626  0  0  0.107749  0.12804  0  0.992908  0
H  H5  1  0.72543507  0.52318417  0.69543414  1  0  0.117092  0  0.94148  0  0  0.130525  0  0.992653  0  0  0.134  0  0.992629  0  0  0.107754  0.128049  0  0.992913  0
H  H6  1  0.02319700  0.77453813  0.44543293  1  0  0.116935  0  0.941643  0  0  0.130431  0  0.99274  0  0  0.133907  0  0.992716  0  0  0.107719  0.127948  0  0.993013  0
H  H7  1  0.97680427  0.22546192  0.94543358  1  0  0.117058  0  0.941596  0  0  0.130528  0  0.992713  0  0  0.134004  0  0.992687  0  0  0.107754  0.128052  0  0.992976  0
H  H8  1  0.22546089  0.97680676  0.05456622  1  0  0.117029  0  0.941633  0  0  0.130529  0  0.992715  0  0  0.134005  0  0.992689  0  0  0.107757  0.128043  0  0.992989  0
H  H9  1  0.77453562  0.02319387  0.55456729  1  0  0.116982  0  0.941607  0  0  0.130473  0  0.99271  0  0  0.133949  0  0.992685  0  0  0.107733  0.127996  0  0.992972  0
H  H10  1  0.47681456  0.27456359  0.80456503  1  0  0.117076  0  0.94148  0  0  0.130507  0  0.992655  0  0  0.133984  0  0.99263  0  0  0.10774  0.128033  0  0.992915  0
H  H11  1  0.52318807  0.72543747  0.30456522  1  0  0.117073  0  0.941488  0  0  0.130519  0  0.992647  0  0  0.133996  0  0.99262  0  0  0.107742  0.128045  0  0.992908  0
H  H12  1  0.99633240  0.50634223  0.14484143  1  0  0.114783  0  0.951957  0  0  0.123573  0  1.014098  0  0  0.127001  0  1.010327  0  0  0.108583  0.121037  0  1.016815  0
H  H13  1  0.00367416  0.49365856  0.64484134  1  0  0.114771  0  0.951946  0  0  0.123575  0  1.014071  0  0  0.127002  0  1.010299  0  0  0.108584  0.121038  0  1.016791  0
H  H14  1  0.99366974  0.49631442  0.39483422  1  0  0.114719  0  0.951974  0  0  0.123538  0  1.014082  0  0  0.126965  0  1.010309  0  0  0.108542  0.121001  0  1.016803  0
H  H15  1  0.00633662  0.50368427  0.89483458  1  0  0.114702  0  0.952014  0  0  0.123516  0  1.01413  0  0  0.126944  0  1.010356  0  0  0.108545  0.120978  0  1.016851  0
H  H16  1  0.50368430  0.00633453  0.10516518  1  0  0.114705  0  0.952014  0  0  0.123515  0  1.014129  0  0  0.126942  0  1.010356  0  0  0.108542  0.120977  0  1.01685  0
H  H17  1  0.49631217  0.99366872  0.60516605  1  0  0.114699  0  0.951945  0  0  0.123498  0  1.01408  0  0  0.126925  0  1.010308  0  0  0.108535  0.120961  0  1.016798  0
H  H18  1  0.50633882  0.99632517  0.85515884  1  0  0.114757  0  0.951949  0  0  0.123563  0  1.014072  0  0  0.126991  0  1.0103  0  0  0.108581  0.121025  0  1.016792  0
H  H19  1  0.49365619  0.00367598  0.35515797  1  0  0.114769  0  0.95194  0  0  0.123573  0  1.014068  0  0  0.127002  0  1.010296  0  0  0.108584  0.121036  0  1.016789  0
H  H20  1  0.26243662  0.64492864  0.98427227  1  0  0.087716  0  0.934311  0  0  0.094922  0  1.000435  0  0  0.098647  0  0.995822  0  0  0.118211  0.092171  0  1.003714  0
H  H21  1  0.73756461  0.35507526  0.48427235  1  0  0.087703  0  0.93435  0  0  0.094911  0  1.000469  0  0  0.098635  0  0.995856  0  0  0.11819  0.09216  0  1.003748  0
H  H22  1  0.85508046  0.76243701  0.23427022  1  0  0.087677  0  0.934385  0  0  0.09493  0  1.000464  0  0  0.098651  0  0.995859  0  0  0.118224  0.09218  0  1.003742  0
H  H23  1  0.14491718  0.23756267  0.73426962  1  0  0.087685  0  0.934374  0  0  0.094935  0  1.000461  0  0  0.098658  0  0.99585  0  0  0.118233  0.092185  0  1.003737  0
H  H24  1  0.23756300  0.14491655  0.26573058  1  0  0.087659  0  0.934378  0  0  0.094914  0  1.00046  0  0  0.098633  0  0.995861  0  0  0.118219  0.092165  0  1.003736  0
H  H25  1  0.76243714  0.85508572  0.76573050  1  0  0.08769  0  0.934392  0  0  0.094889  0  1.000531  0  0  0.098611  0  0.995922  0  0  0.118211  0.09214  0  1.003808  0
H  H26  1  0.64492851  0.26243597  0.01572707  1  0  0.087733  0  0.934336  0  0  0.094937  0  1.000462  0  0  0.098664  0  0.995842  0  0  0.1182  0.092186  0  1.00374  0
H  H27  1  0.35507182  0.73756080  0.51572700  1  0  0.087663  0  0.934362  0  0  0.094856  0  1.000498  0  0  0.09858  0  0.995886  0  0  0.11818  0.092106  0  1.003775  0
H  H28  1  0.67989425  0.53855345  0.11645288  1  0  0.348551  0  0.923436  0  0  0.329316  0  0.987622  0  0  0.337821  0  0.979988  0  0  0.303708  0.323296  0  0.992997  0
H  H29  1  0.32010600  0.46144729  0.61645231  1  0  0.348521  0  0.923459  0  0  0.329281  0  0.987652  0  0  0.337786  0  0.980018  0  0  0.30369  0.323262  0  0.993028  0
H  H30  1  0.96145901  0.17987868  0.36645187  1  0  0.348429  0  0.923426  0  0  0.32918  0  0.987641  0  0  0.337684  0  0.980012  0  0  0.303613  0.323159  0  0.993015  0
H  H31  1  0.03853473  0.82012122  0.86645229  1  0  0.348438  0  0.923421  0  0  0.32919  0  0.987633  0  0  0.337695  0  0.980002  0  0  0.303658  0.32317  0  0.993007  0
H  H32  1  0.82011974  0.03853648  0.13354838  1  0  0.348431  0  0.923421  0  0  0.329182  0  0.987637  0  0  0.337686  0  0.980009  0  0  0.303639  0.323161  0  0.993012  0
H  H33  1  0.17987797  0.96146050  0.63354793  1  0  0.348417  0  0.923387  0  0  0.329168  0  0.987607  0  0  0.337673  0  0.979978  0  0  0.303607  0.323148  0  0.992982  0
H  H34  1  0.53855509  0.67989437  0.88354737  1  0  0.348556  0  0.923387  0  0  0.329322  0  0.987571  0  0  0.337827  0  0.979937  0  0  0.30369  0.323303  0  0.992947  0
H  H35  1  0.46144875  0.32010684  0.38354657  1  0  0.348428  0  0.923488  0  0  0.329191  0  0.987681  0  0  0.337696  0  0.98005  0  0  0.303658  0.32317  0  0.993053  0
H  H36  1  0.59016455  0.48663010  0.18425513  1  0  0.343314  0  0.890045  0  0  0.327993  0  0.948511  0  0  0.335048  0  0.943017  0  0  0.308851  0.323045  0  0.952343  0
H  H37  1  0.40983818  0.51336949  0.68425500  1  0  0.343334  0  0.890035  0  0  0.328012  0  0.948501  0  0  0.335068  0  0.943008  0  0  0.308879  0.323064  0  0.952335  0
H  H38  1  0.01338209  0.09014133  0.43425504  1  0  0.34341  0  0.889903  0  0  0.32807  0  0.948399  0  0  0.335125  0  0.942905  0  0  0.30895  0.323116  0  0.952231  0
H  H39  1  0.98661539  0.90985743  0.93425540  1  0  0.34334  0  0.889961  0  0  0.327987  0  0.948472  0  0  0.335046  0  0.942984  0  0  0.308894  0.323031  0  0.952303  0
H  H40  1  0.90985837  0.98661789  0.06574534  1  0  0.343427  0  0.889864  0  0  0.328089  0  0.948355  0  0  0.335144  0  0.942861  0  0  0.30896  0.323136  0  0.952185  0
H  H41  1  0.09014066  0.01338149  0.56574514  1  0  0.34341  0  0.889902  0  0  0.328065  0  0.948407  0  0  0.33512  0  0.942913  0  0  0.308949  0.323109  0  0.95224  0
H  H42  1  0.48663048  0.59016202  0.81574467  1  0  0.343326  0  0.890034  0  0  0.328006  0  0.9485  0  0  0.335061  0  0.943006  0  0  0.308861  0.323057  0  0.952333  0
H  H43  1  0.51337215  0.40983780  0.31574389  1  0  0.343355  0  0.890095  0  0  0.328026  0  0.948565  0  0  0.335082  0  0.943071  0  0  0.308886  0.323076  0  0.952401  0
C  C44  1  0.41957922  0.54058684  0.11628859  1  0  0.505747  0  3.822522  0  0  0.476767  0  4.079528  0  0  0.499009  0  4.093073  0  0  0.237137  0.462061  0  4.069791  0
C  C45  1  0.58042229  0.45941516  0.61628754  1  0  0.505779  0  3.822497  0  0  0.476803  0  4.079495  0  0  0.499043  0  4.093043  0  0  0.237173  0.462101  0  4.069757  0
C  C46  1  0.95942936  0.91956124  0.36628675  1  0  0.505773  0  3.822718  0  0  0.476817  0  4.079643  0  0  0.499055  0  4.093199  0  0  0.237251  0.462116  0  4.069904  0
C  C47  1  0.04056690  0.08043740  0.86628701  1  0  0.505758  0  3.822647  0  0  0.476819  0  4.079567  0  0  0.499056  0  4.093126  0  0  0.237241  0.462115  0  4.069826  0
C  C48  1  0.08043780  0.04056739  0.13371362  1  0  0.505768  0  3.822658  0  0  0.476827  0  4.079578  0  0  0.499063  0  4.093137  0  0  0.237241  0.462124  0  4.069836  0
C  C49  1  0.91956117  0.95943338  0.63371399  1  0  0.50572  0  3.822731  0  0  0.476775  0  4.079646  0  0  0.499011  0  4.093206  0  0  0.237233  0.462072  0  4.069905  0
C  C50  1  0.54058595  0.41957659  0.88371165  1  0  0.505741  0  3.82246  0  0  0.476777  0  4.079448  0  0  0.499017  0  4.092994  0  0  0.237169  0.462072  0  4.069711  0
C  C51  1  0.45941537  0.58042461  0.38371136  1  0  0.505782  0  3.822438  0  0  0.476791  0  4.079461  0  0  0.499031  0  4.093007  0  0  0.237147  0.462084  0  4.069725  0
C  C52  1  0.26705035  0.51306838  0.14857276  1  0  -0.243984  0  3.70815  0  0  -0.256374  0  3.959762  0  0  -0.270654  0  3.980904  0  0  -0.100569  -0.24732  0  3.945642  0
C  C53  1  0.73295241  0.48693241  0.64857171  1  0  -0.243955  0  3.708149  0  0  -0.25634  0  3.959737  0  0  -0.270622  0  3.980885  0  0  -0.100555  -0.247284  0  3.945608  0
C  C54  1  0.98694739  0.76703086  0.39857001  1  0  -0.243816  0  3.708183  0  0  -0.256251  0  3.959739  0  0  -0.270533  0  3.980888  0  0  -0.10058  -0.247198  0  3.945619  0
C  C55  1  0.01305518  0.23296910  0.89857075  1  0  -0.243961  0  3.708307  0  0  -0.25639  0  3.959883  0  0  -0.270672  0  3.98103  0  0  -0.100599  -0.247338  0  3.945757  0
C  C56  1  0.23296809  0.01305309  0.10142944  1  0  -0.243941  0  3.708303  0  0  -0.2564  0  3.95987  0  0  -0.270682  0  3.981019  0  0  -0.100593  -0.247341  0  3.945747  0
C  C57  1  0.76702964  0.98694636  0.60143117  1  0  -0.243888  0  3.70824  0  0  -0.256319  0  3.959785  0  0  -0.2706  0  3.980933  0  0  -0.10059  -0.24727  0  3.945659  0
C  C58  1  0.51306497  0.26704630  0.85142791  1  0  -0.243957  0  3.708123  0  0  -0.256345  0  3.959707  0  0  -0.270628  0  3.980856  0  0  -0.100545  -0.247292  0  3.945581  0
C  C59  1  0.48693258  0.73295611  0.35142676  1  0  -0.243964  0  3.708234  0  0  -0.25637  0  3.959845  0  0  -0.270649  0  3.980988  0  0  -0.100555  -0.247318  0  3.945719  0
C  C60  1  0.11335768  0.53032312  0.12042531  1  0  0.020135  0  3.711671  0  0  -0.010636  0  3.964558  0  0  -6.7e-05  0  3.979351  0  0  -0.066208  -0.017126  0  3.954293  0
C  C61  1  0.88664637  0.46967637  0.62042424  1  0  0.020083  0  3.711797  0  0  -0.010686  0  3.964676  0  0  -0.00012  0  3.979476  0  0  -0.066246  -0.017173  0  3.954402  0
C  C62  1  0.96969097  0.61334698  0.37041896  1  0  0.020178  0  3.711661  0  0  -0.010592  0  3.964589  0  0  -2.1e-05  0  3.97938  0  0  -0.066148  -0.017079  0  3.954317  0
C  C63  1  0.03031036  0.38665041  0.87041929  1  0  0.020184  0  3.711763  0  0  -0.010594  0  3.964664  0  0  -2.2e-05  0  3.979453  0  0  -0.066206  -0.017083  0  3.954397  0
C  C64  1  0.38664928  0.03030830  0.12958047  1  0  0.020186  0  3.711721  0  0  -0.010558  0  3.964629  0  0  1.3e-05  0  3.979421  0  0  -0.066195  -0.017044  0  3.954355  0
C  C65  1  0.61334716  0.96969499  0.62958176  1  0  0.020223  0  3.711592  0  0  -0.010527  0  3.96453  0  0  4.4e-05  0  3.979323  0  0  -0.066151  -0.017018  0  3.954267  0
C  C66  1  0.53032223  0.11335352  0.87957535  1  0  0.020128  0  3.711667  0  0  -0.010627  0  3.964546  0  0  -5.9e-05  0  3.979342  0  0  -0.06621  -0.01711  0  3.954272  0
C  C67  1  0.46967276  0.88664514  0.37957468  1  0  0.020056  0  3.711798  0  0  -0.010714  0  3.964688  0  0  -0.000146  0  3.979484  0  0  -0.066233  -0.0172  0  3.954416  0
C  C68  1  0.10824868  0.58074658  0.05988474  1  0  -0.170511  0  3.820174  0  0  -0.151799  0  4.070725  0  0  -0.169034  0  4.095724  0  0  -0.042883  -0.140837  0  4.053936  0
C  C69  1  0.89175288  0.41925659  0.55988455  1  0  -0.170488  0  3.820088  0  0  -0.151802  0  4.070679  0  0  -0.169037  0  4.09568  0  0  -0.042911  -0.140843  0  4.053888  0
C  C70  1  0.91927134  0.60823944  0.30987973  1  0  -0.170673  0  3.820219  0  0  -0.152064  0  4.070928  0  0  -0.169303  0  4.095929  0  0  -0.043015  -0.1411  0  4.05414  0
C  C71  1  0.08073256  0.39175910  0.80988005  1  0  -0.170713  0  3.820196  0  0  -0.152035  0  4.070835  0  0  -0.169275  0  4.095836  0  0  -0.043031  -0.141072  0  4.054048  0
C  C72  1  0.39175800  0.08072931  0.19012015  1  0  -0.170572  0  3.820217  0  0  -0.15197  0  4.070913  0  0  -0.16921  0  4.095917  0  0  -0.042963  -0.141009  0  4.054124  0
C  C73  1  0.60823967  0.91927409  0.69012099  1  0  -0.170713  0  3.820209  0  0  -0.152118  0  4.070923  0  0  -0.169358  0  4.095925  0  0  -0.043042  -0.141155  0  4.054136  0
C  C74  1  0.58074441  0.10824834  0.94011548  1  0  -0.170382  0  3.820113  0  0  -0.151732  0  4.070734  0  0  -0.168967  0  4.095737  0  0  -0.042886  -0.140771  0  4.053945  0
C  C75  1  0.41925432  0.89175169  0.44011481  1  0  -0.170426  0  3.820147  0  0  -0.151747  0  4.070733  0  0  -0.168983  0  4.095735  0  0  -0.042897  -0.140787  0  4.053943  0
C  C76  1  0.26146313  0.60629940  0.03106933  1  0  0.139217  0  3.737909  0  0  0.095662  0  3.992174  0  0  0.10857  0  4.00832  0  0  0.04763  0.087549  0  3.980918  0
C  C77  1  0.73853719  0.39370498  0.53106870  1  0  0.139124  0  3.737805  0  0  0.09558  0  3.992077  0  0  0.108484  0  4.008226  0  0  0.047619  0.087468  0  3.980821  0
C  C78  1  0.89371262  0.76145665  0.28106612  1  0  0.139045  0  3.738014  0  0  0.095474  0  3.9923  0  0  0.10838  0  4.008454  0  0  0.047524  0.08736  0  3.981051  0
C  C79  1  0.10628751  0.23854311  0.78106641  1  0  0.139066  0  3.737983  0  0  0.095483  0  3.992264  0  0  0.108388  0  4.008418  0  0  0.047555  0.087368  0  3.981013  0
C  C80  1  0.23854341  0.10628555  0.21893423  1  0  0.139078  0  3.738002  0  0  0.095504  0  3.99229  0  0  0.108409  0  4.008446  0  0  0.047573  0.08739  0  3.98104  0
C  C81  1  0.76145676  0.89371536  0.71893505  1  0  0.139063  0  3.738013  0  0  0.095546  0  3.992288  0  0  0.108451  0  4.008442  0  0  0.047578  0.087432  0  3.981038  0
C  C82  1  0.60629597  0.26146420  0.96893090  1  0  0.139051  0  3.737954  0  0  0.095518  0  3.992236  0  0  0.108423  0  4.008385  0  0  0.047612  0.087405  0  3.980981  0
C  C83  1  0.39370275  0.73853715  0.46893020  1  0  0.139235  0  3.737915  0  0  0.095706  0  3.992175  0  0  0.108611  0  4.008323  0  0  0.047673  0.087592  0  3.980921  0
C  C84  1  0.94934035  0.60766612  0.02624857  1  0  0.645237  0  3.947128  0  0  0.594925  0  4.23971  0  0  0.629871  0  4.233204  0  0  0.199236  0.571247  0  4.243475  0
C  C85  1  0.05065871  0.39233320  0.52624622  1  0  0.645264  0  3.947073  0  0  0.594943  0  4.239677  0  0  0.629889  0  4.23317  0  0  0.199253  0.571267  0  4.243442  0
C  C86  1  0.89234614  0.44933286  0.27624402  1  0  0.64547  0  3.946692  0  0  0.595147  0  4.239289  0  0  0.630096  0  4.232776  0  0  0.199309  0.571469  0  4.243059  0
C  C87  1  0.10765652  0.55066689  0.77624438  1  0  0.645527  0  3.946648  0  0  0.595183  0  4.239245  0  0  0.630131  0  4.232733  0  0  0.199347  0.571505  0  4.243017  0
C  C88  1  0.55066568  0.10765331  0.22375494  1  0  0.645318  0  3.946801  0  0  0.595001  0  4.239407  0  0  0.629949  0  4.232897  0  0  0.199233  0.571325  0  4.243174  0
C  C89  1  0.44933323  0.89234508  0.72375713  1  0  0.645495  0  3.946627  0  0  0.595173  0  4.239223  0  0  0.630121  0  4.232712  0  0  0.199322  0.571496  0  4.242995  0
C  C90  1  0.60766648  0.94934072  0.97375348  1  0  0.645245  0  3.947024  0  0  0.594931  0  4.239636  0  0  0.629876  0  4.233132  0  0  0.19925  0.571255  0  4.243402  0
C  C91  1  0.39233223  0.05065810  0.47375264  1  0  0.645192  0  3.947189  0  0  0.594862  0  4.239809  0  0  0.629809  0  4.233304  0  0  0.199204  0.571186  0  4.243572  0
N  N92  1  0.41307507  0.58539167  0.05726340  1  0  -0.45763  0  3.224463  0  0  -0.371838  0  3.501879  0  0  -0.397629  0  3.513139  0  0  -0.346915  -0.35456  0  3.493824  0
N  N93  1  0.58692269  0.41461402  0.55726324  1  0  -0.457617  0  3.224399  0  0  -0.371854  0  3.501857  0  0  -0.397625  0  3.51308  0  0  -0.34692  -0.354579  0  3.493803  0
N  N94  1  0.91462457  0.91306611  0.30726290  1  0  -0.45744  0  3.224461  0  0  -0.371672  0  3.501902  0  0  -0.397442  0  3.513127  0  0  -0.346873  -0.354386  0  3.493819  0
N  N95  1  0.08537680  0.08693369  0.80726271  1  0  -0.45739  0  3.224368  0  0  -0.371651  0  3.501834  0  0  -0.397415  0  3.513048  0  0  -0.346863  -0.354369  0  3.493762  0
N  N96  1  0.08693412  0.08537355  0.19273792  1  0  -0.457392  0  3.224369  0  0  -0.37163  0  3.501823  0  0  -0.397395  0  3.513038  0  0  -0.346874  -0.354344  0  3.493739  0
N  N97  1  0.91306608  0.91462605  0.69273828  1  0  -0.457376  0  3.22437  0  0  -0.371616  0  3.501808  0  0  -0.397381  0  3.513025  0  0  -0.346877  -0.354331  0  3.493725  0
N  N98  1  0.58538698  0.41307626  0.94273639  1  0  -0.45753  0  3.224442  0  0  -0.371762  0  3.501874  0  0  -0.397534  0  3.513103  0  0  -0.346904  -0.354481  0  3.493814  0
N  N99  1  0.41461049  0.58692631  0.44273566  1  0  -0.457591  0  3.224458  0  0  -0.371811  0  3.501887  0  0  -0.397588  0  3.513123  0  0  -0.346888  -0.35453  0  3.49383  0
N  N100  1  0.57224986  0.52405309  0.14141734  1  0  -0.660658  0  3.11147  0  0  -0.624591  0  3.33785  0  0  -0.646496  0  3.334458  0  0  -0.568954  -0.609289  0  3.339696  0
N  N101  1  0.42775290  0.47594769  0.64141676  1  0  -0.660646  0  3.111471  0  0  -0.624579  0  3.337851  0  0  -0.646485  0  3.334461  0  0  -0.568969  -0.609277  0  3.339697  0
N  N102  1  0.97596249  0.07223163  0.39141676  1  0  -0.660663  0  3.1115  0  0  -0.624588  0  3.337861  0  0  -0.646494  0  3.33448  0  0  -0.568994  -0.609275  0  3.339698  0
N  N103  1  0.02403250  0.92776706  0.89141631  1  0  -0.660608  0  3.111481  0  0  -0.62451  0  3.337818  0  0  -0.646424  0  3.334443  0  0  -0.568997  -0.6092  0  3.339655  0
N  N104  1  0.92776674  0.02403548  0.10858347  1  0  -0.660699  0  3.111395  0  0  -0.624628  0  3.337751  0  0  -0.646534  0  3.334373  0  0  -0.56905  -0.609318  0  3.339589  0
N  N105  1  0.07222973  0.97596271  0.60858348  1  0  -0.660604  0  3.111434  0  0  -0.62453  0  3.337787  0  0  -0.646436  0  3.334409  0  0  -0.568958  -0.609218  0  3.339623  0
N  N106  1  0.52405346  0.57224861  0.85858290  1  0  -0.660687  0  3.111358  0  0  -0.624628  0  3.337739  0  0  -0.646534  0  3.334348  0  0  -0.568955  -0.609325  0  3.339586  0
N  N107  1  0.47594913  0.42775508  0.35858213  1  0  -0.66064  0  3.111459  0  0  -0.624561  0  3.337844  0  0  -0.646467  0  3.334457  0  0  -0.568984  -0.609255  0  3.339685  0
O  O108  1  0.81053810  0.55483341  0.05152557  1  0  -0.659127  0  2.089583  0  0  -0.576731  0  2.350209  0  0  -0.606083  0  2.334784  0  0  -0.330166  -0.556247  0  2.360067  0
O  O109  1  0.18946347  0.44516848  0.55152366  1  0  -0.659144  0  2.089446  0  0  -0.576719  0  2.350053  0  0  -0.606071  0  2.334627  0  0  -0.330142  -0.556236  0  2.359912  0
O  O110  1  0.94518337  0.31052644  0.30152100  1  0  -0.659189  0  2.089379  0  0  -0.576707  0  2.349961  0  0  -0.606059  0  2.334532  0  0  -0.330131  -0.556223  0  2.359822  0
O  O111  1  0.05482054  0.68947336  0.80152140  1  0  -0.659198  0  2.089373  0  0  -0.576736  0  2.349986  0  0  -0.606088  0  2.334556  0  0  -0.330147  -0.556251  0  2.359847  0
O  O112  1  0.68947201  0.05481853  0.19847749  1  0  -0.659167  0  2.089379  0  0  -0.5767  0  2.349967  0  0  -0.606052  0  2.33454  0  0  -0.330119  -0.556216  0  2.359826  0
O  O113  1  0.31052691  0.94517982  0.69847925  1  0  -0.659198  0  2.08935  0  0  -0.576714  0  2.349931  0  0  -0.606066  0  2.334503  0  0  -0.330135  -0.556231  0  2.359792  0
O  O114  1  0.55483254  0.81053582  0.94847648  1  0  -0.659115  0  2.089451  0  0  -0.576694  0  2.350066  0  0  -0.606045  0  2.334639  0  0  -0.330148  -0.556209  0  2.359923  0
O  O115  1  0.44516999  0.18946170  0.44847610  1  0  -0.659097  0  2.089487  0  0  -0.576656  0  2.350077  0  0  -0.606008  0  2.334653  0  0  -0.330131  -0.556171  0  2.359933  0
O  O116  1  0.95002536  0.67679940  0.97578719  1  0  -0.62825  0  1.946271  0  0  -0.581563  0  2.177583  0  0  -0.604436  0  2.166804  0  0  -0.32101  -0.565758  0  2.184602  0
O  O117  1  0.04997462  0.32319943  0.47578688  1  0  -0.628199  0  1.946423  0  0  -0.581509  0  2.177719  0  0  -0.60438  0  2.166939  0  0  -0.320974  -0.565708  0  2.184738  0
O  O118  1  0.82320869  0.45002237  0.22578380  1  0  -0.628219  0  1.946253  0  0  -0.581511  0  2.177517  0  0  -0.604385  0  2.166739  0  0  -0.320943  -0.565713  0  2.18454  0
O  O119  1  0.17679021  0.54997603  0.72578371  1  0  -0.628249  0  1.946278  0  0  -0.581538  0  2.177554  0  0  -0.604412  0  2.166776  0  0  -0.320965  -0.565737  0  2.184576  0
O  O120  1  0.54997611  0.17678835  0.27421606  1  0  -0.62819  0  1.946305  0  0  -0.581478  0  2.177567  0  0  -0.604352  0  2.166789  0  0  -0.320931  -0.565678  0  2.184588  0
O  O121  1  0.45002403  0.82320887  0.77421690  1  0  -0.628246  0  1.946201  0  0  -0.581554  0  2.177506  0  0  -0.604427  0  2.166727  0  0  -0.320975  -0.565754  0  2.184529  0
O  O122  1  0.67679925  0.95002655  0.02421353  1  0  -0.628293  0  1.94633  0  0  -0.581593  0  2.177623  0  0  -0.604463  0  2.166841  0  0  -0.321029  -0.565792  0  2.184643  0
O  O123  1  0.32320108  0.04997150  0.52421332  1  0  -0.628211  0  1.946403  0  0  -0.581506  0  2.177692  0  0  -0.604377  0  2.166913  0  0  -0.320974  -0.565704  0  2.18471  0
