# generated using pymatgen
data_Zn2H10C12S2N2O7
_symmetry_space_group_name_H-M   'P 1'
_cell_length_a   7.96905145
_cell_length_b   9.35096689
_cell_length_c   10.19641844
_cell_angle_alpha   81.60055268
_cell_angle_beta   80.86462428
_cell_angle_gamma   76.20231861
_symmetry_Int_Tables_number   1
_chemical_formula_structural   Zn2H10C12S2N2O7
_chemical_formula_sum   'Zn4 H20 C24 S4 N4 O14'
_cell_volume   723.88096391
_cell_formula_units_Z   2
loop_
 _symmetry_equiv_pos_site_id
 _symmetry_equiv_pos_as_xyz
  1  'x, y, z'
loop_
 _atom_site_type_symbol
 _atom_site_label
 _atom_site_symmetry_multiplicity
 _atom_site_fract_x
 _atom_site_fract_y
 _atom_site_fract_z
 _atom_site_occupancy
 _atom_site_hle17_bader_spin_density
 _atom_site_hle17_ddec_charge
 _atom_site_hle17_ddec_spin_density
 _atom_site_hle17_ddec_sum_bond_order
 _atom_site_hle17_magmom
 _atom_site_hse06_10hf_bader_spin_density
 _atom_site_hse06_10hf_ddec_charge
 _atom_site_hse06_10hf_ddec_spin_density
 _atom_site_hse06_10hf_ddec_sum_bond_order
 _atom_site_hse06_10hf_magmom
 _atom_site_hse06_bader_spin_density
 _atom_site_hse06_ddec_charge
 _atom_site_hse06_ddec_spin_density
 _atom_site_hse06_ddec_sum_bond_order
 _atom_site_hse06_magmom
 _atom_site_pbe_bader_spin_density
 _atom_site_pbe_cm5_charge
 _atom_site_pbe_ddec_charge
 _atom_site_pbe_ddec_spin_density
 _atom_site_pbe_ddec_sum_bond_order
 _atom_site_pbe_magmom
Zn  Zn0  1  0.73884658  0.50384916  0.44186901  1  0  1.179408  0  1.733208  0  0  1.008797  0  2.207207  0  0  1.05655  0  2.141989  0  0  0.674074  0.974766  0  2.252082  0
Zn  Zn1  1  0.26115509  0.49615142  0.55813009  1  0  1.179434  0  1.733166  0  0  1.008842  0  2.207174  0  0  1.056594  0  2.141951  0  0  0.674088  0.974806  0  2.252043  0
Zn  Zn2  1  0.82527488  0.17729617  0.66500987  1  0  1.086772  0  1.74999  0  0  0.90057  0  2.204519  0  0  0.947403  0  2.148608  0  0  0.686412  0.867226  0  2.243699  0
Zn  Zn3  1  0.17472455  0.82270330  0.33498967  1  0  1.086716  0  1.750038  0  0  0.900539  0  2.204555  0  0  0.947371  0  2.14865  0  0  0.686405  0.867197  0  2.243747  0
H  H4  1  0.08493365  0.85903251  0.67264279  1  0  0.083341  0  0.966175  0  0  0.090347  0  1.031644  0  0  0.092802  0  1.028957  0  0  0.117748  0.088273  0  1.033982  0
H  H5  1  0.91506675  0.14096807  0.32735745  1  0  0.083336  0  0.966177  0  0  0.090342  0  1.031653  0  0  0.092798  0  1.028965  0  0  0.117743  0.088268  0  1.033991  0
H  H6  1  0.15727127  0.64757605  0.84420050  1  0  0.116807  0  0.959521  0  0  0.126737  0  1.01806  0  0  0.130037  0  1.016986  0  0  0.107422  0.124565  0  1.018627  0
H  H7  1  0.84272590  0.35242230  0.15579948  1  0  0.116844  0  0.959483  0  0  0.126776  0  1.018016  0  0  0.130077  0  1.016942  0  0  0.107429  0.124604  0  1.018585  0
H  H8  1  0.99300784  0.65830657  0.07871931  1  0  0.095841  0  0.983517  0  0  0.102076  0  1.055767  0  0  0.105187  0  1.052918  0  0  0.101858  0.100083  0  1.057182  0
H  H9  1  0.00699607  0.34169513  0.92127935  1  0  0.095859  0  0.983593  0  0  0.10209  0  1.05583  0  0  0.105205  0  1.052978  0  0  0.101875  0.1001  0  1.057249  0
H  H10  1  0.76085749  0.80111960  0.23708553  1  0  0.122654  0  0.961596  0  0  0.129557  0  1.025735  0  0  0.132755  0  1.023994  0  0  0.105983  0.127083  0  1.027465  0
H  H11  1  0.23914038  0.19888099  0.76291797  1  0  0.122691  0  0.961596  0  0  0.129607  0  1.025709  0  0  0.132797  0  1.023992  0  0  0.105994  0.127132  0  1.027437  0
H  H12  1  0.52633180  0.02358125  0.27525245  1  0  0.105561  0  0.952764  0  0  0.109608  0  1.025636  0  0  0.112558  0  1.024594  0  0  0.102941  0.107358  0  1.026375  0
H  H13  1  0.47366860  0.97641933  0.72474681  1  0  0.105545  0  0.952766  0  0  0.109583  0  1.02566  0  0  0.112534  0  1.024614  0  0  0.102932  0.107332  0  1.026397  0
H  H14  1  0.35827917  0.27345748  0.18587635  1  0  0.107945  0  0.977024  0  0  0.113108  0  1.047514  0  0  0.116215  0  1.045298  0  0  0.103794  0.110845  0  1.049338  0
H  H15  1  0.64172319  0.72654533  0.81412431  1  0  0.107957  0  0.97698  0  0  0.113093  0  1.047495  0  0  0.116203  0  1.045286  0  0  0.103797  0.110829  0  1.049318  0
H  H16  1  0.31171601  0.46973972  0.99131309  1  0  0.096137  0  0.964826  0  0  0.104069  0  1.029857  0  0  0.106314  0  1.030685  0  0  0.102841  0.102288  0  1.030823  0
H  H17  1  0.68828497  0.53025864  0.00868543  1  0  0.096138  0  0.964788  0  0  0.104055  0  1.029859  0  0  0.106299  0  1.030691  0  0  0.102827  0.102277  0  1.030823  0
H  H18  1  0.50591231  0.43596564  0.77370897  1  0  0.091017  0  0.952127  0  0  0.095602  0  1.022095  0  0  0.098277  0  1.01908  0  0  0.115092  0.093753  0  1.023703  0
H  H19  1  0.49408671  0.56403050  0.22629010  1  0  0.091025  0  0.952109  0  0  0.095597  0  1.022108  0  0  0.098275  0  1.019085  0  0  0.115082  0.093749  0  1.023717  0
H  H20  1  0.16031905  0.04625378  0.53448747  1  0  0.429385  0  0.865659  0  0  0.398305  0  0.9294  0  0  0.408448  0  0.914584  0  0  0.291691  0.391154  0  0.939812  0
H  H21  1  0.83968291  0.95374569  0.46551076  1  0  0.429402  0  0.865611  0  0  0.398321  0  0.929362  0  0  0.408463  0  0.914546  0  0  0.291697  0.391169  0  0.939774  0
H  H22  1  0.10762659  0.22152769  0.49370327  1  0  0.44141  0  0.856488  0  0  0.409625  0  0.921487  0  0  0.419996  0  0.906411  0  0  0.292162  0.402153  0  0.932401  0
H  H23  1  0.89237380  0.77847288  0.50629502  1  0  0.441419  0  0.856472  0  0  0.409637  0  0.921464  0  0  0.420008  0  0.906388  0  0  0.292175  0.402165  0  0.932378  0
C  C24  1  0.01701757  0.86317091  0.77382233  1  0  0.177937  0  3.652945  0  0  0.144125  0  3.905345  0  0  0.153852  0  3.921102  0  0  0.063264  0.137533  0  3.895269  0
C  C25  1  0.98298342  0.13682746  0.22617814  1  0  0.177991  0  3.652913  0  0  0.144165  0  3.905326  0  0  0.153891  0  3.921083  0  0  0.063289  0.137572  0  3.895252  0
C  C26  1  0.05723737  0.74322559  0.87255738  1  0  -0.112185  0  3.705801  0  0  -0.128176  0  3.962383  0  0  -0.135151  0  3.982549  0  0  -0.08344  -0.123891  0  3.948748  0
C  C27  1  0.94276430  0.25677499  0.12744172  1  0  -0.112249  0  3.705798  0  0  -0.128243  0  3.962386  0  0  -0.135218  0  3.982552  0  0  -0.083464  -0.123959  0  3.948757  0
C  C28  1  0.96777580  0.74977284  0.99983043  1  0  -0.04411  0  3.674321  0  0  -0.067913  0  3.922091  0  0  -0.065459  0  3.93989  0  0  -0.064921  -0.069373  0  3.909655  0
C  C29  1  0.03222275  0.25022996  0.00016974  1  0  -0.044111  0  3.67445  0  0  -0.067923  0  3.922198  0  0  -0.065475  0  3.939995  0  0  -0.064906  -0.06939  0  3.909768  0
C  C30  1  0.83759819  0.87704677  0.02894048  1  0  0.024729  0  3.788332  0  0  0.041905  0  4.016194  0  0  0.039114  0  4.040958  0  0  -0.00173  0.044693  0  4.000331  0
C  C31  1  0.16240348  0.12295383  0.97106156  1  0  0.024711  0  3.788164  0  0  0.041937  0  4.015936  0  0  0.039148  0  4.040699  0  0  -0.001754  0.044725  0  4.000076  0
C  C32  1  0.80677616  0.99286028  0.92351048  1  0  0.124585  0  3.775623  0  0  0.118372  0  4.009341  0  0  0.122493  0  4.03186  0  0  0.112621  0.114446  0  3.994902  0
C  C33  1  0.19322395  0.00714142  0.07648964  1  0  0.124553  0  3.775652  0  0  0.118316  0  4.009331  0  0  0.122437  0  4.03185  0  0  0.112602  0.114386  0  3.9949  0
C  C34  1  0.67406824  0.12380223  0.94661861  1  0  0.12176  0  3.793967  0  0  0.11499  0  4.028966  0  0  0.118886  0  4.052077  0  0  0.113104  0.114086  0  4.012403  0
C  C35  1  0.32593060  0.87619947  0.05338266  1  0  0.121799  0  3.793856  0  0  0.115078  0  4.028749  0  0  0.118976  0  4.05186  0  0  0.113153  0.114175  0  4.012188  0
C  C36  1  0.73509953  0.89111878  0.15708646  1  0  -0.081362  0  3.688522  0  0  -0.103063  0  3.940149  0  0  -0.10592  0  3.96281  0  0  -0.08248  -0.10252  0  3.926534  0
C  C37  1  0.26490186  0.10888294  0.84291644  1  0  -0.081408  0  3.688422  0  0  -0.103126  0  3.940024  0  0  -0.105986  0  3.962677  0  0  -0.082492  -0.102581  0  3.926407  0
C  C38  1  0.60633223  0.01441343  0.17826405  1  0  -0.091632  0  3.707102  0  0  -0.116474  0  3.966108  0  0  -0.120269  0  3.989008  0  0  -0.08407  -0.113145  0  3.9508  0
C  C39  1  0.39366817  0.98558715  0.82173521  1  0  -0.091602  0  3.707021  0  0  -0.116467  0  3.966017  0  0  -0.120257  0  3.98891  0  0  -0.084058  -0.113138  0  3.950708  0
C  C40  1  0.57270483  0.13372856  0.07392789  1  0  0.027025  0  3.791732  0  0  0.045604  0  4.019267  0  0  0.0432  0  4.043759  0  0  -0.002058  0.046951  0  4.003571  0
C  C41  1  0.42729616  0.86626981  0.92607357  1  0  0.026949  0  3.791632  0  0  0.04555  0  4.019079  0  0  0.043145  0  4.043571  0  0  -0.0021  0.046898  0  4.003382  0
C  C42  1  0.43992066  0.26231152  0.08959251  1  0  -0.040707  0  3.664052  0  0  -0.065842  0  3.908862  0  0  -0.063233  0  3.926895  0  0  -0.063767  -0.069132  0  3.900645  0
C  C43  1  0.56007876  0.73768795  0.91040702  1  0  -0.040673  0  3.663998  0  0  -0.065779  0  3.908781  0  0  -0.063176  0  3.926804  0  0  -0.063757  -0.069069  0  3.900562  0
C  C44  1  0.41454846  0.37025842  0.98201788  1  0  -0.122136  0  3.742163  0  0  -0.131033  0  3.991735  0  0  -0.1389  0  4.01461  0  0  -0.08452  -0.127943  0  3.981802  0
C  C45  1  0.58545028  0.62973883  0.01798304  1  0  -0.122219  0  3.742179  0  0  -0.131133  0  3.991763  0  0  -0.139002  0  4.014641  0  0  -0.08457  -0.128044  0  3.981831  0
C  C46  1  0.52274897  0.35220384  0.85984109  1  0  0.155739  0  3.673312  0  0  0.120903  0  3.931608  0  0  0.129726  0  3.947913  0  0  0.057419  0.117782  0  3.920443  0
C  C47  1  0.47725133  0.64779230  0.14015782  1  0  0.155833  0  3.673207  0  0  0.120998  0  3.931503  0  0  0.129819  0  3.947813  0  0  0.057503  0.117874  0  3.920339  0
S  S48  1  0.55792362  0.23552754  0.45663113  1  0  0.970527  0  4.36005  0  0  0.870364  0  4.856257  0  0  0.909652  0  4.835205  0  0  0.390862  0.843163  0  4.869929  0
S  S49  1  0.44207551  0.76447303  0.54336633  1  0  0.970486  0  4.359927  0  0  0.87033  0  4.856152  0  0  0.90962  0  4.835102  0  0  0.390883  0.843137  0  4.869822  0
S  S50  1  0.87727347  0.50203274  0.70709924  1  0  0.927727  0  4.447394  0  0  0.828698  0  4.956054  0  0  0.866848  0  4.937428  0  0  0.381056  0.802352  0  4.967163  0
S  S51  1  0.12272595  0.49796672  0.29290030  1  0  0.927793  0  4.447321  0  0  0.828763  0  4.955992  0  0  0.866908  0  4.937361  0  0  0.381113  0.802418  0  4.967097  0
N  N52  1  0.89606477  0.98479775  0.79868305  1  0  -0.364657  0  3.268715  0  0  -0.28747  0  3.537259  0  0  -0.306833  0  3.55224  0  0  -0.322597  -0.274258  0  3.527558  0
N  N53  1  0.10393310  0.01520283  0.20131948  1  0  -0.364626  0  3.268782  0  0  -0.287452  0  3.537346  0  0  -0.306816  0  3.552332  0  0  -0.322585  -0.274237  0  3.527647  0
N  N54  1  0.64981093  0.23211951  0.84315706  1  0  -0.374238  0  3.302  0  0  -0.304368  0  3.579909  0  0  -0.323884  0  3.596891  0  0  -0.321913  -0.292496  0  3.567618  0
N  N55  1  0.35018498  0.76787884  0.15684406  1  0  -0.374267  0  3.301888  0  0  -0.304413  0  3.57978  0  0  -0.323929  0  3.596759  0  0  -0.321934  -0.292542  0  3.567497  0
O  O56  1  0.64686904  0.35309887  0.36918818  1  0  -0.738211  0  2.061397  0  0  -0.654196  0  2.368191  0  0  -0.681276  0  2.34876  0  0  -0.373614  -0.634841  0  2.380924  0
O  O57  1  0.35312980  0.64690281  0.63081113  1  0  -0.738234  0  2.061316  0  0  -0.654231  0  2.368123  0  0  -0.68131  0  2.348688  0  0  -0.373651  -0.634877  0  2.380851  0
O  O58  1  0.70540428  0.12327315  0.52693708  1  0  -0.748099  0  2.077191  0  0  -0.653661  0  2.371814  0  0  -0.680079  0  2.349898  0  0  -0.374254  -0.634117  0  2.386026  0
O  O59  1  0.29459582  0.87672853  0.47306011  1  0  -0.748038  0  2.077141  0  0  -0.653636  0  2.371759  0  0  -0.680056  0  2.349867  0  0  -0.37427  -0.634098  0  2.385982  0
O  O60  1  0.44743252  0.31532598  0.57457897  1  0  -0.729068  0  2.081062  0  0  -0.646006  0  2.396521  0  0  -0.673309  0  2.376436  0  0  -0.370543  -0.626109  0  2.409176  0
O  O61  1  0.55256690  0.68467349  0.42542057  1  0  -0.729027  0  2.081067  0  0  -0.645946  0  2.396501  0  0  -0.673253  0  2.376421  0  0  -0.370516  -0.626052  0  2.40916  0
O  O62  1  0.82622117  0.40059982  0.61033768  1  0  -0.789707  0  2.14664  0  0  -0.681698  0  2.481692  0  0  -0.710068  0  2.454488  0  0  -0.386507  -0.661103  0  2.499536  0
O  O63  1  0.17377825  0.59939964  0.38966088  1  0  -0.78974  0  2.146573  0  0  -0.681745  0  2.481645  0  0  -0.710118  0  2.454443  0  0  -0.386549  -0.66115  0  2.499489  0
O  O64  1  0.07636106  0.45068723  0.70089076  1  0  -0.709574  0  2.08758  0  0  -0.623381  0  2.395878  0  0  -0.649373  0  2.375082  0  0  -0.369271  -0.604766  0  2.409089  0
O  O65  1  0.92363963  0.54931224  0.29910862  1  0  -0.70958  0  2.087656  0  0  -0.62338  0  2.395968  0  0  -0.649362  0  2.375168  0  0  -0.369266  -0.604759  0  2.409176  0
O  O66  1  0.83142151  0.65443453  0.63338674  1  0  -0.700147  0  2.063118  0  0  -0.635543  0  2.335625  0  0  -0.660364  0  2.323399  0  0  -0.354343  -0.617601  0  2.343333  0
O  O67  1  0.16857919  0.34556495  0.36661263  1  0  -0.700153  0  2.063077  0  0  -0.635554  0  2.335601  0  0  -0.660373  0  2.323372  0  0  -0.354359  -0.617613  0  2.343309  0
O  O68  1  0.08165249  0.13921645  0.56167208  1  0  -0.840516  0  1.900032  0  0  -0.774559  0  2.112692  0  0  -0.796209  0  2.078648  0  0  -0.580334  -0.75927  0  2.13659  0
O  O69  1  0.91834819  0.86078301  0.43832534  1  0  -0.840511  0  1.899996  0  0  -0.774574  0  2.112669  0  0  -0.796223  0  2.078625  0  0  -0.58034  -0.759289  0  2.136582  0
