# generated using pymatgen
data_CoH16C8S2N2(ClO)2
_symmetry_space_group_name_H-M   'P 1'
_cell_length_a   6.75414321
_cell_length_b   6.81004297
_cell_length_c   8.87674039
_cell_angle_alpha   87.96314788
_cell_angle_beta   83.52728316
_cell_angle_gamma   58.44338648
_symmetry_Int_Tables_number   1
_chemical_formula_structural   CoH16C8S2N2(ClO)2
_chemical_formula_sum   'Co1 H16 C8 S2 N2 Cl2 O2'
_cell_volume   345.56700537
_cell_formula_units_Z   1
loop_
 _symmetry_equiv_pos_site_id
 _symmetry_equiv_pos_as_xyz
  1  'x, y, z'
loop_
 _atom_site_type_symbol
 _atom_site_label
 _atom_site_symmetry_multiplicity
 _atom_site_fract_x
 _atom_site_fract_y
 _atom_site_fract_z
 _atom_site_occupancy
 _atom_site_pbe_cm5_charge
 _atom_site_pbe_ddec_charge
 _atom_site_pbe_ddec_spin_density
 _atom_site_pbe_ddec_sum_bond_order
 _atom_site_pbe_magmom
Co  Co0  1  0.99995190  0.00008362  0.00004064  1  0.537484  0.609398  -1.0423  2.97128  -0.973
H  H1  1  0.48676460  0.86025649  0.02554167  1  0.120342  0.107648  0.000337  1.042219  0.0
H  H2  1  0.51313934  0.13993602  0.97434673  1  0.120345  0.107433  0.000338  1.042453  0.0
H  H3  1  0.13828349  0.51711596  0.97250948  1  0.118621  0.10433  0.000413  1.048475  0.0
H  H4  1  0.86162949  0.48308846  0.02752439  1  0.118654  0.104519  0.000413  1.048035  0.0
H  H5  1  0.41621035  0.23589235  0.31067236  1  0.092215  0.163137  0.000156  1.023878  0.0
H  H6  1  0.58362565  0.76421383  0.68931031  1  0.092157  0.162965  0.000156  1.023933  0.0
H  H7  1  0.22651906  0.33513267  0.48768458  1  0.09612  0.157005  -0.00093  1.013997  -0.001
H  H8  1  0.77362833  0.66476269  0.51243187  1  0.095939  0.156809  -0.000928  1.01431  -0.001
H  H9  1  0.13437230  0.50360605  0.31985329  1  0.085643  0.150204  9.9e-05  1.05627  0.0
H  H10  1  0.86535853  0.49635821  0.68032941  1  0.085634  0.150224  0.0001  1.05632  0.0
H  H11  1  0.24864976  0.78294909  0.35416546  1  0.093833  0.157699  5.7e-05  1.019286  0.0
H  H12  1  0.75163311  0.21679948  0.64556424  1  0.09388  0.157425  5.7e-05  1.019813  0.0
H  H13  1  0.28186013  0.92193791  0.51003068  1  0.088343  0.14967  -7.5e-05  1.055425  0.0
H  H14  1  0.71873138  0.07737089  0.48982035  1  0.088117  0.149554  -7.6e-05  1.056204  0.0
H  H15  1  0.47665494  0.85078405  0.33444106  1  0.092564  0.16041  -4.3e-05  1.020548  0.0
H  H16  1  0.52350185  0.14912463  0.66525517  1  0.092483  0.160492  -4.4e-05  1.020775  0.0
C  C17  1  0.49198994  0.69980061  0.01333761  1  0.046392  0.043338  0.009086  3.882211  0.005
C  C18  1  0.50789375  0.30041434  0.98663617  1  0.046699  0.044035  0.009094  3.881702  0.005
C  C19  1  0.29947938  0.50987739  0.98567084  1  0.045521  0.037043  0.009549  3.884957  0.005
C  C20  1  0.70041313  0.49033935  0.01433715  1  0.045587  0.036967  0.009565  3.884245  0.005
C  C21  1  0.23448239  0.32903943  0.36371272  1  -0.244259  -0.497619  -0.002841  3.803001  -0.003
C  C22  1  0.76543668  0.67091698  0.63640999  1  -0.244139  -0.497308  -0.002839  3.802857  -0.003
C  C23  1  0.29979465  0.90287874  0.38591881  1  -0.243696  -0.499318  0.000674  3.8035  0.0
C  C24  1  0.70049767  0.09680710  0.61391901  1  -0.24368  -0.499179  0.000673  3.804508  0.0
S  S25  1  0.09535891  0.17951737  0.31474361  1  0.278719  0.649355  -0.001981  4.002355  -0.003
S  S26  1  0.90460578  0.82036750  0.68545998  1  0.278957  0.649371  -0.00197  4.002496  -0.003
N  N27  1  0.28838011  0.71256254  0.99931114  1  -0.337597  -0.151073  0.027975  3.665804  0.022
N  N28  1  0.71155392  0.28761204  0.00070510  1  -0.337529  -0.151185  0.027971  3.665568  0.022
Cl  Cl29  1  0.15501691  0.10762400  0.79155291  1  -0.26756  -0.487316  -0.000143  1.282139  -0.001
Cl  Cl30  1  0.84498011  0.89254783  0.20858153  1  -0.267427  -0.48723  -0.000175  1.282536  -0.001
O  O31  1  0.13973076  0.15782709  0.14171550  1  -0.334122  -0.549444  -0.02119  2.318598  -0.034
O  O32  1  0.85988897  0.84244675  0.85845766  1  -0.334239  -0.549358  -0.02118  2.318898  -0.034
