# generated using pymatgen
data_Zr3H12C22(NO8)2
_symmetry_space_group_name_H-M   'P 1'
_cell_length_a   13.12055702
_cell_length_b   17.19447563
_cell_length_c   17.29093213
_cell_angle_alpha   83.57727910
_cell_angle_beta   69.19664629
_cell_angle_gamma   68.97135188
_symmetry_Int_Tables_number   1
_chemical_formula_structural   Zr3H12C22(NO8)2
_chemical_formula_sum   'Zr6 H24 C44 N4 O32'
_cell_volume   3403.13873609
_cell_formula_units_Z   2
loop_
 _symmetry_equiv_pos_site_id
 _symmetry_equiv_pos_as_xyz
  1  'x, y, z'
loop_
 _atom_site_type_symbol
 _atom_site_label
 _atom_site_symmetry_multiplicity
 _atom_site_fract_x
 _atom_site_fract_y
 _atom_site_fract_z
 _atom_site_occupancy
 _atom_site_pbe_bader_charge
 _atom_site_pbe_bader_spin_density
 _atom_site_pbe_cm5_charge
 _atom_site_pbe_ddec_charge
 _atom_site_pbe_ddec_spin_density
 _atom_site_pbe_ddec_sum_bond_order
 _atom_site_pbe_magmom
Zr  Zr0  1  0.00055979  0.11281313  0.98996338  1  2.606546  0  1.553216  2.365037  0  2.812568  0
Zr  Zr1  1  0.00577859  0.94854248  0.13510538  1  2.609369  0  1.562023  2.358004  0  2.812167  0
Zr  Zr2  1  0.12595289  0.95937924  0.82779035  1  2.62145  0  1.571056  2.375616  0  2.754859  0
Zr  Zr3  1  0.13555025  0.79743239  0.97437166  1  2.619733  0  1.571975  2.368348  0  2.759611  0
Zr  Zr4  1  0.26491019  0.94645230  0.97491462  1  2.636518  0  1.617209  2.358385  0  2.763031  0
Zr  Zr5  1  0.86847578  0.96162411  0.98977260  1  2.633393  0  1.615308  2.362952  0  2.76723  0
H  H6  1  0.17739529  0.43300689  0.97756516  1  0.11343  0  0.118273  0.139226  0  0.990322  0
H  H7  1  0.29024636  0.53866368  0.97763354  1  0.082477  0  0.120197  0.14594  0  0.991356  0
H  H8  1  0.93949190  0.47649193  0.01293778  1  0.099845  0  0.118496  0.138317  0  0.988891  0
H  H9  1  0.83042305  0.37006144  0.00795506  1  0.139335  0  0.122905  0.155144  0  0.988302  0
H  H10  1  0.17273164  0.96168432  0.45994420  1  0.118076  0  0.115595  0.134599  0  0.995577  0
H  H11  1  0.28846762  0.95498454  0.56553937  1  0.161106  0  0.125318  0.153688  0  0.981912  0
H  H12  1  0.95695817  0.94726963  0.50701794  1  0.08996  0  0.11617  0.136571  0  0.994054  0
H  H13  1  0.85004257  0.93662730  0.40137536  1  0.110395  0  0.112238  0.131082  0  1.013814  0
H  H14  1  0.81569737  0.09032184  0.11899732  1  0.61526  0  0.329675  0.435325  0  0.847415  0
H  H15  1  0.22207510  0.82163632  0.09864330  1  0.61413  0  0.336303  0.436052  0  0.833394  0
H  H16  1  0.01283775  0.83431999  0.86495063  1  0.602039  0  0.328968  0.42049  0  0.862137  0
H  H17  1  0.21785235  0.07465753  0.85538065  1  0.614914  0  0.334868  0.433298  0  0.839996  0
H  H18  1  0.95313325  0.83567485  0.24430122  1  0.598117  0  0.290637  0.382423  0  0.926283  0
H  H19  1  0.07615546  0.76585575  0.14452001  1  0.635069  0  0.280857  0.404051  0  0.936741  0
H  H20  1  0.28225777  0.68873166  0.85300696  1  0.599733  0  0.299302  0.39372  0  0.907533  0
H  H21  1  0.21077336  0.78828762  0.79103166  1  0.637469  0  0.281644  0.406069  0  0.93355  0
H  H22  1  0.05894233  0.07678891  0.72650268  1  0.59836  0  0.294009  0.385219  0  0.919821  0
H  H23  1  0.05210106  0.14327122  0.82040686  1  0.638237  0  0.281737  0.403805  0  0.93743  0
H  H24  1  0.95979924  0.22476701  0.09519414  1  0.593622  0  0.289043  0.392468  0  0.911581  0
H  H25  1  0.85109225  0.03680995  0.28718529  1  0.641636  0  0.336897  0.422683  0  0.864325  0
H  H26  1  0.15473375  0.83571312  0.72062870  1  0.609859  0  0.324212  0.404915  0  0.879883  0
H  H27  1  0.93646420  0.21710146  0.87396028  1  0.636739  0  0.321624  0.408362  0  0.888287  0
H  H28  1  0.98170038  0.03391274  0.26660092  1  0.644578  0  0.329674  0.420913  0  0.876315  0
H  H29  1  0.05252182  0.70127547  0.09646832  1  0.617076  0  0.320246  0.407683  0  0.889212  0
C  C30  1  0.33887625  0.33463512  0.97926637  1  0.431128  0  0.095976  0.162751  0  4.09427  0
C  C31  1  0.26501114  0.41653498  0.97815020  1  -0.025925  0  -0.086874  -0.174414  0  3.979691  0
C  C32  1  0.32347485  0.47107544  0.97765292  1  0.100137  0  -0.088708  -0.178231  0  3.961849  0
C  C33  1  0.43460290  0.42318279  0.97836251  1  0.391795  0  0.099229  0.171828  0  4.083059  0
C  C34  1  0.78708194  0.57388807  0.99549199  1  0.426857  0  0.094318  0.155857  0  4.095116  0
C  C35  1  0.85637512  0.49237419  0.00448244  1  0.026694  0  -0.084683  -0.168269  0  3.974765  0
C  C36  1  0.80035217  0.43733515  0.00146364  1  -0.001638  0  -0.085506  -0.174402  0  3.941053  0
C  C37  1  0.69523166  0.48457943  0.99021613  1  0.417091  0  0.10142  0.17641  0  4.074755  0
C  C38  1  0.33695571  0.95654988  0.36252997  1  0.394409  0  0.095804  0.160478  0  4.093072  0
C  C39  1  0.26197735  0.95833233  0.44387199  1  -0.037476  0  -0.087536  -0.173651  0  3.985734  0
C  C40  1  0.32144938  0.95471333  0.49839656  1  0.006246  0  -0.085858  -0.175637  0  3.950569  0
C  C41  1  0.43440151  0.95078095  0.45104539  1  0.360583  0  0.102124  0.176771  0  4.073296  0
C  C42  1  0.79282038  0.95106914  0.60393276  1  0.376214  0  0.095626  0.161314  0  4.090544  0
C  C43  1  0.86942839  0.94690357  0.52279477  1  0.014523  0  -0.089131  -0.172379  0  3.992897  0
C  C44  1  0.81380633  0.94232217  0.46831656  1  -0.057965  0  -0.100682  -0.198086  0  3.996353  0
C  C45  1  0.70151414  0.94411396  0.51535912  1  0.495633  0  0.100568  0.179263  0  4.081806  0
C  C46  1  0.24111217  0.13729139  0.98432409  1  1.668513  0  0.235479  0.695719  0  4.20878  0
C  C47  1  0.73582655  0.95300653  0.18770794  1  1.691795  0  0.235734  0.716615  0  4.200536  0
C  C48  1  0.23873754  0.95398697  0.16748399  1  1.652574  0  0.236723  0.699863  0  4.19788  0
C  C49  1  0.73270142  0.15570370  0.98306906  1  1.681513  0  0.237375  0.712484  0  4.204358  0
C  C50  1  0.89020701  0.96665790  0.79592138  1  1.647177  0  0.231569  0.692434  0  4.213288  0
C  C51  1  0.40491082  0.74735886  0.96408031  1  1.669668  0  0.237785  0.718669  0  4.192027  0
C  C52  1  0.89028120  0.76784306  0.99522064  1  1.627642  0  0.232485  0.695014  0  4.203525  0
C  C53  1  0.39995273  0.94120603  0.77864219  1  1.681805  0  0.23888  0.714437  0  4.194665  0
C  C54  1  0.81085771  0.95742628  0.67713333  1  -0.382416  0  -0.029695  -0.071654  0  4.146246  0
C  C55  1  0.84108863  0.96351291  0.73472150  1  0.193048  0  -0.032079  -0.153435  0  3.934378  0
C  C56  1  0.59471946  0.94623291  0.66226863  1  0.097287  0  0.092899  0.074589  0  4.157749  0
C  C57  1  0.50594418  0.94209744  0.71454646  1  0.272922  0  -0.025913  -0.211124  0  3.939007  0
C  C58  1  0.53948517  0.95142651  0.30395832  1  0.000799  0  0.097483  0.087918  0  4.169119  0
C  C59  1  0.63004062  0.95128932  0.25092663  1  0.360817  0  -0.037465  -0.233902  0  3.961101  0
C  C60  1  0.31641793  0.95732604  0.28885046  1  -0.408431  0  -0.0302  -0.073076  0  4.147891  0
C  C61  1  0.28610859  0.95752545  0.22964818  1  0.20133  0  -0.028726  -0.150988  0  3.927638  0
C  C62  1  0.52755135  0.94687598  0.47366538  1  -0.250828  0  -0.021964  -0.081808  0  4.128403  0
C  C63  1  0.61033250  0.94416115  0.49235956  1  0.037332  0  -0.030738  -0.103202  0  4.138183  0
C  C64  1  0.80795998  0.64757091  0.99581436  1  -0.087873  0  -0.029526  -0.068895  0  4.147779  0
C  C65  1  0.83965975  0.70593334  0.99745559  1  -0.1661  0  -0.03388  -0.158868  0  3.935813  0
C  C66  1  0.50995593  0.68344697  0.96729695  1  0.337843  0  -0.035088  -0.231224  0  3.952435  0
C  C67  1  0.59664812  0.63181463  0.97650224  1  0.036517  0  0.098739  0.089206  0  4.162456  0
C  C68  1  0.62745261  0.21909747  0.97965671  1  0.268478  0  -0.03397  -0.228286  0  3.962024  0
C  C69  1  0.53845164  0.27455645  0.97954045  1  0.09077  0  0.096578  0.083764  0  4.174515  0
C  C70  1  0.31942217  0.26013975  0.98084770  1  -0.320801  0  -0.030149  -0.07623  0  4.152398  0
C  C71  1  0.29104200  0.19944002  0.98285715  1  0.080271  0  -0.02845  -0.145627  0  3.928115  0
C  C72  1  0.52558104  0.44515987  0.98048526  1  -0.437195  0  -0.026086  -0.091046  0  4.130578  0
C  C73  1  0.60652879  0.46221190  0.98432115  1  0.189517  0  -0.025439  -0.091526  0  4.130296  0
N  N74  1  0.44419023  0.33884521  0.97892239  1  -1.22645  0  -0.195259  0.016508  0  3.80803  0
N  N75  1  0.68685425  0.56906270  0.98637548  1  -1.227474  0  -0.193503  0.014272  0  3.799567  0
N  N76  1  0.44407169  0.95202816  0.36703596  1  -1.217014  0  -0.192956  0.015127  0  3.802999  0
N  N77  1  0.68907018  0.94851676  0.59925494  1  -1.239345  0  -0.191659  0.021767  0  3.793648  0
O  O78  1  0.13374118  0.16691536  0.99175487  1  -1.166868  0  -0.348579  -0.626883  0  2.269931  0
O  O79  1  0.30515480  0.06053510  0.97751920  1  -1.156969  0  -0.35162  -0.604104  0  2.228557  0
O  O80  1  0.81859785  0.95010032  0.21236700  1  -1.189054  0  -0.353366  -0.65715  0  2.244848  0
O  O81  1  0.73729121  0.95779717  0.11361869  1  -1.154451  0  -0.339064  -0.587217  0  2.240114  0
O  O82  1  0.13057286  0.96199586  0.19579097  1  -1.180842  0  -0.349454  -0.644434  0  2.26178  0
O  O83  1  0.30467768  0.94190993  0.09232462  1  -1.149745  0  -0.336171  -0.586501  0  2.219217  0
O  O84  1  0.81789815  0.17914415  0.97297815  1  -1.16219  0  -0.327631  -0.602029  0  2.2472  0
O  O85  1  0.73015780  0.08160156  0.99717716  1  -1.159385  0  -0.36052  -0.611214  0  2.234502  0
O  O86  1  0.91197618  0.20223086  0.07908620  1  -1.208925  0  -0.70334  -0.952854  0  1.76883  0
O  O87  1  0.01684107  0.18606090  0.86989325  1  -1.264332  0  -0.609622  -0.815779  0  2.011577  0
O  O88  1  0.91787846  0.04617550  0.24486030  1  -1.236376  0  -0.577652  -0.781494  0  2.04267  0
O  O89  1  0.02691301  0.83754573  0.20533889  1  -1.246923  0  -0.659703  -0.933717  0  1.885766  0
O  O90  1  0.09817407  0.01477026  0.04685341  1  -1.220562  0  -0.786153  -1.174154  0  2.090418  0
O  O91  1  0.88387294  0.04922080  0.08238452  1  -1.2584  0  -0.675607  -1.051056  0  2.196887  0
O  O92  1  0.99585192  0.96533115  0.76602109  1  -1.181368  0  -0.360243  -0.663393  0  2.255178  0
O  O93  1  0.82887642  0.96898548  0.87191745  1  -1.155853  0  -0.336839  -0.585791  0  2.224373  0
O  O94  1  0.32382862  0.72381687  0.96169191  1  -1.171165  0  -0.352129  -0.638242  0  2.220505  0
O  O95  1  0.40171515  0.82211458  0.96555989  1  -1.148132  0  -0.3451  -0.597348  0  2.236649  0
O  O96  1  0.99437615  0.73919309  0.99687050  1  -1.174626  0  -0.35264  -0.644917  0  2.245035  0
O  O97  1  0.83075791  0.84425735  0.99057681  1  -1.149786  0  -0.344724  -0.595605  0  2.221694  0
O  O98  1  0.31750260  0.94185196  0.75599586  1  -1.151402  0  -0.338849  -0.601766  0  2.21673  0
O  O99  1  0.39953138  0.94140920  0.85261568  1  -1.149814  0  -0.351462  -0.605792  0  2.237549  0
O  O100  1  0.20553248  0.83816034  0.74913092  1  -1.242067  0  -0.603476  -0.810793  0  2.013375  0
O  O101  1  0.10748207  0.07070891  0.75975391  1  -1.240167  0  -0.657082  -0.925801  0  1.882178  0
O  O102  1  0.20474018  0.72898262  0.86152730  1  -1.241497  0  -0.656943  -0.931753  0  1.879916  0
O  O103  1  0.11252709  0.72317510  0.09454759  1  -1.243556  0  -0.610258  -0.815201  0  2.006525  0
O  O104  1  0.02830145  0.86961854  0.89618728  1  -1.240684  0  -0.688759  -1.049361  0  2.30143  0
O  O105  1  0.20177872  0.88803371  0.91330515  1  -1.210419  0  -0.789481  -1.166375  0  2.101349  0
O  O106  1  0.98072136  0.02182578  0.92473691  1  -1.21348  0  -0.788721  -1.18133  0  2.118625  0
O  O107  1  0.17968258  0.85758984  0.06456455  1  -1.24642  0  -0.683188  -1.034315  0  2.239649  0
O  O108  1  0.17435244  0.04173366  0.89206758  1  -1.250929  0  -0.680529  -1.036222  0  2.232882  0
O  O109  1  0.98448940  0.89149510  0.04782875  1  -1.214077  0  -0.795842  -1.174888  0  2.137017  0
