# generated using pymatgen
data_Zn3C30Cl8(O3F)4
_symmetry_space_group_name_H-M   'P 1'
_cell_length_a   19.04684778
_cell_length_b   19.04601386
_cell_length_c   19.23313138
_cell_angle_alpha   110.69997351
_cell_angle_beta   110.70210789
_cell_angle_gamma   104.13824131
_symmetry_Int_Tables_number   1
_chemical_formula_structural   Zn3C30Cl8(O3F)4
_chemical_formula_sum   'Zn6 C60 Cl16 O24 F8'
_cell_volume   5535.19870335
_cell_formula_units_Z   2
loop_
 _symmetry_equiv_pos_site_id
 _symmetry_equiv_pos_as_xyz
  1  'x, y, z'
loop_
 _atom_site_type_symbol
 _atom_site_label
 _atom_site_symmetry_multiplicity
 _atom_site_fract_x
 _atom_site_fract_y
 _atom_site_fract_z
 _atom_site_occupancy
 _atom_site_pbe_bader_charge
 _atom_site_pbe_bader_spin_density
 _atom_site_pbe_cm5_charge
 _atom_site_pbe_ddec_charge
 _atom_site_pbe_ddec_spin_density
 _atom_site_pbe_ddec_sum_bond_order
 _atom_site_pbe_magmom
Zn  Zn0  1  0.99791485  0.43827912  0.93982683  1  1.31386  0  0.74899  0.998203  0  2.02589  0
Zn  Zn1  1  0.55362874  0.55357343  0.49729021  1  1.300999  0  0.741816  1.000516  0  2.017323  0
Zn  Zn2  1  0.44642287  0.44636034  0.50271071  1  1.305472  0  0.741719  1.000459  0  2.017562  0
Zn  Zn3  1  0.00214491  0.56176797  0.06027918  1  1.314496  0  0.748777  0.997967  0  2.026174  0
Zn  Zn4  1  0.56172531  0.00208410  0.06016492  1  1.314071  0  0.748871  0.997964  0  2.025992  0
Zn  Zn5  1  0.43824687  0.99785748  0.93970371  1  1.314978  0  0.748749  0.997953  0  2.026325  0
C  C6  1  0.90490129  0.54119224  0.90324969  1  1.602615  0  0.216487  0.614526  0  4.208302  0
C  C7  1  0.14854444  0.44317081  0.23186377  1  0.009309  0  -0.002496  0.027296  0  3.959763  0
C  C8  1  0.55374571  0.87384462  0.63152729  1  0.517873  0  0.091585  0.180621  0  4.078422  0
C  C9  1  0.87367641  0.55382153  0.63160525  1  0.510686  0  0.091714  0.18058  0  4.079009  0
C  C10  1  0.12613544  0.44607705  0.36842015  1  0.516915  0  0.091234  0.180001  0  4.077345  0
C  C11  1  0.44606622  0.12626492  0.36831545  1  0.508215  0  0.091135  0.179901  0  4.078164  0
C  C12  1  0.79410213  0.51717246  0.61741904  1  0.21834  0  0.002543  -0.010148  0  4.046481  0
C  C13  1  0.20572932  0.48269668  0.38263774  1  0.209105  0  0.002761  -0.009535  0  4.045819  0
C  C14  1  0.48274735  0.20584983  0.38253118  1  0.220404  0  0.002687  -0.009676  0  4.045996  0
C  C15  1  0.51719137  0.79425234  0.61733950  1  0.210559  0  0.00269  -0.009764  0  4.046168  0
C  C16  1  0.44322499  0.14863762  0.23176739  1  0.013574  0  -0.002259  0.027946  0  3.961196  0
C  C17  1  0.77999693  0.52597390  0.68776719  1  0.087172  0  0.001611  0.037215  0  3.927782  0
C  C18  1  0.21985920  0.47388427  0.31230117  1  0.089103  0  0.001504  0.037382  0  3.928917  0
C  C19  1  0.47398670  0.21997738  0.31220306  1  0.088773  0  0.001466  0.036918  0  3.927952  0
C  C20  1  0.52608692  0.78013823  0.68770106  1  0.087639  0  0.001438  0.037052  0  3.928832  0
C  C21  1  0.55681452  0.85146083  0.76813690  1  0.010012  0  -0.002409  0.027701  0  3.959648  0
C  C22  1  0.85134971  0.55675333  0.76820163  1  0.012843  0  -0.002528  0.02764  0  3.961137  0
C  C23  1  0.83911863  0.54318462  0.83239958  1  0.081927  0  -0.014572  -0.143542  0  3.927092  0
C  C24  1  0.16084544  0.45676605  0.16770805  1  0.112877  0  -0.014514  -0.143078  0  3.925359  0
C  C25  1  0.45683150  0.16088319  0.16759465  1  0.082331  0  -0.01471  -0.143644  0  3.927275  0
C  C26  1  0.09512927  0.45883972  0.09687661  1  1.604045  0  0.216414  0.614591  0  4.207644  0
C  C27  1  0.54329195  0.83916574  0.83233006  1  0.112041  0  -0.01463  -0.143446  0  3.925799  0
C  C28  1  0.76010907  0.51315554  0.82037344  1  0.489094  0  0.100035  0.20963  0  4.047074  0
C  C29  1  0.23987938  0.48671828  0.17976722  1  0.455093  0  0.099862  0.209231  0  4.0472  0
C  C30  1  0.48686007  0.23990268  0.17963156  1  0.48869  0  0.10006  0.209614  0  4.046861  0
C  C31  1  0.51339023  0.76013388  0.82029701  1  0.451815  0  0.099953  0.209476  0  4.047967  0
C  C32  1  0.45884462  0.09511205  0.09675871  1  1.602469  0  0.216533  0.614656  0  4.208101  0
C  C33  1  0.69009040  0.49849106  0.74853412  1  0.13062  0  0.017758  0.038465  0  4.039521  0
C  C34  1  0.30983077  0.50123882  0.25157181  1  0.139812  0  0.017512  0.038226  0  4.039284  0
C  C35  1  0.50150087  0.30991067  0.25146439  1  0.130816  0  0.017792  0.038599  0  4.039424  0
C  C36  1  0.49884863  0.69018051  0.74847666  1  0.143583  0  0.017488  0.037996  0  4.039182  0
C  C37  1  0.54122165  0.90487743  0.90316971  1  1.603939  0  0.216252  0.614555  0  4.207555  0
C  C38  1  0.69916202  0.50469777  0.68180791  1  0.019679  0  -0.015961  -0.10907  0  3.872155  0
C  C39  1  0.30069427  0.49505203  0.31828169  1  0.018771  0  -0.015503  -0.10922  0  3.873285  0
C  C40  1  0.49527663  0.30082487  0.31817855  1  0.018862  0  -0.015865  -0.109062  0  3.872075  0
C  C41  1  0.50496292  0.69930828  0.68173547  1  0.018776  0  -0.015412  -0.108903  0  3.873174  0
C  C42  1  0.50586189  0.62982790  0.61351687  1  1.592738  0  0.211843  0.604153  0  4.164762  0
C  C43  1  0.49441889  0.37038218  0.38636591  1  1.583198  0  0.211937  0.603399  0  4.167239  0
C  C44  1  0.37017635  0.49414407  0.38648873  1  1.592576  0  0.211739  0.604083  0  4.164856  0
C  C45  1  0.62960603  0.50555888  0.61362392  1  1.585414  0  0.211981  0.603359  0  4.167314  0
C  C46  1  0.87341983  0.40129673  0.99064361  1  1.6807  0  0.222054  0.648489  0  4.268995  0
C  C47  1  0.12661838  0.59874586  0.00942049  1  1.680942  0  0.222366  0.648656  0  4.269049  0
C  C48  1  0.59869166  0.12658165  0.00932034  1  1.681247  0  0.222139  0.648777  0  4.268885  0
C  C49  1  0.40122248  0.87337433  0.99051734  1  1.680078  0  0.221959  0.647936  0  4.270856  0
C  C50  1  0.80839052  0.34456786  0.99097170  1  0.190095  0  -0.004762  -0.124677  0  3.852229  0
C  C51  1  0.19161191  0.65548164  0.00905833  1  0.189931  0  -0.004948  -0.12474  0  3.852174  0
C  C52  1  0.65541906  0.19161195  0.00900883  1  0.190871  0  -0.00481  -0.124996  0  3.85168  0
C  C53  1  0.34449197  0.80838251  0.99087977  1  0.190414  0  -0.004996  -0.124514  0  3.852386  0
C  C54  1  0.75810340  0.29615671  0.99681669  1  -0.252882  0  -0.00144  0.037408  0  4.210587  0
C  C55  1  0.24186632  0.70388977  0.00317427  1  -0.307569  0  -0.001155  0.037601  0  4.210294  0
C  C56  1  0.70384743  0.24190781  0.00316872  1  -0.308899  0  -0.001093  0.037992  0  4.209533  0
C  C57  1  0.29609328  0.75811981  0.99677368  1  -0.25312  0  -0.001185  0.037476  0  4.210081  0
C  C58  1  0.93181524  0.59858233  0.78120116  1  0.146766  0  0.007402  0.043706  0  4.028988  0
C  C59  1  0.06805498  0.40137169  0.21883045  1  0.150072  0  0.00809  0.044429  0  4.027948  0
C  C60  1  0.40136570  0.06816094  0.21873493  1  0.145958  0  0.007324  0.043544  0  4.029418  0
C  C61  1  0.59855757  0.93195046  0.78113773  1  0.151671  0  0.007958  0.044409  0  4.028656  0
C  C62  1  0.94300561  0.59900043  0.71376113  1  0.167842  0  -0.000897  -0.013888  0  4.108829  0
C  C63  1  0.05682681  0.40092537  0.28624624  1  0.163743  0  -0.001388  -0.014382  0  4.108349  0
C  C64  1  0.40090201  0.05695009  0.28615071  1  0.166295  0  -0.000933  -0.01381  0  4.108606  0
C  C65  1  0.59890874  0.94317131  0.71368851  1  0.161544  0  -0.001343  -0.014742  0  4.108786  0
Cl  Cl66  1  0.01544046  0.65496821  0.88149310  1  -0.155271  0  0.035504  -0.009838  0  1.682598  0
Cl  Cl67  1  0.96231999  0.34990244  0.27369960  1  -0.145337  0  0.01368  -0.021803  0  1.518609  0
Cl  Cl68  1  0.34984342  0.96245098  0.27361560  1  -0.143968  0  0.013647  -0.021983  0  1.517664  0
Cl  Cl69  1  0.64983811  0.03768746  0.72619041  1  -0.143493  0  0.013733  -0.021695  0  1.518583  0
Cl  Cl70  1  0.03749337  0.65001600  0.72625533  1  -0.144197  0  0.013538  -0.02204  0  1.517791  0
Cl  Cl71  1  0.71815664  0.45467133  0.51356411  1  -0.148284  0  0.017426  -0.013398  0  1.677506  0
Cl  Cl72  1  0.28166922  0.54520835  0.48651260  1  -0.144241  0  0.017425  -0.013557  0  1.67557  0
Cl  Cl73  1  0.54523862  0.28177109  0.48640102  1  -0.147292  0  0.017362  -0.013538  0  1.677178  0
Cl  Cl74  1  0.98445782  0.34502965  0.11852376  1  -0.155664  0  0.035476  -0.009938  0  1.682776  0
Cl  Cl75  1  0.45466769  0.71828148  0.51348295  1  -0.147003  0  0.017356  -0.013516  0  1.675592  0
Cl  Cl76  1  0.59955817  0.47671158  0.75305868  1  -0.131083  0  0.014987  -0.01896  0  1.582666  0
Cl  Cl77  1  0.40036491  0.52287363  0.24705789  1  -0.135713  0  0.014932  -0.019041  0  1.582996  0
Cl  Cl78  1  0.52326107  0.40045043  0.24694165  1  -0.131033  0  0.014904  -0.0191  0  1.582402  0
Cl  Cl79  1  0.47728094  0.59964926  0.75301028  1  -0.136245  0  0.014855  -0.01911  0  1.58314  0
Cl  Cl80  1  0.34500101  0.98455622  0.11843453  1  -0.1553  0  0.035551  -0.009772  0  1.682789  0
Cl  Cl81  1  0.65492849  0.01556117  0.88143307  1  -0.15564  0  0.035438  -0.009927  0  1.683122  0
O  O82  1  0.92733628  0.48365727  0.87678944  1  -1.144949  0  -0.312995  -0.563729  0  2.297048  0
O  O83  1  0.07255620  0.41025987  0.02019249  1  -1.129489  0  -0.306118  -0.52665  0  2.259982  0
O  O84  1  0.41026079  0.07254091  0.02007726  1  -1.131124  0  -0.305993  -0.526552  0  2.259967  0
O  O85  1  0.58981296  0.92746575  0.97985308  1  -1.129696  0  -0.30586  -0.526373  0  2.259405  0
O  O86  1  0.92748994  0.58979720  0.97992680  1  -1.130665  0  -0.305769  -0.526201  0  2.259666  0
O  O87  1  0.89747789  0.36946939  0.93785356  1  -1.126314  0  -0.30748  -0.536341  0  2.228629  0
O  O88  1  0.10256832  0.63056643  0.06221928  1  -1.127646  0  -0.307731  -0.536611  0  2.228523  0
O  O89  1  0.63050777  0.10253511  0.06213145  1  -1.126478  0  -0.307566  -0.536527  0  2.228797  0
O  O90  1  0.07272159  0.51639685  0.12333762  1  -1.14527  0  -0.313001  -0.563755  0  2.296353  0
O  O91  1  0.36940203  0.89744090  0.93773307  1  -1.127152  0  -0.307569  -0.536281  0  2.229416  0
O  O92  1  0.90164328  0.47759047  0.04411661  1  -1.120644  0  -0.301498  -0.525468  0  2.236077  0
O  O93  1  0.09841034  0.52244791  0.95596130  1  -1.119547  0  -0.301481  -0.525307  0  2.236024  0
O  O94  1  0.52240682  0.09834034  0.95581738  1  -1.121158  0  -0.301598  -0.525486  0  2.235611  0
O  O95  1  0.47752217  0.90156750  0.04396234  1  -1.120047  0  -0.301368  -0.52514  0  2.236437  0
O  O96  1  0.51636346  0.07266086  0.12322819  1  -1.144844  0  -0.312876  -0.563562  0  2.296529  0
O  O97  1  0.45653330  0.55558236  0.58588826  1  -1.156457  0  -0.314951  -0.575862  0  2.40932  0
O  O98  1  0.54381173  0.44461482  0.41402608  1  -1.146505  0  -0.31514  -0.575249  0  2.409739  0
O  O99  1  0.44441418  0.54347325  0.41411710  1  -1.156504  0  -0.314954  -0.575885  0  2.409538  0
O  O100  1  0.55536928  0.45616169  0.58596475  1  -1.14689  0  -0.315198  -0.575397  0  2.409756  0
O  O101  1  0.48364747  0.92726602  0.87670349  1  -1.145059  0  -0.312922  -0.563847  0  2.296882  0
O  O102  1  0.55972961  0.65086785  0.59141137  1  -1.127315  0  -0.308687  -0.524244  0  2.302748  0
O  O103  1  0.44048033  0.34937547  0.40839683  1  -1.12578  0  -0.308492  -0.524408  0  2.305597  0
O  O104  1  0.34913982  0.44026396  0.40858906  1  -1.12751  0  -0.308648  -0.52426  0  2.302863  0
O  O105  1  0.65060543  0.55949570  0.59159287  1  -1.127772  0  -0.308481  -0.524189  0  2.305668  0
F  F106  1  0.74773627  0.49549644  0.87843547  1  -0.6171  0  -0.089281  -0.111233  0  1.375728  0
F  F107  1  0.11328719  0.45373717  0.43474933  1  -0.613972  0  -0.091616  -0.110994  0  1.393811  0
F  F108  1  0.45370150  0.11343667  0.43465330  1  -0.614227  0  -0.091527  -0.110854  0  1.393736  0
F  F109  1  0.54598488  0.88668973  0.56517411  1  -0.614147  0  -0.091802  -0.111253  0  1.39392  0
F  F110  1  0.88648504  0.54613918  0.56524965  1  -0.614219  0  -0.09189  -0.111219  0  1.394397  0
F  F111  1  0.25233509  0.50440374  0.12175244  1  -0.618596  0  -0.089165  -0.111032  0  1.375698  0
F  F112  1  0.50454737  0.25229392  0.12159087  1  -0.6172  0  -0.089292  -0.111208  0  1.3755  0
F  F113  1  0.49577878  0.74767568  0.87834811  1  -0.617835  0  -0.089285  -0.11113  0  1.376308  0
