# generated using pymatgen
data_Cd2H14C24N4Cl4O9
_symmetry_space_group_name_H-M   'P 1'
_cell_length_a   11.47408076
_cell_length_b   11.47408147
_cell_length_c   15.09577778
_cell_angle_alpha   109.61699192
_cell_angle_beta   109.61682626
_cell_angle_gamma   96.45562962
_symmetry_Int_Tables_number   1
_chemical_formula_structural   Cd2H14C24N4Cl4O9
_chemical_formula_sum   'Cd4 H28 C48 N8 Cl8 O18'
_cell_volume   1705.69947054
_cell_formula_units_Z   2
loop_
 _symmetry_equiv_pos_site_id
 _symmetry_equiv_pos_as_xyz
  1  'x, y, z'
loop_
 _atom_site_type_symbol
 _atom_site_label
 _atom_site_symmetry_multiplicity
 _atom_site_fract_x
 _atom_site_fract_y
 _atom_site_fract_z
 _atom_site_occupancy
 _atom_site_pbe_bader_charge
 _atom_site_pbe_bader_spin_density
 _atom_site_pbe_cm5_charge
 _atom_site_pbe_ddec_charge
 _atom_site_pbe_ddec_spin_density
 _atom_site_pbe_ddec_sum_bond_order
 _atom_site_pbe_magmom
Cd  Cd0  1  0.26660454  0.00210096  0.28468775  1  1.297848  0  0.781057  0.938749  0  2.183967  0
Cd  Cd1  1  0.73339902  0.99790261  0.71531371  1  1.297824  0  0.781075  0.938802  0  2.183934  0
Cd  Cd2  1  0.00210100  0.26660304  0.78468839  1  1.297811  0  0.781062  0.9388  0  2.183901  0
Cd  Cd3  1  0.99789969  0.73339702  0.21531277  1  1.297848  0  0.781058  0.938797  0  2.183926  0
H  H4  1  0.11758485  0.85443678  0.91959426  1  0.136853  0  0.1167  0.141714  0  0.991742  0
H  H5  1  0.75322931  0.54518476  0.86003817  1  0.144616  0  0.109461  0.130068  0  1.009475  0
H  H6  1  0.97192058  0.47221685  0.67890575  1  0.131017  0  0.119403  0.106122  0  0.998172  0
H  H7  1  0.85443660  0.11758462  0.41959530  1  0.136859  0  0.116701  0.141703  0  0.991731  0
H  H8  1  0.54518342  0.75323032  0.36003823  1  0.144603  0  0.10946  0.130062  0  1.009443  0
H  H9  1  0.67698395  0.65795537  0.11316456  1  0.127603  0  0.116576  0.102751  0  1.002053  0
H  H10  1  0.88241488  0.14556489  0.08040375  1  0.136884  0  0.116728  0.141716  0  0.991726  0
H  H11  1  0.24676852  0.45481457  0.13996274  1  0.144651  0  0.109454  0.130039  0  1.009487  0
H  H12  1  0.94536385  0.81864701  0.41389431  1  0.197895  0  0.117718  0.102429  0  1.039112  0
H  H13  1  0.18135451  0.05463459  0.08610711  1  0.197877  0  0.117718  0.102429  0  1.039156  0
H  H14  1  0.34204413  0.32301715  0.38683647  1  0.127567  0  0.116582  0.102764  0  1.002026  0
H  H15  1  0.81864714  0.94536572  0.91389569  1  0.197839  0  0.117709  0.10241  0  1.039165  0
H  H16  1  0.02808202  0.52778277  0.32109248  1  0.131047  0  0.119427  0.106132  0  0.998177  0
H  H17  1  0.48669145  0.89703895  0.51776623  1  0.122257  0  0.118863  0.100242  0  1.020763  0
H  H18  1  0.14556504  0.88241661  0.58040574  1  0.136907  0  0.116699  0.141705  0  0.991744  0
H  H19  1  0.47221696  0.97192138  0.17890642  1  0.131029  0  0.119414  0.106141  0  0.998161  0
H  H20  1  0.10296054  0.51330980  0.98223212  1  0.122285  0  0.118858  0.100216  0  1.020759  0
H  H21  1  0.45481632  0.24676857  0.63996107  1  0.144522  0  0.10946  0.130068  0  1.009435  0
H  H22  1  0.32301674  0.34204376  0.88683438  1  0.127327  0  0.116584  0.102774  0  1.002036  0
H  H23  1  0.98371486  0.94812606  0.18320757  1  0.655635  0  0.279506  0.380655  0  0.971532  0
H  H24  1  0.51330829  0.10296087  0.48223264  1  0.122277  0  0.118852  0.100195  0  1.020761  0
H  H25  1  0.05463684  0.18135305  0.58610486  1  0.197904  0  0.117728  0.102447  0  1.039104  0
H  H26  1  0.52778469  0.02807985  0.82109395  1  0.13101  0  0.119411  0.106117  0  0.998182  0
H  H27  1  0.65795751  0.67698501  0.61316547  1  0.127318  0  0.116575  0.102774  0  1.002032  0
H  H28  1  0.89703919  0.48669464  0.01776726  1  0.122223  0  0.118886  0.100257  0  1.020723  0
H  H29  1  0.05187447  0.01628565  0.31679156  1  0.655639  0  0.279495  0.380641  0  0.971546  0
H  H30  1  0.01628775  0.05187264  0.81679240  1  0.655621  0  0.279525  0.380691  0  0.971474  0
H  H31  1  0.94812526  0.98371416  0.68320664  1  0.655631  0  0.279527  0.380696  0  0.971468  0
C  C32  1  0.78486041  0.84457423  0.86250970  1  0.47318  0  0.048722  0.072288  0  3.895343  0
C  C33  1  0.16535626  0.76985585  0.07928072  1  1.60403  0  0.202619  0.581401  0  4.244042  0
C  C34  1  0.69908351  0.59500791  0.72778077  1  0.007023  0  0.014636  0.097328  0  4.06054  0
C  C35  1  0.84457229  0.78485888  0.36250735  1  0.472908  0  0.048736  0.072312  0  3.895375  0
C  C36  1  0.14926754  0.21004132  0.98360173  1  1.58229  0  0.205211  0.578641  0  4.2178  0
C  C37  1  0.56064183  0.08725399  0.42914247  1  0.454167  0  0.050426  0.069441  0  3.901018  0
C  C38  1  0.95846801  0.32982266  0.20995808  1  0.054652  0  0.015244  0.098604  0  4.066343  0
C  C39  1  0.59500632  0.69908401  0.22777986  1  0.006931  0  0.014626  0.097326  0  4.060587  0
C  C40  1  0.53756534  0.01468621  0.25962861  1  0.518167  0  0.042539  0.015527  0  3.944065  0
C  C41  1  0.32982396  0.95846727  0.70996028  1  0.054773  0  0.015256  0.09863  0  4.066238  0
C  C42  1  0.30091622  0.40499283  0.27222098  1  0.007026  0  0.014637  0.097301  0  4.060564  0
C  C43  1  0.09579815  0.75060653  0.89434638  1  0.016723  0  -0.062852  -0.115965  0  3.885206  0
C  C44  1  0.91274552  0.43936011  0.07085631  1  0.454148  0  0.050408  0.069401  0  3.900998  0
C  C45  1  0.25006649  0.20802784  0.59846629  1  0.007336  0  -0.011603  -0.054259  0  3.946152  0
C  C46  1  0.21513740  0.15542603  0.13749276  1  0.4729  0  0.048649  0.072237  0  3.895369  0
C  C47  1  0.46243726  0.98531526  0.74037207  1  0.518175  0  0.042555  0.015592  0  3.943994  0
C  C48  1  0.69495886  0.69435887  0.19448490  1  0.55434  0  0.04023  0.016793  0  3.960949  0
C  C49  1  0.25188150  0.37825172  0.16742693  1  0.011711  0  -0.067856  -0.121338  0  3.917276  0
C  C50  1  0.90420254  0.24939446  0.10565104  1  0.016838  0  -0.062913  -0.11594  0  3.885247  0
C  C51  1  0.20802500  0.25006567  0.09846863  1  0.007269  0  -0.011536  -0.054169  0  3.946181  0
C  C52  1  0.30610663  0.88256492  0.53469900  1  0.084953  0  -0.009034  -0.048609  0  3.944819  0
C  C53  1  0.30504278  0.30564144  0.80551524  1  0.554556  0  0.040207  0.016749  0  3.960873  0
C  C54  1  0.88256320  0.30610721  0.03469804  1  0.084694  0  -0.009007  -0.048648  0  3.944863  0
C  C55  1  0.76985645  0.16535581  0.57928153  1  1.603982  0  0.202626  0.58136  0  4.243948  0
C  C56  1  0.24939527  0.90420317  0.60565283  1  0.01645  0  -0.062833  -0.115892  0  3.885229  0
C  C57  1  0.74993324  0.79197013  0.40153277  1  0.007342  0  -0.011566  -0.054109  0  3.946014  0
C  C58  1  0.40499341  0.30091765  0.77221947  1  0.007006  0  0.014641  0.097332  0  4.060573  0
C  C59  1  0.11743557  0.69389606  0.96530080  1  0.084692  0  -0.009032  -0.048571  0  3.944793  0
C  C60  1  0.69389502  0.11743538  0.46530180  1  0.084698  0  -0.009063  -0.048648  0  3.944818  0
C  C61  1  0.21004490  0.14926999  0.48360048  1  1.582291  0  0.205287  0.578744  0  4.217636  0
C  C62  1  0.15542840  0.21513933  0.63749201  1  0.472934  0  0.048713  0.072323  0  3.895341  0
C  C63  1  0.85072647  0.78995148  0.01639918  1  1.582397  0  0.205243  0.578664  0  4.217698  0
C  C64  1  0.62174794  0.74811504  0.33257379  1  0.011643  0  -0.067886  -0.121424  0  3.917195  0
C  C65  1  0.23014423  0.83464518  0.42071920  1  1.604023  0  0.202656  0.581445  0  4.243965  0
C  C66  1  0.75060637  0.09579714  0.39434731  1  0.016724  0  -0.062849  -0.115915  0  3.885209  0
C  C67  1  0.79196995  0.74993477  0.90153381  1  0.007054  0  -0.011577  -0.054087  0  3.945941  0
C  C68  1  0.67017769  0.04153396  0.29004010  1  0.05475  0  0.015253  0.098642  0  4.066315  0
C  C69  1  0.01468657  0.53756476  0.75962785  1  0.518157  0  0.042526  0.015527  0  3.944046  0
C  C70  1  0.78995292  0.85072749  0.51639862  1  1.582287  0  0.205273  0.578677  0  4.21769  0
C  C71  1  0.98531699  0.46243511  0.24037068  1  0.518157  0  0.042544  0.015584  0  3.944114  0
C  C72  1  0.08725612  0.56064205  0.92914231  1  0.45418  0  0.050427  0.069382  0  3.90108  0
C  C73  1  0.83464347  0.23014397  0.92071814  1  1.603968  0  0.202636  0.581465  0  4.244028  0
C  C74  1  0.04153459  0.67017697  0.79003948  1  0.054747  0  0.01526  0.098654  0  4.066307  0
C  C75  1  0.69435926  0.69495986  0.69448467  1  0.554602  0  0.040182  0.016702  0  3.960944  0
C  C76  1  0.43935886  0.91274608  0.57085671  1  0.454138  0  0.050393  0.06939  0  3.901084  0
C  C77  1  0.37825180  0.25188200  0.66742437  1  0.011674  0  -0.067887  -0.121396  0  3.917211  0
C  C78  1  0.30564238  0.30504229  0.30551793  1  0.554249  0  0.040236  0.01683  0  3.960822  0
C  C79  1  0.74811536  0.62174921  0.83257480  1  0.011637  0  -0.067884  -0.121438  0  3.917226  0
N  N80  1  0.48510166  0.03878423  0.32893856  1  -1.227271  0  -0.327066  -0.213723  0  3.541232  0
N  N81  1  0.96121699  0.51489922  0.17106108  1  -1.227274  0  -0.327087  -0.21377  0  3.541251  0
N  N82  1  0.81752745  0.73672601  0.26162654  1  -1.236795  0  -0.324739  -0.232894  0  3.523693  0
N  N83  1  0.26327378  0.18247160  0.23837398  1  -1.236804  0  -0.324677  -0.232828  0  3.523407  0
N  N84  1  0.73672882  0.81752895  0.76162846  1  -1.236749  0  -0.324681  -0.232813  0  3.52349  0
N  N85  1  0.51489999  0.96121700  0.67106116  1  -1.227279  0  -0.327072  -0.213782  0  3.541237  0
N  N86  1  0.18247228  0.26327196  0.73837252  1  -1.236789  0  -0.324703  -0.232867  0  3.523443  0
N  N87  1  0.03878465  0.48510201  0.82893863  1  -1.227257  0  -0.327067  -0.213718  0  3.541255  0
Cl  Cl88  1  0.73117384  0.00316795  0.19701749  1  -0.185218  0  0.0149  -0.049519  0  1.607763  0
Cl  Cl89  1  0.64576509  0.43898528  0.63776633  1  -0.198091  0  0.012943  -0.052266  0  1.524884  0
Cl  Cl90  1  0.00316613  0.73117190  0.69701604  1  -0.185221  0  0.014905  -0.049513  0  1.607764  0
Cl  Cl91  1  0.26882876  0.99683445  0.80298342  1  -0.184998  0  0.014891  -0.049526  0  1.607746  0
Cl  Cl92  1  0.35423464  0.56101639  0.36223434  1  -0.198047  0  0.012932  -0.052275  0  1.524887  0
Cl  Cl93  1  0.56101668  0.35423528  0.86223377  1  -0.198087  0  0.012932  -0.052278  0  1.524873  0
Cl  Cl94  1  0.99683552  0.26882656  0.30298098  1  -0.184967  0  0.014908  -0.049501  0  1.607756  0
Cl  Cl95  1  0.43898401  0.64576478  0.13776607  1  -0.198118  0  0.012942  -0.052275  0  1.524881  0
O  O96  1  0.71162702  0.13932142  0.63079064  1  -1.180675  0  -0.335833  -0.581371  0  2.293648  0
O  O97  1  0.89391019  0.90957681  0.07029010  1  -1.178077  0  -0.32021  -0.544539  0  2.186106  0
O  O98  1  0.88605242  0.22733648  0.61424389  1  -1.169235  0  -0.324083  -0.55386  0  2.261986  0
O  O99  1  0.90957672  0.89391368  0.57028771  1  -1.177997  0  -0.320233  -0.544556  0  2.18613  0
O  O100  1  0.28837176  0.86067630  0.36921076  1  -1.180883  0  -0.335866  -0.581437  0  2.293793  0
O  O101  1  0.70087367  0.85356594  0.54893262  1  -1.171004  0  -0.331294  -0.568945  0  2.247092  0
O  O102  1  0.04978176  0.95021889  0.24999942  1  -1.270827  0  -0.584481  -0.791112  0  2.279982  0
O  O103  1  0.11394636  0.77266217  0.38575642  1  -1.169255  0  -0.324106  -0.553923  0  2.261941  0
O  O104  1  0.13932276  0.71162750  0.13078897  1  -1.180694  0  -0.335861  -0.581413  0  2.293747  0
O  O105  1  0.14643013  0.29912026  0.95106934  1  -1.170795  0  -0.331213  -0.568869  0  2.247079  0
O  O106  1  0.09041919  0.10608886  0.42971021  1  -1.178071  0  -0.320271  -0.544568  0  2.186056  0
O  O107  1  0.10608668  0.09041673  0.92971107  1  -1.178153  0  -0.320265  -0.544571  0  2.186155  0
O  O108  1  0.22733819  0.88605283  0.11424305  1  -1.169254  0  -0.324076  -0.553894  0  2.262012  0
O  O109  1  0.77266059  0.11394675  0.88575551  1  -1.169249  0  -0.324084  -0.553909  0  2.261999  0
O  O110  1  0.85356579  0.70087211  0.04893129  1  -1.171048  0  -0.331266  -0.568935  0  2.247218  0
O  O111  1  0.29912320  0.14643129  0.45106817  1  -1.17096  0  -0.331225  -0.568902  0  2.247153  0
O  O112  1  0.95022085  0.04978073  0.75000079  1  -1.270818  0  -0.584514  -0.791198  0  2.279969  0
O  O113  1  0.86067506  0.28837183  0.86920928  1  -1.180842  0  -0.335874  -0.581443  0  2.29374  0
