# generated using pymatgen
data_Al2H17C31O14
_symmetry_space_group_name_H-M   'P 1'
_cell_length_a   6.67670084
_cell_length_b   19.62864768
_cell_length_c   24.66080922
_cell_angle_alpha   89.63553186
_cell_angle_beta   91.49065513
_cell_angle_gamma   87.18496142
_symmetry_Int_Tables_number   1
_chemical_formula_structural   Al2H17C31O14
_chemical_formula_sum   'Al4 H34 C62 O28'
_cell_volume   3226.82582575
_cell_formula_units_Z   2
loop_
 _symmetry_equiv_pos_site_id
 _symmetry_equiv_pos_as_xyz
  1  'x, y, z'
loop_
 _atom_site_type_symbol
 _atom_site_label
 _atom_site_symmetry_multiplicity
 _atom_site_fract_x
 _atom_site_fract_y
 _atom_site_fract_z
 _atom_site_occupancy
 _atom_site_pbe_bader_charge
 _atom_site_pbe_bader_spin_density
 _atom_site_pbe_cm5_charge
 _atom_site_pbe_ddec_charge
 _atom_site_pbe_ddec_spin_density
 _atom_site_pbe_ddec_sum_bond_order
 _atom_site_pbe_magmom
Al  Al0  1  0.24186033  0.24984437  0.74977535  1  2.504246  0  0.404941  1.645169  0  2.583238  0
Al  Al1  1  0.75665702  0.74946921  0.25078100  1  2.501238  0  0.403549  1.64225  0  2.58245  0
Al  Al2  1  0.74247699  0.25064646  0.75166716  1  2.498381  0  0.406572  1.642849  0  2.578548  0
Al  Al3  1  0.25710376  0.74765680  0.24927109  1  2.500517  0  0.404297  1.639647  0  2.580715  0
H  H4  1  0.79716242  0.40328232  0.47262960  1  0.083681  0  0.108573  0.106617  0  0.979533  0
H  H5  1  0.20132861  0.59557344  0.52779408  1  0.10253  0  0.108348  0.106389  0  0.977163  0
H  H6  1  0.16965728  0.43760516  0.42751953  1  0.120316  0  0.113044  0.115333  0  0.970477  0
H  H7  1  0.82889005  0.56134235  0.57296643  1  0.10895  0  0.113578  0.116671  0  0.969406  0
H  H8  1  0.71449990  0.49267937  0.93625796  1  0.131136  0  0.121091  0.129782  0  0.981604  0
H  H9  1  0.29272961  0.50437223  0.06581026  1  0.098124  0  0.113936  0.112906  0  0.992302  0
H  H10  1  0.76496662  0.98734049  0.43239239  1  0.103707  0  0.115868  0.119441  0  0.993136  0
H  H11  1  0.23253751  0.01113398  0.56822699  1  0.087533  0  0.116295  0.120029  0  0.9914  0
H  H12  1  0.82009074  0.04884735  0.97529477  1  0.148925  0  0.117732  0.140999  0  1.007291  0
H  H13  1  0.17971027  0.94633446  0.02366663  1  0.118771  0  0.116244  0.142226  0  1.008172  0
H  H14  1  0.59217695  0.60678477  0.46589680  1  0.078075  0  0.106301  0.039267  0  0.945352  0
H  H15  1  0.40455280  0.39202142  0.53616054  1  0.051901  0  0.107381  0.040881  0  0.943814  0
H  H16  1  0.65457542  0.62430058  0.04583513  1  0.077896  0  0.110839  0.054352  0  0.958419  0
H  H17  1  0.48071766  0.42552356  0.02356383  1  0.042731  0  0.094351  0.021243  0  0.975906  0
H  H18  1  0.95276589  0.06614554  0.47083740  1  0.046236  0  0.096594  0.026425  0  0.972211  0
H  H19  1  0.04433414  0.93241423  0.52957260  1  0.037452  0  0.09717  0.027874  0  0.970046  0
H  H20  1  0.00923328  0.97056210  0.13048984  1  0.066464  0  0.10909  0.081981  0  0.961824  0
H  H21  1  0.75659128  0.00339149  0.13446730  1  0.052842  0  0.095311  0.055912  0  0.992829  0
H  H22  1  0.08924692  0.07099300  0.07250224  1  0.028229  0  0.090879  0.088631  0  0.986167  0
H  H23  1  0.84082205  0.10508388  0.07818546  1  0.039949  0  0.090517  0.084473  0  0.980104  0
H  H24  1  0.89294036  0.11350711  0.18020961  1  0.0244  0  0.083237  0.105535  0  1.006723  0
H  H25  1  0.07052203  0.16028658  0.14508442  1  0.029464  0  0.088721  0.116222  0  1.000406  0
H  H26  1  0.14276522  0.07948437  0.17407721  1  0.010186  0  0.084509  0.107599  0  1.006738  0
H  H27  1  0.17278409  0.93121071  0.89282442  1  0.016146  0  0.094663  0.054035  0  0.972055  0
H  H28  1  0.27205545  0.00364166  0.86013887  1  0.052313  0  0.094182  0.054555  0  1.00486  0
H  H29  1  0.82786851  0.98703828  0.88335764  1  0.028316  0  0.088709  0.082985  0  0.998609  0
H  H30  1  0.92617384  0.05791140  0.85052081  1  0.058106  0  0.098533  0.102942  0  0.969937  0
H  H31  1  0.04455353  0.98096284  0.77422717  1  0.008258  0  0.083483  0.106785  0  1.005458  0
H  H32  1  0.78242086  0.97714786  0.78293868  1  0.028123  0  0.087082  0.114051  0  1.001312  0
H  H33  1  0.94745050  0.90977356  0.80780382  1  -0.017425  0  0.083135  0.104558  0  1.009491  0
H  H34  1  0.47768536  0.33802431  0.73719137  1  0.625804  0  0.362341  0.445043  0  0.831665  0
H  H35  1  0.52353191  0.66498785  0.27347217  1  0.633005  0  0.35677  0.438402  0  0.844374  0
H  H36  1  0.99762218  0.16760443  0.72618186  1  0.623045  0  0.355968  0.436289  0  0.846651  0
H  H37  1  0.00293343  0.83142756  0.27389076  1  0.62249  0  0.356219  0.436903  0  0.845135  0
C  C38  1  0.49734062  0.17083375  0.67507541  1  1.69059  0  0.27723  0.710879  0  4.165798  0
C  C39  1  0.50314476  0.82836157  0.32524028  1  1.67294  0  0.276341  0.709397  0  4.168612  0
C  C40  1  0.51091571  0.16886626  0.82378361  1  1.691127  0  0.279025  0.716625  0  4.164253  0
C  C41  1  0.48465289  0.82964259  0.17712480  1  1.649617  0  0.275691  0.715219  0  4.169176  0
C  C42  1  0.99253364  0.32741923  0.82576046  1  1.682552  0  0.284648  0.717152  0  4.153937  0
C  C43  1  0.00353536  0.67164780  0.17494485  1  1.694141  0  0.281307  0.715065  0  4.162335  0
C  C44  1  0.97039608  0.33279987  0.67644057  1  1.66352  0  0.274818  0.720082  0  4.161947  0
C  C45  1  0.03003045  0.66601024  0.32416129  1  1.671357  0  0.27533  0.723697  0  4.157149  0
C  C46  1  0.09123247  0.46407909  0.46013597  1  -0.023264  0  -0.054683  -0.078517  0  3.592843  0
C  C47  1  0.90706861  0.53477084  0.54036598  1  -0.010319  0  -0.054319  -0.079174  0  3.594091  0
C  C48  1  0.88753362  0.44583119  0.48467146  1  -0.000676  0  -0.06532  -0.096277  0  3.636111  0
C  C49  1  0.11076809  0.55303610  0.51580406  1  -0.039991  0  -0.06535  -0.095399  0  3.633311  0
C  C50  1  0.96275067  0.37644786  0.62915755  1  -0.039995  0  -0.036857  -0.185768  0  3.950273  0
C  C51  1  0.03505003  0.62227488  0.37126978  1  0.137106  0  -0.040167  -0.195286  0  3.955671  0
C  C52  1  0.18618977  0.47698851  0.51793805  1  -0.060732  0  -0.001867  -0.004333  0  3.681365  0
C  C53  1  0.81204050  0.52189093  0.48261861  1  0.000123  0  -0.001979  -0.003993  0  3.68257  0
C  C54  1  0.97713634  0.45664743  0.54368181  1  0.148025  0  0.024763  0.122217  0  3.760972  0
C  C55  1  0.02109635  0.54219434  0.45681663  1  0.115953  0  0.024234  0.119706  0  3.760617  0
C  C56  1  0.96317589  0.41341632  0.58933027  1  -0.220409  0  -0.025252  -0.034328  0  4.078399  0
C  C57  1  0.03465301  0.58533881  0.41112016  1  -0.387513  0  -0.021623  -0.025176  0  4.074458  0
C  C58  1  0.84224717  0.49474467  0.96453346  1  0.012135  0  -0.052315  -0.116589  0  3.865795  0
C  C59  1  0.16539773  0.50150939  0.03746395  1  0.001268  0  -0.057583  -0.120124  0  3.911575  0
C  C60  1  0.01292615  0.45135771  0.95715184  1  0.09771  0  0.028658  0.126584  0  4.028301  0
C  C61  1  0.99530448  0.54519239  0.04467648  1  0.118863  0  0.017492  0.110228  0  4.074743  0
C  C62  1  0.17729295  0.45542112  0.99484346  1  0.002749  0  0.002877  -0.001435  0  3.928537  0
C  C63  1  0.83144235  0.54121376  0.00712414  1  -0.071051  0  -0.005082  -0.01626  0  3.955746  0
C  C64  1  0.01403783  0.40662949  0.91246154  1  -0.432228  0  -0.009386  -0.016418  0  4.060264  0
C  C65  1  0.99300897  0.59065154  0.08896737  1  -0.485196  0  -0.021547  -0.046206  0  4.102197  0
C  C66  1  0.00224551  0.62781947  0.12822859  1  0.195066  0  -0.021289  -0.163909  0  3.919255  0
C  C67  1  0.99640089  0.37099903  0.87255157  1  0.24983  0  -0.012121  -0.149368  0  3.881664  0
C  C68  1  0.64706104  0.99289583  0.46211592  1  0.034495  0  -0.058482  -0.13467  0  3.904935  0
C  C69  1  0.35037260  0.00563781  0.53846841  1  0.003989  0  -0.058491  -0.136288  0  3.902589  0
C  C70  1  0.47989358  0.95243162  0.45650127  1  0.043927  0  0.021964  0.1254  0  4.046075  0
C  C71  1  0.51738875  0.04619798  0.54404953  1  0.053402  0  0.023486  0.130381  0  4.042807  0
C  C72  1  0.32900433  0.95962420  0.49603757  1  -0.025756  0  -0.005088  -0.013873  0  3.959953  0
C  C73  1  0.66827106  0.03900701  0.50449089  1  0.001552  0  -0.006175  -0.018276  0  3.961807  0
C  C74  1  0.47255858  0.90753631  0.41207648  1  -0.412333  0  -0.017977  -0.027951  0  4.074096  0
C  C75  1  0.52478813  0.09127339  0.58833754  1  -0.323471  0  -0.020164  -0.03294  0  4.077204  0
C  C76  1  0.50754733  0.12736854  0.62809880  1  0.127418  0  -0.014153  -0.145159  0  3.88669  0
C  C77  1  0.49094388  0.87170398  0.37219332  1  0.213448  0  -0.016335  -0.148001  0  3.888963  0
C  C78  1  0.67626899  0.98474683  0.03155002  1  0.500562  0  0.089749  0.208695  0  4.042659  0
C  C79  1  0.32436720  0.00994269  0.96732480  1  0.522885  0  0.089425  0.202625  0  4.057701  0
C  C80  1  0.49388792  0.95595919  0.04617605  1  0.119336  0  -0.002835  0.039885  0  4.10865  0
C  C81  1  0.50461358  0.04103150  0.95393980  1  0.117001  0  -0.001575  0.03793  0  4.112274  0
C  C82  1  0.31990828  0.96882181  0.01329011  1  0.004182  0  -0.083444  -0.216551  0  3.936347  0
C  C83  1  0.67943869  0.02722393  0.98630775  1  -0.050186  0  -0.08141  -0.215046  0  3.931343  0
C  C84  1  0.48787785  0.91280960  0.09201626  1  -0.385262  0  -0.013587  0.00289  0  4.09739  0
C  C85  1  0.50881038  0.08577437  0.90902810  1  -0.522339  0  -0.010444  -0.000378  0  4.093566  0
C  C86  1  0.51297301  0.12436211  0.87025487  1  0.230406  0  -0.025537  -0.185817  0  3.917609  0
C  C87  1  0.48211546  0.87513972  0.13135296  1  0.173694  0  -0.035711  -0.201891  0  3.940687  0
C  C88  1  0.61909895  0.55060788  0.46034424  1  0.920018  0  0.10886  0.282366  0  3.976074  0
C  C89  1  0.37939001  0.44847404  0.54019438  1  1.008154  0  0.110016  0.283419  0  3.969973  0
C  C90  1  0.64785298  0.58596114  0.01282235  1  0.951641  0  0.104816  0.268416  0  3.948803  0
C  C91  1  0.36790223  0.41385134  0.99092928  1  0.952507  0  0.101059  0.266919  0  3.987209  0
C  C92  1  0.85397931  0.07726742  0.50607693  1  0.946762  0  0.096824  0.257619  0  4.00673  0
C  C93  1  0.14311451  0.92145398  0.49431488  1  0.958372  0  0.096671  0.256568  0  4.002375  0
C  C94  1  0.89145304  0.00262608  0.10950644  1  0.394658  0  -0.062751  0.034124  0  3.882761  0
C  C95  1  0.96079099  0.07428947  0.09961264  1  -0.030974  0  -0.171948  -0.139543  0  3.983883  0
C  C96  1  0.01985174  0.10879095  0.15267388  1  -0.058007  0  -0.242071  -0.348408  0  3.990062  0
C  C97  1  0.14853752  0.98650786  0.88488473  1  0.399736  0  -0.065044  0.042208  0  3.885253  0
C  C98  1  0.94729014  0.00244494  0.85664097  1  -0.006889  0  -0.168208  -0.132966  0  3.967748  0
C  C99  1  0.92999803  0.96547493  0.80246304  1  -0.014946  0  -0.242223  -0.346787  0  3.984677  0
O  O100  1  0.67894197  0.18884939  0.80829069  1  -1.238631  0  -0.224728  -0.577123  0  2.282916  0
O  O101  1  0.31855412  0.80591242  0.19050681  1  -1.238303  0  -0.227001  -0.577485  0  2.282881  0
O  O102  1  0.32291038  0.18961806  0.69046729  1  -1.223999  0  -0.226342  -0.580618  0  2.275146  0
O  O103  1  0.67818334  0.80785490  0.31137632  1  -1.223334  0  -0.227389  -0.581341  0  2.272906  0
O  O104  1  0.14534500  0.31701062  0.69609607  1  -1.236672  0  -0.232607  -0.597094  0  2.285958  0
O  O105  1  0.85712882  0.68010037  0.30240722  1  -1.242474  0  -0.233967  -0.600908  0  2.283872  0
O  O106  1  0.33942248  0.18324345  0.80157220  1  -1.238749  0  -0.227321  -0.582867  0  2.291413  0
O  O107  1  0.65469504  0.81732975  0.20088463  1  -1.237135  0  -0.228825  -0.585391  0  2.293399  0
O  O108  1  0.16240920  0.30806774  0.80769839  1  -1.235291  0  -0.217936  -0.566837  0  2.286857  0
O  O109  1  0.83284218  0.69416173  0.19040832  1  -1.227655  0  -0.220596  -0.567041  0  2.285832  0
O  O110  1  0.66518836  0.18522361  0.69658164  1  -1.223221  0  -0.22527  -0.582128  0  2.287252  0
O  O111  1  0.33647153  0.81558768  0.30213211  1  -1.226664  0  -0.227769  -0.587359  0  2.289388  0
O  O112  1  0.48591663  0.29094883  0.74943914  1  -1.423692  0  -0.445164  -0.99599  0  2.192257  0
O  O113  1  0.51402944  0.70682342  0.25216451  1  -1.432816  0  -0.446571  -0.991669  0  2.178963  0
O  O114  1  0.82143489  0.31291074  0.80638049  1  -1.228095  0  -0.222302  -0.576552  0  2.283364  0
O  O115  1  0.17361591  0.68288497  0.19663041  1  -1.223483  0  -0.224208  -0.574675  0  2.279909  0
O  O116  1  0.80366935  0.31458202  0.69424997  1  -1.238624  0  -0.232431  -0.591352  0  2.27744  0
O  O117  1  0.19750742  0.68615083  0.30825283  1  -1.23864  0  -0.231491  -0.590908  0  2.278191  0
O  O118  1  0.99723026  0.20872317  0.74780325  1  -1.422996  0  -0.446285  -0.993311  0  2.184116  0
O  O119  1  0.00225481  0.78994468  0.25271565  1  -1.423269  0  -0.445739  -0.990458  0  2.179988  0
O  O120  1  0.49607538  0.51724931  0.43574997  1  -1.092879  0  -0.253633  -0.358378  0  2.162659  0
O  O121  1  0.50465309  0.48247940  0.56325170  1  -1.086495  0  -0.250369  -0.355645  0  2.169247  0
O  O122  1  0.49639952  0.58162018  0.98404651  1  -1.063756  0  -0.256465  -0.349554  0  2.123915  0
O  O123  1  0.40603265  0.37112336  0.95649872  1  -1.032393  0  -0.237816  -0.313948  0  2.11175  0
O  O124  1  0.90334667  0.11674253  0.54152992  1  -1.041981  0  -0.242064  -0.318964  0  2.118134  0
O  O125  1  0.09368730  0.88222672  0.45867357  1  -1.049912  0  -0.242906  -0.320743  0  2.117663  0
O  O126  1  0.85206780  0.96691583  0.05932517  1  -1.079849  0  -0.200144  -0.237914  0  2.524804  0
O  O127  1  0.15130402  0.02151406  0.93665920  1  -1.072338  0  -0.197601  -0.234193  0  2.514263  0
