# generated using pymatgen
data_CuH32C40N16(ClO)2
_symmetry_space_group_name_H-M   'P 1'
_cell_length_a   7.96641561
_cell_length_b   7.89167357
_cell_length_c   16.82727741
_cell_angle_alpha   79.46422815
_cell_angle_beta   79.39000779
_cell_angle_gamma   68.99375499
_symmetry_Int_Tables_number   1
_chemical_formula_structural   CuH32C40N16(ClO)2
_chemical_formula_sum   'Cu1 H32 C40 N16 Cl2 O2'
_cell_volume   962.80895884
_cell_formula_units_Z   1
loop_
 _symmetry_equiv_pos_site_id
 _symmetry_equiv_pos_as_xyz
  1  'x, y, z'
loop_
 _atom_site_type_symbol
 _atom_site_label
 _atom_site_symmetry_multiplicity
 _atom_site_fract_x
 _atom_site_fract_y
 _atom_site_fract_z
 _atom_site_occupancy
 _atom_site_hle17_ddec_charge
 _atom_site_hle17_ddec_spin_density
 _atom_site_hle17_ddec_sum_bond_order
 _atom_site_hle17_magmom
 _atom_site_hse06_10hf_ddec_charge
 _atom_site_hse06_10hf_ddec_spin_density
 _atom_site_hse06_10hf_ddec_sum_bond_order
 _atom_site_hse06_10hf_magmom
 _atom_site_hse06_ddec_charge
 _atom_site_hse06_ddec_spin_density
 _atom_site_hse06_ddec_sum_bond_order
 _atom_site_hse06_magmom
 _atom_site_pbe_cm5_charge
 _atom_site_pbe_ddec_charge
 _atom_site_pbe_ddec_spin_density
 _atom_site_pbe_ddec_sum_bond_order
 _atom_site_pbe_magmom
Cu  Cu0  1  0.00000391  0.99999538  0.00000105  1  0.792029  0.707253  1.917289  0.542  0.761273  0.789677  2.288132  0.649  0.840667  0.847917  2.235197  0.726  0.73148  0.710628  0.746918  2.325458  0.596
H  H1  1  0.49073671  0.33591894  0.42678970  1  0.105083  -9e-06  0.951095  0.0  0.114415  -1e-06  1.013127  0.0  0.117365  -1e-06  1.011225  0.0  0.108188  0.112311  -1e-06  1.014477  0.0
H  H2  1  0.50927639  0.66408540  0.57320871  1  0.105117  -5e-06  0.951161  0.0  0.114451  -1e-06  1.013152  0.0  0.117409  -1e-06  1.011251  0.0  0.108185  0.112342  -1e-06  1.014502  0.0
H  H3  1  0.58989360  0.23354959  0.29000838  1  0.097195  0.0  0.974394  0.0  0.1032  1.5e-05  1.042779  0.0  0.106392  1.1e-05  1.041328  0.0  0.099852  0.100892  2.2e-05  1.043935  0.0
H  H4  1  0.41011629  0.76644922  0.70999087  1  0.097219  -2e-06  0.974356  0.0  0.103184  1.5e-05  1.042776  0.0  0.106375  1.1e-05  1.041324  0.0  0.099861  0.100872  2.2e-05  1.043931  0.0
H  H5  1  0.08732907  0.60888504  0.21102298  1  0.087751  -0.000125  0.973756  0.0  0.097569  -8.5e-05  1.037516  0.0  0.099508  -7.6e-05  1.03799  0.0  0.09854  0.096242  -9.3e-05  1.037152  0.0
H  H6  1  0.91267748  0.39111235  0.78897671  1  0.08773  -0.000129  0.973795  0.0  0.097551  -8.5e-05  1.037555  0.0  0.099484  -7.6e-05  1.038032  0.0  0.09853  0.096223  -9.3e-05  1.037195  0.0
H  H7  1  0.98716879  0.70915680  0.34723824  1  0.102248  2.5e-05  0.954979  0.0  0.106893  2.7e-05  1.025363  0.0  0.110903  1.7e-05  1.02208  0.0  0.10266  0.104027  4e-05  1.027737  0.0
H  H8  1  0.01282480  0.29082261  0.65276500  1  0.102312  2.5e-05  0.95488  0.0  0.106955  2.7e-05  1.025257  0.0  0.110963  1.7e-05  1.021975  0.0  0.102713  0.104085  4e-05  1.027628  0.0
H  H9  1  0.55503087  0.28658403  0.14687604  1  0.099425  -1.8e-05  0.917063  0.0  0.113024  6e-06  0.979044  0.0  0.114231  -2.5e-05  0.978425  0.0  0.115466  0.112147  3.9e-05  0.979516  0.0
H  H10  1  0.44498475  0.71342071  0.85312805  1  0.099414  -1.8e-05  0.917188  0.0  0.113014  6e-06  0.979169  0.0  0.114218  -2.5e-05  0.978559  0.0  0.115517  0.112147  3.9e-05  0.979631  0.0
H  H11  1  0.33387721  0.28353634  0.13979989  1  0.104871  -7e-05  0.961355  0.0  0.116336  -3.3e-05  1.02939  0.0  0.118014  -2.8e-05  1.027676  0.0  0.10306  0.114985  -3.4e-05  1.030686  0.0
H  H12  1  0.66615269  0.71646005  0.86019896  1  0.104918  -7.5e-05  0.961277  0.0  0.116336  -3.3e-05  1.029359  0.0  0.118018  -2.8e-05  1.027641  0.0  0.103018  0.114981  -3.4e-05  1.030663  0.0
H  H13  1  0.13176207  0.54685474  0.05144065  1  0.120455  -0.000238  0.960939  0.0  0.123192  -3.9e-05  1.032654  0.0  0.126253  -3.2e-05  1.027648  0.0  0.124567  0.120745  -4.7e-05  1.036286  0.0
H  H14  1  0.86826657  0.45314141  0.94855477  1  0.120153  -0.000239  0.961034  0.0  0.123097  -3.8e-05  1.032578  0.0  0.126163  -3.2e-05  1.027568  0.0  0.1245  0.120641  -4.7e-05  1.036209  0.0
H  H15  1  0.41037044  0.91952483  0.03443570  1  0.08974  -0.000172  0.954378  0.0  0.097099  4e-06  1.02019  0.0  0.098756  -1e-05  1.017204  0.0  0.123738  0.095619  1.6e-05  1.022606  0.0
H  H16  1  0.58963104  0.08048433  0.96557697  1  0.089735  -0.000171  0.954044  0.0  0.097088  5e-06  1.019892  0.0  0.098756  -1e-05  1.016891  0.0  0.123722  0.095592  1.6e-05  1.022321  0.0
H  H17  1  0.72364168  0.99715561  0.50328317  1  0.103183  -4e-06  0.93129  0.0  0.116157  -0.0  0.986099  0.0  0.119356  -1e-06  0.98431  0.0  0.10686  0.113858  0.0  0.987472  0.0
H  H18  1  0.27631574  0.00283958  0.49671765  1  0.103214  -3e-06  0.931194  0.0  0.116209  -0.0  0.985995  0.0  0.119407  -1e-06  0.984207  0.0  0.106922  0.113908  0.0  0.987366  0.0
H  H19  1  0.46129933  0.22222827  0.57653601  1  0.100066  -4.9e-05  0.978977  0.0  0.102436  -2e-06  1.053668  0.0  0.106436  -2e-06  1.050832  0.0  0.099645  0.099561  -3e-06  1.05577  0.0
H  H20  1  0.53867702  0.77777160  0.42346798  1  0.100116  -5.6e-05  0.979118  0.0  0.102469  -2e-06  1.053788  0.0  0.106473  -2e-06  1.05096  0.0  0.099694  0.099603  -3e-06  1.055878  0.0
H  H21  1  0.71269146  0.02922765  0.79717381  1  0.094386  -2.9e-05  0.966296  0.0  0.101475  -5e-06  1.034858  0.0  0.103822  1e-06  1.034435  0.0  0.093924  0.099682  -1.2e-05  1.035355  0.0
H  H22  1  0.28732297  0.97078741  0.20281867  1  0.094362  -3.7e-05  0.96619  0.0  0.101485  -5e-06  1.034738  0.0  0.103814  1e-06  1.034331  0.0  0.093942  0.099687  -1.2e-05  1.035237  0.0
H  H23  1  0.97268606  0.80650480  0.72436855  1  0.099544  -1.8e-05  0.947973  0.0  0.109554  3e-06  1.009415  0.0  0.112647  5e-06  1.007142  0.0  0.105706  0.107214  0.0  1.011279  0.0
H  H24  1  0.02731552  0.19351378  0.27561762  1  0.099418  -1.6e-05  0.947921  0.0  0.10937  3e-06  1.009473  0.0  0.112507  5e-06  1.007144  0.0  0.105651  0.107028  0.0  1.011338  0.0
H  H25  1  0.44680517  0.33787601  0.77669047  1  0.092211  1.5e-05  0.958768  0.0  0.10062  7.4e-05  1.031015  0.0  0.10179  4.7e-05  1.030919  0.0  0.113713  0.099738  0.000105  1.031117  0.0
H  H26  1  0.55318753  0.66211724  0.22331327  1  0.092279  1.5e-05  0.958711  0.0  0.100652  7.4e-05  1.030981  0.0  0.101824  4.7e-05  1.030886  0.0  0.11371  0.099762  0.000105  1.031093  0.0
H  H27  1  0.32355280  0.37604671  0.69291417  1  0.11015  4.3e-05  0.934408  0.0  0.117913  2.6e-05  1.004758  0.0  0.120059  1.2e-05  1.002358  0.0  0.118123  0.116383  3.9e-05  1.00641  0.0
H  H28  1  0.67643866  0.62395773  0.30709215  1  0.110132  4.4e-05  0.934437  0.0  0.117898  2.6e-05  1.004752  0.0  0.120046  1.2e-05  1.002351  0.0  0.118101  0.116361  3.9e-05  1.006409  0.0
H  H29  1  0.05796021  0.91006130  0.81915402  1  0.100402  -9.1e-05  0.972083  0.0  0.107203  5.3e-05  1.036198  0.0  0.109298  3.4e-05  1.033063  0.0  0.121998  0.105516  6.9e-05  1.038538  0.0
H  H30  1  0.94204233  0.08992902  0.18084436  1  0.100359  -8.5e-05  0.972176  0.0  0.107204  5.3e-05  1.03624  0.0  0.109296  3.4e-05  1.033111  0.0  0.121988  0.105521  6.9e-05  1.038576  0.0
H  H31  1  0.26334746  0.25078415  0.90810426  1  0.121557  -0.000117  0.95834  0.0  0.122273  6.9e-05  1.033642  0.0  0.12546  5e-05  1.029105  0.0  0.134227  0.119846  8.4e-05  1.036764  0.0
H  H32  1  0.73664966  0.74920361  0.09189903  1  0.121619  -0.000118  0.95829  0.0  0.122278  7e-05  1.033644  0.0  0.125465  5e-05  1.029108  0.0  0.134256  0.119855  8.4e-05  1.036766  0.0
C  C33  1  0.17953883  0.58946783  0.47595747  1  0.353297  0.000303  3.722246  0.0  0.315179  2.3e-05  4.010262  0.0  0.332881  7e-06  4.018657  0.0  0.218297  0.303397  6e-05  4.004465  0.0
C  C34  1  0.82044770  0.41053202  0.52404321  1  0.353151  0.000311  3.722472  0.0  0.315078  2.1e-05  4.010433  0.0  0.332794  9e-06  4.018805  0.0  0.218228  0.3033  6e-05  4.00464  0.0
C  C35  1  0.23218873  0.52742678  0.39643214  1  -0.032416  0.000482  3.829942  0.0  -0.015727  8.9e-05  4.06915  0.0  -0.02061  6.3e-05  4.092152  0.0  -0.013473  -0.012677  0.000106  4.05362  0.0
C  C36  1  0.76782303  0.47256677  0.60357102  1  -0.032267  0.00052  3.830181  0.0  -0.015582  8.5e-05  4.069353  0.0  -0.020471  6.4e-05  4.092358  0.0  -0.01337  -0.01254  0.000106  4.053828  0.0
C  C37  1  0.40152659  0.39235943  0.37963177  1  -0.05508  7.8e-05  3.694144  0.0  -0.077327  -4.6e-05  3.940184  0.0  -0.076839  -6.2e-05  3.960034  0.0  -0.074444  -0.077382  -1.5e-05  3.926663  0.0
C  C38  1  0.59846808  0.60765029  0.62036958  1  -0.055141  1.5e-05  3.69403  0.0  -0.077385  -4.1e-05  3.940054  0.0  -0.076909  -6.2e-05  3.959918  0.0  -0.074465  -0.077437  -1.5e-05  3.926528  0.0
C  C39  1  0.45787717  0.33774307  0.30228483  1  -0.114367  0.000243  3.730547  0.0  -0.130224  0.000143  3.975272  0.0  -0.134731  0.000108  3.997466  0.0  -0.087156  -0.127271  0.000169  3.960307  0.0
C  C40  1  0.54213398  0.66225594  0.69771726  1  -0.114366  0.000296  3.73067  0.0  -0.130176  0.000144  3.975406  0.0  -0.134687  0.000106  3.9976  0.0  -0.087132  -0.127219  0.000169  3.960437  0.0
C  C41  1  0.34631812  0.41591192  0.24057891  1  0.086289  0.000487  3.722835  0.0  0.103665  -1.8e-05  3.96377  0.0  0.104264  -5.8e-05  3.988045  0.0  -0.004366  0.103376  4.8e-05  3.947292  0.0
C  C42  1  0.65368607  0.58409224  0.75941914  1  0.086299  0.000431  3.722872  0.0  0.103631  -2.2e-05  3.963851  0.0  0.104245  -5.3e-05  3.988103  0.0  -0.00442  0.103332  4.8e-05  3.94739  0.0
C  C43  1  0.17589918  0.54753003  0.25835862  1  -0.114554  0.000186  3.730661  0.0  -0.134035  4.8e-05  3.982755  0.0  -0.138552  3.3e-05  4.005934  0.0  -0.093172  -0.131035  5.6e-05  3.96704  0.0
C  C44  1  0.82411132  0.45246315  0.74163875  1  -0.114458  0.00024  3.730576  0.0  -0.13394  4.9e-05  3.982687  0.0  -0.138453  3.1e-05  4.005864  0.0  -0.093109  -0.130949  5.6e-05  3.966978  0.0
C  C45  1  0.11851097  0.60404548  0.33516207  1  -0.06772  -0.000107  3.728989  0.0  -0.096079  -5.3e-05  3.98813  0.0  -0.095799  -6.7e-05  4.008153  0.0  -0.08629  -0.096036  -3.1e-05  3.974543  0.0
C  C46  1  0.88148475  0.39594602  0.66483503  1  -0.06791  -0.000174  3.729585  0.0  -0.096259  -4.9e-05  3.988718  0.0  -0.095978  -6.7e-05  4.008742  0.0  -0.086414  -0.096203  -3.1e-05  3.975115  0.0
C  C47  1  0.40935086  0.36387398  0.15510839  1  -0.067393  0.000576  3.620302  0.001  -0.145395  0.000501  3.865594  0.001  -0.141631  0.000365  3.87433  0.001  -0.046145  -0.147702  0.000625  3.85979  0.001
C  C48  1  0.59066968  0.63612340  0.84488706  1  -0.067522  0.00058  3.620536  0.001  -0.145454  0.000501  3.865768  0.001  -0.141693  0.000365  3.874501  0.001  -0.046181  -0.147777  0.000625  3.859971  0.001
C  C49  1  0.22703738  0.61279201  0.05737422  1  0.182852  -0.003003  3.594867  -0.001  0.10656  2e-06  3.866716  0.001  0.124056  -0.001053  3.876818  0.0  0.163408  0.095342  0.000788  3.859927  0.002
C  C50  1  0.77297981  0.38720407  0.94262345  1  0.183353  -0.002994  3.5948  -0.001  0.106853  3e-06  3.866592  0.001  0.124339  -0.001052  3.876716  0.0  0.16349  0.095638  0.000789  3.859803  0.002
C  C51  1  0.37562412  0.79570546  0.04881284  1  0.20133  -0.004453  3.718024  -0.002  0.150744  -0.000908  4.013403  0.0  0.164408  -0.001639  4.026702  -0.001  0.142052  0.141868  -0.000342  4.004488  0.001
C  C52  1  0.62438901  0.20431024  0.95119039  1  0.201362  -0.004443  3.718229  -0.002  0.150747  -0.000907  4.013617  0.0  0.164405  -0.001637  4.026916  -0.001  0.141959  0.141886  -0.000341  4.004703  0.001
C  C53  1  0.01812673  0.75339192  0.56999197  1  0.344666  -0.000158  3.738168  0.0  0.308066  -3.9e-05  4.025085  0.0  0.325012  -5.3e-05  4.034377  0.0  0.217234  0.296792  -2.4e-05  4.01865  0.0
C  C54  1  0.98185030  0.24661305  0.43000491  1  0.345053  -0.000156  3.738241  0.0  0.30841  -3.9e-05  4.025203  0.0  0.325357  -5.4e-05  4.034497  0.0  0.217378  0.297119  -2.4e-05  4.018761  0.0
C  C55  1  0.86538067  0.88878036  0.60942284  1  -0.020882  0.001232  3.829195  0.001  -0.004417  0.000218  4.068696  0.0  -0.00815  0.000146  4.091462  0.0  -0.011536  -0.002065  0.000324  4.053304  0.0
C  C56  1  0.13459902  0.11122088  0.39058011  1  -0.020948  0.001255  3.82895  0.001  -0.004444  0.000219  4.068441  0.0  -0.008187  0.000145  4.091226  0.0  -0.011378  -0.002028  0.000325  4.052966  0.0
C  C57  1  0.72049932  0.00510533  0.56757884  1  -0.076015  -0.000705  3.717513  0.0  -0.104973  -0.000134  3.974372  0.0  -0.104892  -0.000147  3.993503  0.0  -0.08706  -0.104819  -0.000132  3.961283  0.0
C  C58  1  0.27947687  0.99488694  0.43241402  1  -0.076239  -0.000752  3.718047  0.0  -0.105257  -0.000134  3.974963  0.0  -0.105172  -0.000146  3.994095  0.0  -0.087242  -0.105117  -0.000132  3.961851  0.0
C  C59  1  0.57312701  0.12904446  0.60861303  1  -0.106382  0.000883  3.724654  0.001  -0.126391  0.00025  3.979567  0.0  -0.129936  0.00017  4.000074  0.0  -0.087146  -0.123954  0.000349  3.965568  0.0
C  C60  1  0.42684270  0.87096379  0.39139430  1  -0.106156  0.000917  3.725045  0.001  -0.126169  0.000249  3.979876  0.0  -0.129725  0.000171  4.000386  0.0  -0.087105  -0.123744  0.000349  3.96589  0.0
C  C61  1  0.56817092  0.13908360  0.69128004  1  0.090233  0.000855  3.723143  0.001  0.106094  -5.6e-05  3.965543  0.0  0.10651  -0.000135  3.989743  0.0  -0.005675  0.106032  6.6e-05  3.948813  0.0
C  C62  1  0.43181548  0.86092015  0.30871670  1  0.089898  0.000831  3.723776  0.001  0.105886  -5.3e-05  3.965968  0.0  0.106313  -0.00014  3.990157  0.0  -0.005681  0.105819  6.6e-05  3.949237  0.0
C  C63  1  0.71374982  0.02404119  0.73263808  1  -0.113154  0.000241  3.730748  0.0  -0.132765  0.000166  3.981617  0.0  -0.136812  0.000126  4.005134  0.0  -0.089899  -0.129987  0.000214  3.965611  0.0
C  C64  1  0.28624565  0.97596983  0.26736188  1  -0.113188  0.000282  3.731483  0.0  -0.132879  0.000165  3.982317  0.0  -0.136917  0.000127  4.005861  0.0  -0.09004  -0.130091  0.000214  3.966306  0.0
C  C65  1  0.86094604  0.89943173  0.69226906  1  -0.0672  0.000143  3.720615  0.0  -0.090298  -0.000105  3.966909  0.0  -0.091538  -0.000143  3.988722  0.0  -0.078538  -0.08917  -6e-05  3.951991  0.0
C  C66  1  0.13905657  0.10056901  0.30771877  1  -0.066937  0.000106  3.72051  0.0  -0.090004  -0.000105  3.966844  0.0  -0.091275  -0.000141  3.988634  0.0  -0.078517  -0.088899  -6e-05  3.951926  0.0
C  C67  1  0.40587565  0.27062096  0.73573767  1  -0.068633  0.000561  3.618471  0.001  -0.142984  0.000581  3.86044  0.001  -0.139477  0.000447  3.869705  0.001  -0.044511  -0.14496  0.000697  3.85391  0.001
C  C68  1  0.59411695  0.72938746  0.26426577  1  -0.068669  0.000558  3.618772  0.001  -0.142977  0.000582  3.860627  0.001  -0.139478  0.000447  3.869902  0.001  -0.044478  -0.144946  0.000697  3.854094  0.001
C  C69  1  0.13021868  0.00292724  0.82010733  1  0.185247  -0.005876  3.699062  -0.003  0.135442  -0.001922  3.990589  -0.001  0.148285  -0.002748  4.00324  -0.001  0.142548  0.127124  -0.001374  3.981927  0.0
C  C70  1  0.86977971  0.99706050  0.17989525  1  0.185257  -0.005906  3.699375  -0.003  0.135426  -0.001922  3.99085  -0.001  0.148266  -0.002747  4.003501  -0.001  0.142576  0.127104  -0.001373  3.9822  0.0
C  C71  1  0.23365375  0.17383466  0.86837541  1  0.159434  -0.005647  3.59987  -0.002  0.090803  -0.001214  3.860455  0.0  0.105961  -0.002325  3.873119  -0.001  0.161301  0.081376  -0.000467  3.851732  0.001
C  C72  1  0.76634705  0.82615720  0.13162595  1  0.159469  -0.005646  3.599899  -0.002  0.090891  -0.001214  3.860502  0.0  0.106048  -0.002326  3.873166  -0.001  0.161324  0.081465  -0.000467  3.851778  0.001
N  N73  1  0.26604563  0.53084681  0.54021782  1  -0.277226  0.000616  2.931533  0.001  -0.256431  5.6e-05  3.224506  0.0  -0.266381  3.2e-05  3.236395  0.0  -0.220093  -0.24976  8.5e-05  3.216528  0.0
N  N74  1  0.73395667  0.46916296  0.45978222  1  -0.277283  0.000619  2.931785  0.001  -0.256485  5.7e-05  3.224711  0.0  -0.266441  3.2e-05  3.236598  0.0  -0.220093  -0.249817  8.5e-05  3.216743  0.0
N  N75  1  0.16269713  0.63710421  0.60066691  1  -0.286278  0.001017  2.926606  0.001  -0.266214  0.000108  3.213241  0.0  -0.276124  7.2e-05  3.225646  0.0  -0.226197  -0.259541  0.000173  3.204862  0.0
N  N76  1  0.83729153  0.36290778  0.39932822  1  -0.286433  0.001022  2.926717  0.001  -0.266338  0.000108  3.21334  0.0  -0.276252  7.2e-05  3.225749  0.0  -0.22627  -0.259664  0.000173  3.204974  0.0
N  N77  1  0.29018008  0.17423492  0.78793495  1  0.055946  0.001527  3.531425  0.002  0.175517  0.001184  3.716187  0.002  0.165089  0.000831  3.739942  0.001  -0.125396  0.180874  0.001444  3.702426  0.002
N  N78  1  0.70981903  0.82576925  0.21206475  1  0.055967  0.001526  3.531427  0.002  0.17549  0.001185  3.716208  0.002  0.165061  0.000832  3.739965  0.001  -0.125413  0.180853  0.001444  3.702437  0.002
N  N79  1  0.22534654  0.06661156  0.75610877  1  -0.261639  0.008488  2.849617  0.011  -0.258731  0.003856  3.114444  0.005  -0.266618  0.002583  3.126607  0.003  -0.216013  -0.252717  0.005311  3.105956  0.006
N  N80  1  0.77465035  0.93339536  0.24389146  1  -0.261684  0.008494  2.849818  0.011  -0.25878  0.003854  3.114685  0.005  -0.266666  0.002582  3.126847  0.003  -0.216071  -0.252765  0.005309  3.106201  0.006
N  N81  1  0.13179134  0.06538863  0.89037424  1  -0.372443  0.069893  3.312954  0.094  -0.332191  0.049648  3.63054  0.07  -0.366322  0.039634  3.653229  0.06  -0.36434  -0.310453  0.055919  3.615854  0.075
N  N82  1  0.86820564  0.93460319  0.10962747  1  -0.37245  0.069897  3.312992  0.094  -0.332198  0.049646  3.630551  0.07  -0.366323  0.039633  3.653233  0.06  -0.364353  -0.310464  0.055917  3.615874  0.075
N  N83  1  0.37451777  0.52919278  0.09612001  1  0.047385  0.001518  3.534717  0.002  0.168907  0.001267  3.719868  0.002  0.157954  0.000875  3.743539  0.001  -0.134078  0.175254  0.001561  3.705104  0.002
N  N84  1  0.62550370  0.47080216  0.90388035  1  0.047359  0.00152  3.53476  0.002  0.16888  0.001266  3.719958  0.002  0.157926  0.000875  3.74363  0.001  -0.134063  0.175275  0.00156  3.705109  0.002
N  N85  1  0.47075294  0.64427398  0.09143635  1  -0.279411  0.008343  2.866446  0.01  -0.279815  0.00398  3.138984  0.005  -0.289199  0.002616  3.152217  0.004  -0.224169  -0.273063  0.005455  3.129862  0.007
N  N86  1  0.52926678  0.35572264  0.90856935  1  -0.279422  0.008336  2.866607  0.01  -0.279813  0.00398  3.139139  0.005  -0.289198  0.002614  3.152377  0.004  -0.224093  -0.273066  0.005454  3.130007  0.007
N  N87  1  0.22379710  0.78307294  0.02720816  1  -0.378133  0.0692  3.280176  0.092  -0.338553  0.049954  3.597859  0.07  -0.372804  0.039382  3.618698  0.059  -0.364471  -0.316848  0.056712  3.584613  0.075
N  N88  1  0.77621358  0.21692747  0.97279442  1  -0.378321  0.06919  3.280444  0.092  -0.338692  0.049953  3.598144  0.07  -0.372956  0.039381  3.618995  0.059  -0.364441  -0.316985  0.056711  3.584887  0.075
Cl  Cl89  1  0.87706372  0.77296340  0.93358810  1  -0.699381  0.000431  0.679093  0.003  -0.660936  -0.002539  0.895795  0.0  -0.673136  -0.003023  0.87449  -0.001  -0.395096  -0.650679  -0.001409  0.910465  0.001
Cl  Cl90  1  0.12294536  0.22703428  0.06641550  1  -0.699396  0.000431  0.679061  0.003  -0.660968  -0.002538  0.895804  0.0  -0.673163  -0.003023  0.874497  -0.001  -0.395112  -0.650714  -0.00141  0.910474  0.001
O  O91  1  0.01986419  0.73085564  0.49074629  1  -0.272568  -9.1e-05  2.305492  0.0  -0.197399  7e-06  2.524679  0.0  -0.215403  4e-06  2.527232  0.0  -0.101546  -0.185311  1.1e-05  2.522807  0.0
O  O92  1  0.98012532  0.26913134  0.50924647  1  -0.272575  -9.9e-05  2.305503  0.0  -0.19745  8e-06  2.524744  0.0  -0.215454  3e-06  2.527287  0.0  -0.101597  -0.185372  1.1e-05  2.522882  0.0
