# generated using pymatgen
data_ZnH15C27(NO2)3
_symmetry_space_group_name_H-M   'P 1'
_cell_length_a   9.70142558
_cell_length_b   16.55448560
_cell_length_c   17.01880603
_cell_angle_alpha   90.00656939
_cell_angle_beta   90.41242453
_cell_angle_gamma   86.91574167
_symmetry_Int_Tables_number   1
_chemical_formula_structural   ZnH15C27(NO2)3
_chemical_formula_sum   'Zn2 H30 C54 N6 O12'
_cell_volume   2729.22620235
_cell_formula_units_Z   2
loop_
 _symmetry_equiv_pos_site_id
 _symmetry_equiv_pos_as_xyz
  1  'x, y, z'
loop_
 _atom_site_type_symbol
 _atom_site_label
 _atom_site_symmetry_multiplicity
 _atom_site_fract_x
 _atom_site_fract_y
 _atom_site_fract_z
 _atom_site_occupancy
 _atom_site_pbe_bader_charge
 _atom_site_pbe_bader_spin_density
 _atom_site_pbe_cm5_charge
 _atom_site_pbe_ddec_charge
 _atom_site_pbe_ddec_spin_density
 _atom_site_pbe_ddec_sum_bond_order
 _atom_site_pbe_magmom
Zn  Zn0  1  0.64088507  0.99067631  0.50435107  1  1.284908  0  0.668147  0.825237  0  2.415202  0
Zn  Zn1  1  0.35936546  0.00929797  0.50323338  1  1.280231  0  0.668032  0.824991  0  2.416135  0
H  H2  1  0.17382759  0.88865822  0.50032855  1  0.196294  0  0.139144  0.128385  0  0.999296  0
H  H3  1  0.82623103  0.11132144  0.50016885  1  0.19623  0  0.139279  0.128633  0  0.999355  0
H  H4  1  0.28002082  0.28758925  0.21505854  1  0.103982  0  0.105236  0.108877  0  0.986821  0
H  H5  1  0.71865527  0.71193503  0.21713310  1  0.066539  0  0.104641  0.108084  0  0.988756  0
H  H6  1  0.26948208  0.71624150  0.78810161  1  0.068116  0  0.103643  0.107232  0  0.98954  0
H  H7  1  0.73193715  0.28414160  0.78954579  1  0.066161  0  0.10391  0.107767  0  0.990694  0
H  H8  1  0.71262177  0.71829346  0.78699666  1  0.070935  0  0.104205  0.107155  0  0.990056  0
H  H9  1  0.28880579  0.28205028  0.78468266  1  0.079246  0  0.104531  0.107954  0  0.990677  0
H  H10  1  0.72368190  0.27728163  0.21363249  1  0.077428  0  0.104041  0.108028  0  0.989566  0
H  H11  1  0.27501690  0.72224865  0.21254765  1  0.077642  0  0.103816  0.10757  0  0.989742  0
H  H12  1  0.28547677  0.18401727  0.32219426  1  0.107261  0  0.099798  0.101994  0  1.014237  0
H  H13  1  0.71358486  0.81529622  0.32446989  1  0.07521  0  0.099569  0.101723  0  1.014271  0
H  H14  1  0.25656478  0.82203484  0.68291331  1  0.103146  0  0.100508  0.10303  0  1.004002  0
H  H15  1  0.74492849  0.17862743  0.68416617  1  0.049452  0  0.100629  0.102743  0  1.004021  0
H  H16  1  0.69860397  0.82360889  0.68102358  1  0.106979  0  0.10603  0.117049  0  1.006781  0
H  H17  1  0.30293275  0.17698679  0.67859609  1  0.138695  0  0.105828  0.116155  0  1.006098  0
H  H18  1  0.72782494  0.17188332  0.31929438  1  0.083683  0  0.092349  0.087173  0  1.024486  0
H  H19  1  0.27117034  0.82734300  0.31847169  1  0.074174  0  0.092774  0.088014  0  1.023584  0
H  H20  1  0.49872457  0.41823802  0.30135373  1  0.077861  0  0.102904  0.121718  0  1.011523  0
H  H21  1  0.49863755  0.58116831  0.30153906  1  0.07792  0  0.103195  0.122755  0  1.012437  0
H  H22  1  0.49880096  0.58190741  0.70065945  1  0.107503  0  0.104836  0.124682  0  1.011554  0
H  H23  1  0.50294103  0.41867465  0.70048864  1  0.109852  0  0.1044  0.123432  0  1.011508  0
H  H24  1  0.49814769  0.19062028  0.07987776  1  0.099641  0  0.108854  0.129528  0  1.003469  0
H  H25  1  0.50130184  0.80918212  0.08062933  1  0.097542  0  0.10874  0.129383  0  1.003639  0
H  H26  1  0.50009427  0.80926564  0.92176575  1  0.101812  0  0.110281  0.130416  0  1.001183  0
H  H27  1  0.50078074  0.19082901  0.92104139  1  0.096145  0  0.110679  0.131096  0  1.000849  0
H  H28  1  0.49850908  0.43411558  0.00080277  1  0.498623  0  0.310417  0.263707  0  1.011887  0
H  H29  1  0.50135306  0.56584174  0.00102153  1  0.497519  0  0.310363  0.263643  0  1.011964  0
H  H30  1  0.04109657  0.81352380  0.41601108  1  0.602762  0  0.342856  0.37072  0  0.879659  0
H  H31  1  0.95534001  0.18527742  0.41384685  1  0.61518  0  0.342277  0.371103  0  0.880198  0
C  C32  1  0.52989946  0.10856553  0.61244145  1  1.545876  0  0.218116  0.603142  0  4.147531  0
C  C33  1  0.50780041  0.11029468  0.39195710  1  1.576443  0  0.215633  0.602746  0  4.148999  0
C  C34  1  0.49141316  0.88899137  0.39265858  1  1.572091  0  0.215323  0.601795  0  4.152342  0
C  C35  1  0.47159580  0.89209935  0.61303763  1  1.549282  0  0.217948  0.602266  0  4.149551  0
C  C36  1  0.95342975  0.92434495  0.49641044  1  0.496582  0  0.143279  0.064875  0  3.922402  0
C  C37  1  0.04644212  0.07559050  0.49524715  1  0.500992  0  0.143272  0.064959  0  3.923156  0
C  C38  1  0.09460273  0.93795373  0.49754558  1  0.511262  0  0.076867  0.037084  0  3.844763  0
C  C39  1  0.90534778  0.06199867  0.49749506  1  0.509859  0  0.076893  0.036471  0  3.845685  0
C  C40  1  0.37829279  0.26235183  0.23812167  1  -0.083444  0  -0.087787  -0.138506  0  3.979355  0
C  C41  1  0.62048409  0.73717337  0.23953067  1  -0.00501  0  -0.087638  -0.138761  0  3.981891  0
C  C42  1  0.36342105  0.74022789  0.76477575  1  -0.030996  0  -0.090934  -0.143459  0  3.989829  0
C  C43  1  0.63800177  0.26024682  0.76533955  1  -0.055533  0  -0.09138  -0.145429  0  3.991309  0
C  C44  1  0.61268254  0.74140390  0.76436026  1  -0.092362  0  -0.089169  -0.141085  0  3.986648  0
C  C45  1  0.38877189  0.25899941  0.76284132  1  -0.111383  0  -0.090021  -0.143762  0  3.987065  0
C  C46  1  0.62767184  0.25641976  0.23736810  1  0.001436  0  -0.090928  -0.142793  0  3.986811  0
C  C47  1  0.37109791  0.74307336  0.23702311  1  0.023444  0  -0.090156  -0.141257  0  3.985424  0
C  C48  1  0.38084253  0.20460811  0.29766515  1  -0.045108  0  -0.083781  -0.079655  0  3.982148  0
C  C49  1  0.61813793  0.79479334  0.29918497  1  -0.081997  0  -0.08404  -0.079589  0  3.981997  0
C  C50  1  0.35601943  0.79901696  0.70613301  1  -0.116429  0  -0.086676  -0.089143  0  3.999628  0
C  C51  1  0.64545770  0.20161781  0.70657534  1  -0.059076  0  -0.086267  -0.087022  0  3.998292  0
C  C52  1  0.60555595  0.80012763  0.70570805  1  -0.022466  0  -0.080339  -0.07659  0  3.962056  0
C  C53  1  0.39596575  0.20041820  0.70411602  1  -0.064644  0  -0.079807  -0.074001  0  3.959992  0
C  C54  1  0.63013768  0.19818543  0.29652691  1  -0.125536  0  -0.089443  -0.088733  0  4.008373  0
C  C55  1  0.36880830  0.80115428  0.29631808  1  -0.116787  0  -0.090172  -0.090131  0  4.010519  0
C  C56  1  0.49912631  0.43405207  0.16877356  1  0.465572  0  0.087816  0.191722  0  4.073012  0
C  C57  1  0.49902900  0.56563667  0.16894051  1  0.465169  0  0.088143  0.193698  0  4.070985  0
C  C58  1  0.49906412  0.56593547  0.83316179  1  0.441355  0  0.089193  0.19327  0  4.066965  0
C  C59  1  0.50223232  0.43434966  0.83301776  1  0.424939  0  0.089877  0.193147  0  4.067234  0
C  C60  1  0.49895680  0.45866292  0.25112359  1  -0.004018  0  -0.108246  -0.183585  0  3.982439  0
C  C61  1  0.49863850  0.54084190  0.25122197  1  -0.112248  0  -0.10961  -0.18896  0  3.986733  0
C  C62  1  0.49957888  0.54133672  0.75079611  1  -0.03958  0  -0.106906  -0.185434  0  3.980925  0
C  C63  1  0.50199062  0.45913657  0.75071613  1  -0.17249  0  -0.105892  -0.181081  0  3.978583  0
C  C64  1  0.49807089  0.32497784  0.06706472  1  0.367565  0  0.100032  0.187239  0  4.028748  0
C  C65  1  0.50133229  0.67486672  0.06749501  1  0.430427  0  0.100366  0.187512  0  4.030633  0
C  C66  1  0.50063873  0.67497946  0.93475049  1  0.44968  0  0.101264  0.18598  0  4.022007  0
C  C67  1  0.50001314  0.32508997  0.93433257  1  0.414139  0  0.101445  0.18688  0  4.022084  0
C  C68  1  0.49857451  0.24250709  0.04097345  1  0.03509  0  -0.101093  -0.187895  0  3.986344  0
C  C69  1  0.50118734  0.75737822  0.04159347  1  -0.046746  0  -0.101296  -0.188369  0  3.986315  0
C  C70  1  0.50056620  0.75744778  0.96079472  1  -0.110076  0  -0.097336  -0.178012  0  3.977507  0
C  C71  1  0.49991807  0.24257665  0.96018025  1  -0.08991  0  -0.09789  -0.179668  0  3.978777  0
C  C72  1  0.49913414  0.35256377  0.14492614  1  -0.012259  0  -0.000835  -0.084325  0  3.941463  0
C  C73  1  0.49952678  0.64716032  0.14528134  1  -0.013048  0  -0.001366  -0.085315  0  3.942437  0
C  C74  1  0.49818020  0.64744495  0.85689932  1  0.057602  0  0.002974  -0.075228  0  3.933884  0
C  C75  1  0.50301810  0.35278971  0.85657750  1  0.056157  0  0.002655  -0.076216  0  3.933908  0
C  C76  1  0.50158316  0.28929029  0.20759111  1  -0.003053  0  0.002698  0.098677  0  4.009177  0
C  C77  1  0.49709115  0.71031009  0.20805530  1  -0.056977  0  0.002989  0.099278  0  4.00753  0
C  C78  1  0.49179223  0.71083397  0.79441008  1  -0.041791  0  -0.000356  0.091809  0  4.019558  0
C  C79  1  0.50961184  0.28955224  0.79398714  1  0.004283  0  -0.000615  0.092958  0  4.018183  0
C  C80  1  0.50679611  0.17204187  0.32759028  1  -0.034849  0  -0.021891  -0.041073  0  3.971825  0
C  C81  1  0.49227130  0.82727834  0.32827783  1  0.02735  0  -0.021698  -0.04041  0  3.973544  0
C  C82  1  0.47706596  0.82936790  0.67627300  1  0.048634  0  -0.021295  -0.04055  0  3.976489  0
C  C83  1  0.52445209  0.17128700  0.67564512  1  0.05299  0  -0.021207  -0.042141  0  3.977129  0
C  C84  1  0.90526173  0.83890655  0.49722075  1  1.6095  0  0.246152  0.539286  0  4.132032  0
C  C85  1  0.09451987  0.16104705  0.49463744  1  1.60688  0  0.245841  0.540101  0  4.131516  0
N  N86  1  0.85974514  0.98705690  0.49930602  1  -1.176955  0  -0.269359  -0.128994  0  3.428469  0
N  N87  1  0.14027653  0.01291307  0.49822686  1  -1.174486  0  -0.269253  -0.130282  0  3.42838  0
N  N88  1  0.49923094  0.49989604  0.11990563  1  -1.159664  0  -0.354605  -0.418495  0  3.184858  0
N  N89  1  0.50053251  0.50009150  0.88207776  1  -1.165799  0  -0.353296  -0.418265  0  3.185035  0
N  N90  1  0.49804161  0.37246290  0.00076786  1  -1.234887  0  -0.377335  -0.262642  0  3.597602  0
N  N91  1  0.50193318  0.62749140  0.00110273  1  -1.235186  0  -0.377169  -0.26266  0  3.599081  0
O  O92  1  0.64684839  0.08742017  0.58252292  1  -1.17096  0  -0.325663  -0.562733  0  2.308693  0
O  O93  1  0.41532567  0.08011012  0.59273313  1  -1.155647  0  -0.313411  -0.542607  0  2.393933  0
O  O94  1  0.39038997  0.09185139  0.41787786  1  -1.162025  0  -0.319793  -0.549009  0  2.339864  0
O  O95  1  0.62437392  0.08048391  0.41627211  1  -1.174931  0  -0.324695  -0.570057  0  2.316761  0
O  O96  1  0.37489415  0.91886419  0.41604280  1  -1.173452  0  -0.324525  -0.568804  0  2.316079  0
O  O97  1  0.60889414  0.90742537  0.41948505  1  -1.161206  0  -0.319926  -0.549531  0  2.34312  0
O  O98  1  0.58611462  0.92054480  0.59417956  1  -1.158292  0  -0.313231  -0.542042  0  2.394582  0
O  O99  1  0.35457826  0.91318922  0.58221130  1  -1.17435  0  -0.325413  -0.562731  0  2.311162  0
O  O100  1  0.97325679  0.78652001  0.44743810  1  -1.086186  0  -0.319782  -0.447448  0  2.200245  0
O  O101  1  0.81660729  0.81724630  0.54067702  1  -1.062261  0  -0.225981  -0.37096  0  2.118322  0
O  O102  1  0.02444999  0.21272568  0.44449926  1  -1.096484  0  -0.319592  -0.448771  0  2.200647  0
O  O103  1  0.18493098  0.18332919  0.53727777  1  -1.062685  0  -0.225587  -0.370659  0  2.117708  0
