# generated using pymatgen
data_CuH7C4SN2Cl
_symmetry_space_group_name_H-M   'P 1'
_cell_length_a   7.84736628
_cell_length_b   8.78503239
_cell_length_c   10.47229120
_cell_angle_alpha   89.99988216
_cell_angle_beta   90.00000524
_cell_angle_gamma   95.68765426
_symmetry_Int_Tables_number   1
_chemical_formula_structural   CuH7C4SN2Cl
_chemical_formula_sum   'Cu4 H28 C16 S4 N8 Cl4'
_cell_volume   718.39891294
_cell_formula_units_Z   4
loop_
 _symmetry_equiv_pos_site_id
 _symmetry_equiv_pos_as_xyz
  1  'x, y, z'
loop_
 _atom_site_type_symbol
 _atom_site_label
 _atom_site_symmetry_multiplicity
 _atom_site_fract_x
 _atom_site_fract_y
 _atom_site_fract_z
 _atom_site_occupancy
 _atom_site_hle17_bader_spin_density
 _atom_site_hle17_ddec_charge
 _atom_site_hle17_ddec_spin_density
 _atom_site_hle17_ddec_sum_bond_order
 _atom_site_hle17_magmom
 _atom_site_hse06_10hf_bader_spin_density
 _atom_site_hse06_10hf_ddec_charge
 _atom_site_hse06_10hf_ddec_spin_density
 _atom_site_hse06_10hf_ddec_sum_bond_order
 _atom_site_hse06_10hf_magmom
 _atom_site_hse06_bader_spin_density
 _atom_site_hse06_ddec_charge
 _atom_site_hse06_ddec_spin_density
 _atom_site_hse06_ddec_sum_bond_order
 _atom_site_hse06_magmom
 _atom_site_pbe_bader_spin_density
 _atom_site_pbe_cm5_charge
 _atom_site_pbe_ddec_charge
 _atom_site_pbe_ddec_spin_density
 _atom_site_pbe_ddec_sum_bond_order
 _atom_site_pbe_magmom
Cu  Cu0  1  0.93516109  0.61643954  0.94891986  1  0  0.331389  0  2.176973  0  0  0.250406  0  2.674162  0  0  0.248584  0  2.629415  0  0  0.376691  0.254963  0  2.70128  0
Cu  Cu1  1  0.56484253  0.88356002  0.44892208  1  0  0.33141  0  2.176963  0  0  0.250426  0  2.674156  0  0  0.248541  0  2.629394  0  0  0.376712  0.254983  0  2.701274  0
Cu  Cu2  1  0.06484174  0.38356007  0.05107925  1  0  0.331441  0  2.17702  0  0  0.250461  0  2.674204  0  0  0.24858  0  2.629421  0  0  0.376752  0.255  0  2.701416  0
Cu  Cu3  1  0.43515917  0.11644075  0.55107798  1  0  0.331462  0  2.176947  0  0  0.25049  0  2.674135  0  0  0.248641  0  2.629353  0  0  0.37674  0.255022  0  2.701344  0
H  H4  1  0.42478535  0.17086339  0.02614697  1  0  0.129325  0  0.95577  0  0  0.147405  0  1.017224  0  0  0.149644  0  1.016983  0  0  0.0907  0.145809  0  1.017482  0
H  H5  1  0.07521190  0.32913869  0.52614821  1  0  0.129388  0  0.955746  0  0  0.147424  0  1.017235  0  0  0.149663  0  1.016996  0  0  0.090696  0.145829  0  1.017494  0
H  H6  1  0.57521126  0.82913744  0.97385118  1  0  0.12937  0  0.95575  0  0  0.147418  0  1.017229  0  0  0.149656  0  1.016991  0  0  0.090708  0.145823  0  1.017484  0
H  H7  1  0.92478824  0.67085981  0.47384994  1  0  0.129404  0  0.955762  0  0  0.147443  0  1.01724  0  0  0.149682  0  1.016999  0  0  0.090717  0.14585  0  1.017496  0
H  H8  1  0.44798616  0.29740541  0.15957230  1  0  0.134057  0  0.968341  0  0  0.149369  0  1.036828  0  0  0.152484  0  1.035659  0  0  0.08833  0.147061  0  1.037746  0
H  H9  1  0.05200994  0.20259747  0.65957374  1  0  0.134066  0  0.968408  0  0  0.149367  0  1.036891  0  0  0.152483  0  1.035725  0  0  0.088299  0.147061  0  1.037806  0
H  H10  1  0.55201300  0.70259539  0.84042681  1  0  0.134063  0  0.968347  0  0  0.149373  0  1.036829  0  0  0.152488  0  1.035662  0  0  0.088334  0.147068  0  1.037743  0
H  H11  1  0.94799289  0.79740214  0.34042727  1  0  0.134057  0  0.968425  0  0  0.149367  0  1.036902  0  0  0.152483  0  1.035733  0  0  0.088301  0.147061  0  1.037817  0
H  H12  1  0.59031767  0.15339093  0.14040470  1  0  0.139281  0  0.964338  0  0  0.155169  0  1.029221  0  0  0.158462  0  1.028258  0  0  0.085435  0.152738  0  1.029993  0
H  H13  1  0.90967633  0.34661072  0.64040497  1  0  0.139289  0  0.964301  0  0  0.155176  0  1.029185  0  0  0.158471  0  1.02822  0  0  0.085456  0.152743  0  1.02996  0
H  H14  1  0.40967724  0.84660649  0.85959537  1  0  0.139266  0  0.964374  0  0  0.155149  0  1.029246  0  0  0.158445  0  1.028284  0  0  0.085432  0.152719  0  1.030022  0
H  H15  1  0.09032566  0.65339234  0.35959796  1  0  0.139255  0  0.964396  0  0  0.155152  0  1.029258  0  0  0.158446  0  1.028298  0  0  0.085422  0.152722  0  1.030033  0
H  H16  1  0.11261737  0.82299190  0.14819614  1  0  0.086909  0  0.956365  0  0  0.094704  0  1.022914  0  0  0.097449  0  1.021041  0  0  0.115189  0.092458  0  1.02478  0
H  H17  1  0.38738145  0.67700524  0.64819955  1  0  0.08693  0  0.956335  0  0  0.094714  0  1.022916  0  0  0.097458  0  1.021043  0  0  0.115187  0.092471  0  1.024779  0
H  H18  1  0.88737528  0.17700783  0.85180679  1  0  0.086862  0  0.956423  0  0  0.09467  0  1.022971  0  0  0.097419  0  1.021083  0  0  0.115208  0.092424  0  1.024834  0
H  H19  1  0.61262166  0.32299666  0.35180433  1  0  0.086913  0  0.956369  0  0  0.094697  0  1.022942  0  0  0.097442  0  1.021063  0  0  0.115195  0.092447  0  1.024813  0
H  H20  1  0.84203320  0.89572432  0.81504826  1  0  0.08691  0  0.980551  0  0  0.092684  0  1.049049  0  0  0.095164  0  1.048385  0  0  0.104872  0.090823  0  1.049509  0
H  H21  1  0.65796464  0.60428024  0.31504902  1  0  0.086928  0  0.980542  0  0  0.092704  0  1.049034  0  0  0.095185  0  1.048367  0  0  0.104868  0.090839  0  1.049501  0
H  H22  1  0.15796439  0.10427421  0.18494990  1  0  0.086917  0  0.98052  0  0  0.092686  0  1.049031  0  0  0.095167  0  1.048366  0  0  0.104874  0.090807  0  1.049507  0
H  H23  1  0.34203607  0.39572283  0.68494913  1  0  0.08691  0  0.980485  0  0  0.09268  0  1.049  0  0  0.09516  0  1.048335  0  0  0.10486  0.090796  0  1.049477  0
H  H24  1  0.53098645  0.26399794  0.84484357  1  0  0.321194  0  0.932928  0  0  0.300863  0  1.002095  0  0  0.309007  0  0.996095  0  0  0.275175  0.295293  0  1.00614  0
H  H25  1  0.96901629  0.23600192  0.34484605  1  0  0.321208  0  0.93291  0  0  0.300868  0  1.002083  0  0  0.309011  0  0.996083  0  0  0.275183  0.295297  0  1.006128  0
H  H26  1  0.46901271  0.73600286  0.15515458  1  0  0.321225  0  0.932901  0  0  0.300885  0  1.002071  0  0  0.309028  0  0.996071  0  0  0.275183  0.295315  0  1.006114  0
H  H27  1  0.03098738  0.76399425  0.65515783  1  0  0.321185  0  0.932911  0  0  0.300856  0  1.00208  0  0  0.309002  0  0.996077  0  0  0.275144  0.295286  0  1.006124  0
H  H28  1  0.69656454  0.41786416  0.83232566  1  0  0.312546  0  0.954115  0  0  0.290439  0  1.027894  0  0  0.299796  0  1.019278  0  0  0.268019  0.283807  0  1.034091  0
H  H29  1  0.80343791  0.08213344  0.33232551  1  0  0.312608  0  0.954055  0  0  0.290499  0  1.027843  0  0  0.29986  0  1.019219  0  0  0.268033  0.283867  0  1.034042  0
H  H30  1  0.30343673  0.58213317  0.16767345  1  0  0.312609  0  0.954068  0  0  0.29049  0  1.027857  0  0  0.299851  0  1.019232  0  0  0.268029  0.283857  0  1.034063  0
H  H31  1  0.19656478  0.91786503  0.66767742  1  0  0.31253  0  0.954037  0  0  0.290436  0  1.027817  0  0  0.299797  0  1.019193  0  0  0.267989  0.283803  0  1.03402  0
C  C32  1  0.63621809  0.34395768  0.01307233  1  0  0.46273  0  3.670091  0  0  0.452479  0  3.941487  0  0  0.476535  0  3.949821  0  0  0.153279  0.436265  0  3.934963  0
C  C33  1  0.86378228  0.15604423  0.51307291  1  0  0.462856  0  3.669978  0  0  0.4526  0  3.941378  0  0  0.476619  0  3.949766  0  0  0.153299  0.436385  0  3.934858  0
C  C34  1  0.36378332  0.65604080  0.98692678  1  0  0.462783  0  3.67003  0  0  0.452461  0  3.941498  0  0  0.476512  0  3.949842  0  0  0.153261  0.436246  0  3.934986  0
C  C35  1  0.13621644  0.84395314  0.48692811  1  0  0.462846  0  3.669917  0  0  0.452529  0  3.941414  0  0  0.476537  0  3.949821  0  0  0.153279  0.436317  0  3.934896  0
C  C36  1  0.51796815  0.23530431  0.08875786  1  0  -0.406417  0  3.665173  0  0  -0.474244  0  3.889611  0  0  -0.482258  0  3.894112  0  0  -0.247557  -0.468516  0  3.886411  0
C  C37  1  0.98202995  0.26469971  0.58875922  1  0  -0.406535  0  3.665233  0  0  -0.474297  0  3.889649  0  0  -0.482303  0  3.894161  0  0  -0.247547  -0.468569  0  3.886451  0
C  C38  1  0.48203086  0.76469534  0.91124125  1  0  -0.406464  0  3.665215  0  0  -0.474234  0  3.889667  0  0  -0.482241  0  3.894153  0  0  -0.247562  -0.468503  0  3.886467  0
C  C39  1  0.01796892  0.73529880  0.41124179  1  0  -0.406496  0  3.665344  0  0  -0.474262  0  3.889783  0  0  -0.482266  0  3.894301  0  0  -0.247529  -0.468535  0  3.886585  0
C  C40  1  0.06175088  0.90156558  0.08127280  1  0  0.080643  0  3.658967  0  0  0.052723  0  3.910974  0  0  0.055705  0  3.925106  0  0  0.044155  0.049433  0  3.904042  0
C  C41  1  0.43825390  0.59843854  0.58127252  1  0  0.080526  0  3.659016  0  0  0.052576  0  3.911011  0  0  0.055559  0  3.925138  0  0  0.0441  0.049267  0  3.904115  0
C  C42  1  0.93825224  0.09843632  0.91872822  1  0  0.080668  0  3.658909  0  0  0.052715  0  3.910944  0  0  0.055702  0  3.925071  0  0  0.044138  0.049409  0  3.904051  0
C  C43  1  0.56174837  0.40156681  0.41872468  1  0  0.080709  0  3.658911  0  0  0.052769  0  3.910902  0  0  0.055755  0  3.925033  0  0  0.044193  0.049492  0  3.903967  0
C  C44  1  0.91248657  0.94191850  0.89843112  1  0  0.073922  0  3.656418  0  0  0.045296  0  3.907921  0  0  0.04901  0  3.920694  0  0  0.041237  0.042186  0  3.900821  0
C  C45  1  0.58751352  0.55808353  0.39843005  1  0  0.073948  0  3.656448  0  0  0.04527  0  3.907961  0  0  0.048986  0  3.920721  0  0  0.04126  0.042157  0  3.900876  0
C  C46  1  0.08751074  0.05807774  0.10156703  1  0  0.07391  0  3.656522  0  0  0.045278  0  3.908013  0  0  0.048989  0  3.920783  0  0  0.04126  0.042186  0  3.900919  0
C  C47  1  0.41248861  0.44192068  0.60156620  1  0  0.074014  0  3.656425  0  0  0.045359  0  3.907923  0  0  0.049073  0  3.920695  0  0  0.041282  0.042275  0  3.900832  0
S  S48  1  0.78358266  0.46713402  0.09087374  1  0  -0.375005  0  2.482568  0  0  -0.356214  0  2.92309  0  0  -0.367681  0  2.900569  0  0  -0.21461  -0.348382  0  2.936358  0
S  S49  1  0.71641884  0.03286652  0.59087451  1  0  -0.375063  0  2.482527  0  0  -0.356259  0  2.923013  0  0  -0.367699  0  2.900491  0  0  -0.214604  -0.348419  0  2.936279  0
S  S50  1  0.21641989  0.53286330  0.90912632  1  0  -0.375012  0  2.482576  0  0  -0.35619  0  2.923109  0  0  -0.36765  0  2.900583  0  0  -0.214572  -0.348359  0  2.936404  0
S  S51  1  0.28358174  0.96713540  0.40912460  1  0  -0.375078  0  2.482423  0  0  -0.356265  0  2.922962  0  0  -0.367704  0  2.900449  0  0  -0.214614  -0.348433  0  2.936253  0
N  N52  1  0.62277289  0.33957030  0.88776726  1  0  -0.57255  0  3.184025  0  0  -0.525749  0  3.402013  0  0  -0.546169  0  3.400593  0  0  -0.537036  -0.512199  0  3.403  0
N  N53  1  0.87722715  0.16042833  0.38776890  1  0  -0.572657  0  3.183909  0  0  -0.525865  0  3.401949  0  0  -0.546275  0  3.40054  0  0  -0.53707  -0.512317  0  3.402942  0
N  N54  1  0.37722725  0.66042820  0.11223184  1  0  -0.572682  0  3.18391  0  0  -0.525845  0  3.401934  0  0  -0.546265  0  3.40051  0  0  -0.537067  -0.512296  0  3.402932  0
N  N55  1  0.12277299  0.83957017  0.61223211  1  0  -0.572549  0  3.183851  0  0  -0.525754  0  3.401854  0  0  -0.546158  0  3.40045  0  0  -0.536968  -0.512203  0  3.402848  0
N  N56  1  0.97426907  0.84102200  0.97924637  1  0  -0.223783  0  3.339456  0  0  -0.160026  0  3.633484  0  0  -0.163382  0  3.63838  0  0  -0.349833  -0.159164  0  3.631332  0
N  N57  1  0.52573483  0.65897977  0.47924704  1  0  -0.223786  0  3.339618  0  0  -0.159934  0  3.633549  0  0  -0.163273  0  3.638412  0  0  -0.349819  -0.159069  0  3.631399  0
N  N58  1  0.02573631  0.15897758  0.02075082  1  0  -0.223754  0  3.339477  0  0  -0.159974  0  3.633489  0  0  -0.163315  0  3.638352  0  0  -0.349846  -0.159113  0  3.631376  0
N  N59  1  0.47426447  0.34102218  0.52074824  1  0  -0.223922  0  3.339659  0  0  -0.160096  0  3.633637  0  0  -0.163446  0  3.638519  0  0  -0.349884  -0.159237  0  3.631522  0
Cl  Cl60  1  0.83356725  0.60274691  0.73506408  1  0  -0.581162  0  1.059163  0  0  -0.515313  0  1.329275  0  0  -0.532356  0  1.309986  0  0  -0.294074  -0.502569  0  1.34167  0
Cl  Cl61  1  0.66643243  0.89725211  0.23506629  1  0  -0.581183  0  1.059147  0  0  -0.515331  0  1.329255  0  0  -0.532358  0  1.309952  0  0  -0.294096  -0.502594  0  1.341661  0
Cl  Cl62  1  0.16643430  0.39725272  0.26493693  1  0  -0.581189  0  1.05917  0  0  -0.515336  0  1.329287  0  0  -0.532361  0  1.30998  0  0  -0.29409  -0.502589  0  1.341697  0
Cl  Cl63  1  0.33356786  0.10274753  0.76493568  1  0  -0.581176  0  1.059137  0  0  -0.515337  0  1.329252  0  0  -0.532374  0  1.309954  0  0  -0.294096  -0.502592  0  1.341666  0
