# generated using pymatgen
data_Ni2H13C19N7O
_symmetry_space_group_name_H-M   'P 1'
_cell_length_a   9.42130561
_cell_length_b   9.42131134
_cell_length_c   11.31668167
_cell_angle_alpha   83.55610587
_cell_angle_beta   83.55576722
_cell_angle_gamma   73.12693328
_symmetry_Int_Tables_number   1
_chemical_formula_structural   Ni2H13C19N7O
_chemical_formula_sum   'Ni4 H26 C38 N14 O2'
_cell_volume   951.80733877
_cell_formula_units_Z   2
loop_
 _symmetry_equiv_pos_site_id
 _symmetry_equiv_pos_as_xyz
  1  'x, y, z'
loop_
 _atom_site_type_symbol
 _atom_site_label
 _atom_site_symmetry_multiplicity
 _atom_site_fract_x
 _atom_site_fract_y
 _atom_site_fract_z
 _atom_site_occupancy
 _atom_site_hle17_ddec_charge
 _atom_site_hle17_ddec_spin_density
 _atom_site_hle17_ddec_sum_bond_order
 _atom_site_hle17_magmom
 _atom_site_hse06_10hf_ddec_charge
 _atom_site_hse06_10hf_ddec_spin_density
 _atom_site_hse06_10hf_ddec_sum_bond_order
 _atom_site_hse06_10hf_magmom
 _atom_site_hse06_ddec_charge
 _atom_site_hse06_ddec_spin_density
 _atom_site_hse06_ddec_sum_bond_order
 _atom_site_hse06_magmom
 _atom_site_pbe_cm5_charge
 _atom_site_pbe_ddec_charge
 _atom_site_pbe_ddec_spin_density
 _atom_site_pbe_ddec_sum_bond_order
 _atom_site_pbe_magmom
Ni  Ni0  1  0.99999760  0.50000049  0.99999970  1  0.120629  0.018511  3.363239  0.013  0.130897  0.008217  3.824934  0.005  0.144989  0.005853  3.768556  0.004  0.393831  0.128583  0.0  3.861534  0.0
Ni  Ni1  1  0.50000700  0.99999885  0.50000007  1  0.12064  0.018508  3.363352  0.013  0.130658  0.008221  3.824977  0.005  0.144833  0.005852  3.768631  0.004  0.393792  0.128505  0.0  3.861609  0.0
Ni  Ni2  1  0.75351287  0.24648780  0.75000141  1  0.771251  0.072825  2.344101  0.064  0.75533  0.016429  2.768675  0.019  0.828577  0.008699  2.700849  0.012  0.712226  0.711673  0.036494  2.811287  0.024
Ni  Ni3  1  0.24648944  0.75351234  0.24999914  1  0.77117  0.072875  2.344135  0.064  0.755219  0.016423  2.768721  0.019  0.828491  0.008703  2.700854  0.012  0.712209  0.711566  -0.036492  2.811321  -0.024
H  H4  1  0.93052315  0.96299834  0.77647766  1  0.416856  0.000973  0.891725  0.001  0.38298  0.001409  0.960998  0.002  0.394546  0.001023  0.944123  0.001  0.285797  0.375742  0.001629  0.971457  0.002
H  H5  1  0.96300329  0.93052243  0.27647911  1  0.416826  0.000971  0.891785  0.001  0.382949  0.001409  0.961067  0.002  0.394514  0.001022  0.944187  0.001  0.285767  0.375712  -0.001629  0.971525  -0.002
H  H6  1  0.06947799  0.03699848  0.22351889  1  0.416812  0.000971  0.891798  0.001  0.382933  0.001408  0.961086  0.002  0.394497  0.001023  0.944207  0.001  0.285752  0.375696  -0.001629  0.971543  -0.002
H  H7  1  0.03700060  0.06947215  0.72352093  1  0.416825  0.000973  0.891769  0.001  0.382938  0.001409  0.961062  0.002  0.394503  0.001023  0.944186  0.001  0.285769  0.3757  0.001629  0.97152  0.002
H  H8  1  0.79642734  0.01051455  0.97580782  1  0.096497  -0.002171  0.926342  -0.002  0.103918  -0.001462  0.986  -0.001  0.105524  -0.001068  0.984563  -0.001  0.125733  0.102895  -0.001727  0.987127  -0.002
H  H9  1  0.01051575  0.79643269  0.47580397  1  0.096437  -0.002172  0.926416  -0.002  0.103851  -0.001463  0.986078  -0.001  0.105455  -0.00107  0.984646  -0.001  0.125729  0.10283  0.001728  0.987201  0.002
H  H10  1  0.20357208  0.98948447  0.02419398  1  0.096454  -0.002179  0.926369  -0.002  0.103885  -0.001462  0.986016  -0.001  0.105492  -0.001068  0.984582  -0.001  0.125735  0.102865  0.001727  0.987142  0.002
H  H11  1  0.98948777  0.20357080  0.52419530  1  0.096457  -0.002172  0.92638  -0.002  0.103871  -0.001462  0.986046  -0.001  0.105479  -0.001067  0.98461  -0.001  0.125725  0.102848  -0.001728  0.98717  -0.002
H  H12  1  0.63491905  0.96757045  0.16050684  1  0.11351  -0.000365  0.950969  0.0  0.122532  -0.000596  1.008213  0.0  0.124556  -0.000432  1.009143  0.0  0.110607  0.12126  -0.00074  1.007462  -0.001
H  H13  1  0.96757361  0.63492160  0.66050450  1  0.113462  -0.000367  0.9511  0.0  0.122499  -0.000596  1.008319  0.0  0.124523  -0.000432  1.009249  0.0  0.110595  0.121222  0.000739  1.007568  0.001
H  H14  1  0.36508100  0.03242635  0.83949334  1  0.113548  -0.000366  0.950992  0.0  0.122578  -0.000596  1.008226  0.0  0.124604  -0.000431  1.009154  0.0  0.110635  0.121306  0.00074  1.007475  0.001
H  H15  1  0.03242382  0.36508078  0.33949276  1  0.113524  -0.000366  0.951045  0.0  0.122556  -0.000596  1.008274  0.0  0.124578  -0.000432  1.009207  0.0  0.11061  0.121278  -0.00074  1.007526  -0.001
H  H16  1  0.38060591  0.14735667  0.19347412  1  0.104863  -0.000472  0.938021  -0.001  0.113658  4.6e-05  0.998717  0.0  0.115639  5.4e-05  0.997778  0.0  0.110687  0.112361  -1.3e-05  0.999312  0.0
H  H17  1  0.14735828  0.38060999  0.69346962  1  0.104887  -0.000463  0.938068  -0.001  0.113684  4.6e-05  0.998758  0.0  0.115664  5.4e-05  0.997819  0.0  0.110675  0.112385  1.3e-05  0.999353  0.0
H  H18  1  0.61939458  0.85264236  0.80652670  1  0.104871  -0.000462  0.938023  -0.001  0.113665  4.6e-05  0.998721  0.0  0.115647  5.3e-05  0.997781  0.0  0.110684  0.112368  1.3e-05  0.999314  0.0
H  H19  1  0.85263520  0.61939128  0.30652544  1  0.104878  -0.000465  0.938022  -0.001  0.113691  4.6e-05  0.998697  0.0  0.115662  5.4e-05  0.997768  0.0  0.110692  0.11239  -1.3e-05  0.999295  0.0
H  H20  1  0.30435554  0.36840034  0.04761646  1  0.101243  -0.00068  0.987993  0.0  0.108826  -0.000672  1.055612  -0.001  0.110943  -0.000499  1.054942  0.0  0.103455  0.107355  -0.000874  1.056319  -0.001
H  H21  1  0.36840056  0.30436205  0.54761291  1  0.101242  -0.000683  0.987931  0.0  0.108798  -0.000672  1.055565  -0.001  0.110928  -0.000499  1.054885  0.0  0.103443  0.107327  0.000874  1.056281  0.001
H  H22  1  0.69564281  0.63159868  0.95238544  1  0.101252  -0.00069  0.988096  0.0  0.108824  -0.000672  1.05572  -0.001  0.110949  -0.0005  1.055047  0.0  0.10347  0.107353  0.000873  1.056433  0.001
H  H23  1  0.63159654  0.69564143  0.45238693  1  0.101263  -0.000677  0.988081  0.0  0.10883  -0.000672  1.055702  -0.001  0.110958  -0.0005  1.055026  0.0  0.103474  0.107356  -0.000874  1.056418  -0.001
H  H24  1  0.26310795  0.56338049  0.91795557  1  0.107011  -0.000315  0.979132  -0.001  0.11132  0.000433  1.05119  0.0  0.114138  0.000293  1.04932  0.0  0.105212  0.109036  0.000507  1.05319  0.0
H  H25  1  0.56338249  0.26311278  0.41795349  1  0.106889  -0.000299  0.979179  -0.001  0.111231  0.000434  1.051217  0.0  0.114048  0.000292  1.049349  0.0  0.10517  0.108942  -0.000507  1.053224  0.0
H  H26  1  0.73688922  0.43661520  0.08204408  1  0.106955  -0.000314  0.979176  -0.001  0.111306  0.000433  1.051182  0.0  0.114118  0.000292  1.049328  0.0  0.105205  0.10902  -0.000507  1.053186  0.0
H  H27  1  0.43661492  0.73688959  0.58204819  1  0.106886  -0.00032  0.979191  -0.001  0.111241  0.000433  1.051224  0.0  0.11406  0.000293  1.049351  0.0  0.105189  0.108952  0.000507  1.053232  0.0
H  H28  1  0.23869502  0.76130069  0.75000222  1  0.108228  0.000458  0.93293  0.001  0.117606  4e-05  0.990621  0.0  0.119663  4e-06  0.989953  0.0  0.113602  0.116233  0.000118  0.990944  0.0
H  H29  1  0.76130152  0.23869722  0.24999906  1  0.108269  0.000446  0.93291  0.001  0.117643  4e-05  0.990615  0.0  0.119706  4e-06  0.989934  0.0  0.113594  0.116267  -0.000118  0.990937  0.0
C  C30  1  0.95859785  0.67645736  0.90441720  1  0.044493  0.000454  3.530145  0.0  0.017049  -5.9e-05  3.869119  0.0  0.021862  -0.000349  3.872335  0.0  0.008605  0.011738  0.000235  3.867912  0.0
C  C31  1  0.67646155  0.95860762  0.40442031  1  0.04447  0.000427  3.530414  0.0  0.017086  -6.4e-05  3.869319  0.0  0.021892  -0.000346  3.872553  0.0  0.008502  0.011741  -0.000235  3.868146  0.0
C  C32  1  0.04139074  0.32354615  0.09557633  1  0.044511  0.000446  3.530273  0.0  0.017043  -5.9e-05  3.869297  0.0  0.021857  -0.000347  3.872512  0.0  0.008525  0.01173  -0.000234  3.86809  0.0
C  C33  1  0.32354824  0.04139253  0.59557958  1  0.044484  0.000422  3.530246  0.0  0.017071  -6.3e-05  3.869192  0.0  0.021874  -0.000346  3.872428  0.0  0.008526  0.011726  0.000235  3.868023  0.0
C  C34  1  0.92666575  0.41107630  0.89320351  1  0.048209  -0.004953  3.493529  0.001  0.033096  0.001865  3.829405  0.003  0.043825  0.000634  3.828914  0.002  0.011478  0.022905  0.001761  3.832199  0.003
C  C35  1  0.41108451  0.92666409  0.39320431  1  0.048193  -0.004821  3.493434  0.001  0.033124  0.00186  3.829271  0.003  0.043838  0.000615  3.828808  0.002  0.011463  0.022902  -0.001762  3.832103  -0.003
C  C36  1  0.07333614  0.58892163  0.10679463  1  0.048188  -0.004824  3.493477  0.001  0.03306  0.001862  3.829372  0.003  0.043794  0.000609  3.828874  0.002  0.011462  0.022871  -0.001762  3.832166  -0.003
C  C37  1  0.58892836  0.07333273  0.60679472  1  0.048222  -0.004967  3.493477  0.001  0.033174  0.001865  3.829268  0.003  0.04388  0.000641  3.828813  0.002  0.011492  0.022946  0.001762  3.832099  0.003
C  C38  1  0.68683896  0.08731906  0.99542353  1  0.140905  0.01289  3.658222  0.013  0.114457  0.000671  3.91526  0.002  0.12276  0.00216  3.933875  0.003  0.062211  0.108458  -0.000393  3.903254  0.001
C  C39  1  0.08732530  0.68684094  0.49541908  1  0.141009  0.01287  3.658501  0.013  0.114542  0.000684  3.915517  0.002  0.122848  0.00216  3.934129  0.003  0.062259  0.108542  0.000393  3.903512  -0.001
C  C40  1  0.31316217  0.91267774  0.00457655  1  0.14099  0.012958  3.658214  0.013  0.114545  0.000683  3.915276  0.002  0.122844  0.002206  3.933886  0.003  0.06224  0.108545  0.000393  3.903274  -0.001
C  C41  1  0.91267853  0.31316144  0.50457938  1  0.141081  0.012919  3.658297  0.013  0.114629  0.000678  3.915332  0.002  0.122933  0.002158  3.933942  0.003  0.062291  0.108634  -0.000393  3.903324  0.001
C  C42  1  0.59582143  0.06346572  0.09740375  1  -0.10527  -0.020026  3.706443  -0.016  -0.120258  -0.004854  3.958493  -0.004  -0.127214  -0.004721  3.98094  -0.004  -0.074747  -0.11521  -0.005344  3.943586  -0.005
C  C43  1  0.06346648  0.59582831  0.59740156  1  -0.105238  -0.019967  3.706504  -0.016  -0.120234  -0.004874  3.958546  -0.004  -0.12719  -0.004702  3.98099  -0.004  -0.074743  -0.115178  0.005346  3.943629  0.005
C  C44  1  0.40417863  0.93653109  0.90259643  1  -0.105369  -0.020001  3.706515  -0.016  -0.120381  -0.00487  3.958585  -0.004  -0.127337  -0.004741  3.981029  -0.004  -0.074811  -0.115332  0.005344  3.943677  0.005
C  C45  1  0.93653064  0.40417518  0.40259651  1  -0.105369  -0.020038  3.706456  -0.016  -0.120378  -0.004858  3.958534  -0.004  -0.127333  -0.004712  3.980978  -0.004  -0.074797  -0.11533  -0.005345  3.943624  -0.005
C  C46  1  0.45589689  0.16440763  0.11634667  1  -0.001735  0.01442  3.713642  0.012  -0.020786  0.002409  3.966246  0.002  -0.01772  0.002979  3.986531  0.002  -0.063448  -0.023158  0.002136  3.953129  0.002
C  C47  1  0.16441173  0.45590075  0.61634387  1  -0.001778  0.014343  3.713755  0.012  -0.020845  0.002413  3.96636  0.002  -0.017775  0.002959  3.986644  0.002  -0.06347  -0.023215  -0.002136  3.95324  -0.002
C  C48  1  0.54410360  0.83559140  0.88365415  1  -0.001777  0.014345  3.713663  0.012  -0.020811  0.002409  3.966261  0.002  -0.017737  0.002959  3.986542  0.002  -0.063452  -0.02318  -0.002136  3.953142  -0.002
C  C49  1  0.83558570  0.54410163  0.38365427  1  -0.001762  0.014407  3.71356  0.012  -0.020822  0.002401  3.966182  0.002  -0.017742  0.002972  3.986467  0.002  -0.063452  -0.023193  0.002136  3.953066  0.002
C  C50  1  0.41257848  0.28734926  0.03425470  1  -0.131451  -0.016069  3.703347  -0.012  -0.150439  -0.00372  3.946638  -0.003  -0.157491  -0.003682  3.96961  -0.003  -0.077199  -0.146027  -0.003974  3.932111  -0.003
C  C51  1  0.28735128  0.41258167  0.53425439  1  -0.131489  -0.015979  3.703265  -0.012  -0.150455  -0.00371  3.946522  -0.003  -0.157501  -0.003689  3.969503  -0.003  -0.077201  -0.146052  0.003973  3.931998  0.003
C  C52  1  0.58742308  0.71264977  0.96574603  1  -0.131419  -0.015983  3.703371  -0.012  -0.150431  -0.003703  3.946653  -0.003  -0.157479  -0.00365  3.969639  -0.003  -0.077196  -0.146031  0.003974  3.93212  0.003
C  C53  1  0.71264645  0.58741958  0.46574559  1  -0.131468  -0.016097  3.703364  -0.013  -0.150475  -0.003708  3.946661  -0.003  -0.157522  -0.003684  3.96964  -0.003  -0.077238  -0.146076  -0.003974  3.932126  -0.003
C  C54  1  0.50907293  0.30452842  0.93425478  1  0.158185  0.010884  3.753906  0.011  0.159762  0.000706  3.994746  0.002  0.166081  0.001864  4.015751  0.003  0.118306  0.155192  -5e-05  3.981287  0.001
C  C55  1  0.30453215  0.50907645  0.43425034  1  0.158273  0.010825  3.753761  0.011  0.159887  0.000696  3.994526  0.002  0.166146  0.001891  4.015622  0.003  0.118294  0.155328  4.9e-05  3.981059  -0.001
C  C56  1  0.49092724  0.69547171  0.06574686  1  0.158133  0.010882  3.753853  0.011  0.15982  0.000693  3.99461  0.002  0.166079  0.001865  4.015702  0.003  0.118253  0.155283  5e-05  3.981109  -0.001
C  C57  1  0.69546923  0.49092703  0.56574912  1  0.158251  0.010935  3.753867  0.011  0.159883  0.000702  3.994591  0.002  0.166141  0.001875  4.015685  0.003  0.118283  0.155348  -5e-05  3.981088  0.001
C  C58  1  0.47495469  0.43015846  0.84189837  1  0.193519  -0.013436  3.740385  -0.012  0.188767  -0.001401  3.986101  -0.002  0.199078  -0.00225  4.004707  -0.003  0.127536  0.181306  -0.000859  3.97369  -0.002
C  C59  1  0.43015774  0.47495890  0.34189654  1  0.193482  -0.013262  3.740418  -0.012  0.188646  -0.001415  3.986225  -0.002  0.198969  -0.002254  4.00485  -0.003  0.127553  0.181185  0.000858  3.973806  0.002
C  C60  1  0.52504197  0.56984279  0.15810171  1  0.193585  -0.01329  3.740371  -0.012  0.188708  -0.001424  3.986215  -0.002  0.199036  -0.002268  4.004835  -0.003  0.12758  0.181235  0.000859  3.973797  0.002
C  C61  1  0.56984042  0.52504457  0.65810498  1  0.193402  -0.013467  3.740426  -0.012  0.188663  -0.001405  3.986113  -0.002  0.198986  -0.002253  4.004734  -0.003  0.127533  0.181192  -0.000858  3.973693  -0.002
C  C62  1  0.34902741  0.55337803  0.84404218  1  -0.131971  0.01642  3.672269  0.014  -0.152826  0.004032  3.926834  0.004  -0.160373  0.003909  3.946869  0.003  -0.073671  -0.147433  0.00412  3.913587  0.004
C  C63  1  0.55337906  0.34903051  0.34403792  1  -0.131794  0.016188  3.672276  0.014  -0.152655  0.004048  3.926833  0.004  -0.160198  0.003905  3.946867  0.003  -0.073634  -0.14726  -0.00412  3.913581  -0.004
C  C64  1  0.65097125  0.44661988  0.15595890  1  -0.131899  0.01625  3.672226  0.014  -0.152753  0.004057  3.926809  0.004  -0.160299  0.003928  3.946838  0.003  -0.073662  -0.147357  -0.00412  3.913561  -0.004
C  C65  1  0.44661898  0.65096963  0.65596213  1  -0.131784  0.016452  3.672304  0.014  -0.152704  0.004036  3.926862  0.004  -0.160247  0.003907  3.946895  0.003  -0.07366  -0.147307  0.00412  3.913615  0.004
C  C66  1  0.33573876  0.66425809  0.75000188  1  0.011896  -0.015189  3.70593  -0.012  -0.008088  -0.001844  3.959319  -0.001  -0.002579  -0.002198  3.978302  -0.002  -0.0601  -0.011955  -0.001939  3.946553  -0.002
C  C67  1  0.66425608  0.33574205  0.24999846  1  0.01174  -0.014969  3.706007  -0.012  -0.008254  -0.001857  3.959396  -0.001  -0.002747  -0.0022  3.978383  -0.002  -0.06014  -0.012113  0.001938  3.946618  0.002
N  N68  1  0.93245139  0.78792902  0.84256265  1  -0.422616  -0.000329  2.836785  0.0  -0.367822  0.000765  3.081284  0.001  -0.381935  0.000562  3.09331  0.001  -0.340866  -0.358683  0.001555  3.073357  0.001
N  N69  1  0.78794054  0.93245294  0.34256286  1  -0.422587  -0.000299  2.836955  0.0  -0.367782  0.00077  3.081413  0.001  -0.381903  0.000562  3.093436  0.001  -0.34075  -0.358646  -0.001555  3.073489  -0.001
N  N70  1  0.06754153  0.21206670  0.15743207  1  -0.422634  -0.000321  2.836697  0.0  -0.367828  0.000765  3.081191  0.001  -0.381939  0.000561  3.093214  0.001  -0.340794  -0.358687  -0.001555  3.073261  -0.001
N  N71  1  0.21207202  0.06754500  0.65743522  1  -0.422614  -0.000295  2.836752  0.0  -0.367793  0.00077  3.081228  0.001  -0.381915  0.00056  3.093258  0.001  -0.340776  -0.358658  0.001555  3.073307  0.001
N  N72  1  0.87631489  0.35431447  0.82770065  1  -0.377499  0.049571  3.060618  0.048  -0.349534  0.018597  3.359944  0.017  -0.370436  0.020115  3.369183  0.019  -0.357005  -0.336385  0.018629  3.354418  0.017
N  N73  1  0.35431914  0.87631973  0.32769855  1  -0.377461  0.049534  3.060501  0.048  -0.349491  0.018599  3.359813  0.017  -0.370404  0.020141  3.369053  0.019  -0.356966  -0.336347  -0.018629  3.354292  -0.017
N  N74  1  0.12368302  0.64568233  0.17230060  1  -0.377419  0.049537  3.060562  0.048  -0.349449  0.018597  3.35988  0.017  -0.370359  0.020147  3.36912  0.019  -0.356963  -0.3363  -0.018629  3.35435  -0.017
N  N75  1  0.64568480  0.12368598  0.67230313  1  -0.37749  0.049586  3.060587  0.048  -0.349528  0.018597  3.359906  0.017  -0.370433  0.02011  3.369149  0.019  -0.356995  -0.336382  0.018629  3.354381  0.017
N  N76  1  0.58024948  0.41974995  0.75000194  1  -0.3154  0.030721  3.369829  0.032  -0.285751  0.046062  3.654863  0.047  -0.316713  0.035028  3.675958  0.035  -0.324624  -0.264598  0.055223  3.640142  0.054
N  N77  1  0.41975038  0.58025131  0.24999785  1  -0.315406  0.030394  3.369898  0.032  -0.28569  0.046074  3.654987  0.047  -0.316655  0.035022  3.676078  0.035  -0.324626  -0.264536  -0.055219  3.640262  -0.054
N  N78  1  0.64405301  0.20379078  0.91520594  1  -0.29088  -0.111037  3.264879  -0.107  -0.254593  -0.069233  3.544491  -0.069  -0.281832  -0.057639  3.566382  -0.059  -0.306446  -0.236025  -0.076929  3.529884  -0.077
N  N79  1  0.20378789  0.64406007  0.41520500  1  -0.290941  -0.110984  3.265055  -0.107  -0.254574  -0.069228  3.544554  -0.069  -0.281797  -0.057658  3.566456  -0.059  -0.306451  -0.23602  0.076925  3.529958  0.077
N  N80  1  0.35594504  0.79620937  0.08479411  1  -0.290857  -0.111081  3.264902  -0.107  -0.254589  -0.069227  3.544485  -0.069  -0.281807  -0.057672  3.566388  -0.059  -0.306435  -0.236036  0.076925  3.529874  0.077
N  N81  1  0.79621103  0.35594452  0.58479635  1  -0.290979  -0.111087  3.264985  -0.107  -0.254674  -0.069237  3.544538  -0.069  -0.281892  -0.057644  3.56644  -0.059  -0.306447  -0.236127  -0.076929  3.529929  -0.077
O  O82  1  0.93335441  0.06664470  0.74999935  1  -0.824267  0.021124  2.006259  0.023  -0.790133  0.033223  2.224413  0.036  -0.817767  0.026709  2.186764  0.029  -0.587368  -0.770515  0.040808  2.247034  0.043
O  O83  1  0.06664959  0.93335321  0.25000214  1  -0.82423  0.021053  2.006413  0.023  -0.7901  0.033223  2.224519  0.036  -0.817737  0.026704  2.186883  0.029  -0.587324  -0.770483  -0.040806  2.247137  -0.043
