# generated using pymatgen
data_CdH38C30(N2O3)2
_symmetry_space_group_name_H-M   'P 1'
_cell_length_a   8.80995748
_cell_length_b   9.38430330
_cell_length_c   10.84689220
_cell_angle_alpha   98.42349594
_cell_angle_beta   114.00851150
_cell_angle_gamma   89.99786145
_symmetry_Int_Tables_number   1
_chemical_formula_structural   CdH38C30(N2O3)2
_chemical_formula_sum   'Cd1 H38 C30 N4 O6'
_cell_volume   808.58662194
_cell_formula_units_Z   1
loop_
 _symmetry_equiv_pos_site_id
 _symmetry_equiv_pos_as_xyz
  1  'x, y, z'
loop_
 _atom_site_type_symbol
 _atom_site_label
 _atom_site_symmetry_multiplicity
 _atom_site_fract_x
 _atom_site_fract_y
 _atom_site_fract_z
 _atom_site_occupancy
 _atom_site_hle17_bader_spin_density
 _atom_site_hle17_ddec_charge
 _atom_site_hle17_ddec_spin_density
 _atom_site_hle17_ddec_sum_bond_order
 _atom_site_hle17_magmom
 _atom_site_hse06_10hf_bader_spin_density
 _atom_site_hse06_10hf_ddec_charge
 _atom_site_hse06_10hf_ddec_spin_density
 _atom_site_hse06_10hf_ddec_sum_bond_order
 _atom_site_hse06_10hf_magmom
 _atom_site_hse06_bader_spin_density
 _atom_site_hse06_ddec_charge
 _atom_site_hse06_ddec_spin_density
 _atom_site_hse06_ddec_sum_bond_order
 _atom_site_hse06_magmom
 _atom_site_pbe_bader_spin_density
 _atom_site_pbe_cm5_charge
 _atom_site_pbe_ddec_charge
 _atom_site_pbe_ddec_spin_density
 _atom_site_pbe_ddec_sum_bond_order
 _atom_site_pbe_magmom
Cd  Cd0  1  0.86680079  0.00010194  0.00008325  1  0  1.048101  0  1.739201  0  0  0.849498  0  2.191127  0  0  0.910078  0  2.13792  0  0  0.753531  0.806906  0  2.227576  0
H  H1  1  0.09702539  0.60053501  0.66436469  1  0  0.304694  0  0.863579  0  0  0.296316  0  0.909703  0  0  0.302513  0  0.905969  0  0  0.332352  0.291814  0  0.912683  0
H  H2  1  0.43288100  0.39931004  0.33576040  1  0  0.304084  0  0.86499  0  0  0.29633  0  0.910349  0  0  0.302539  0  0.906575  0  0  0.33223  0.291822  0  0.913365  0
H  H3  1  0.53208796  0.49301745  0.76469351  1  0  0.135649  0  0.9646  0  0  0.143775  0  1.022817  0  0  0.148118  0  1.020612  0  0  0.115143  0.140748  0  1.024447  0
H  H4  1  0.76694895  0.50693017  0.23500129  1  0  0.13584  0  0.964085  0  0  0.143583  0  1.022601  0  0  0.147927  0  1.020393  0  0  0.115155  0.140499  0  1.024328  0
H  H5  1  0.77054250  0.67630666  0.89545276  1  0  0.088205  0  0.929663  0  0  0.0996  0  0.986655  0  0  0.102068  0  0.98412  0  0  0.121791  0.09771  0  0.98868  0
H  H6  1  0.87390490  0.32381124  0.10377185  1  0  0.088184  0  0.930242  0  0  0.09921  0  0.987859  0  0  0.101659  0  0.985364  0  0  0.121532  0.097302  0  0.989917  0
H  H7  1  0.45604459  0.00964416  0.86453178  1  0  0.078086  0  0.934571  0  0  0.088733  0  0.994197  0  0  0.090875  0  0.992464  0  0  0.119765  0.087125  0  0.995453  0
H  H8  1  0.59112308  0.99021262  0.13507939  1  0  0.078573  0  0.933936  0  0  0.088857  0  0.993896  0  0  0.091073  0  0.992062  0  0  0.119728  0.08723  0  0.995149  0
H  H9  1  0.20314532  0.84080632  0.74586690  1  0  0.130573  0  0.939644  0  0  0.141155  0  0.996979  0  0  0.14538  0  0.994828  0  0  0.116674  0.137996  0  0.998874  0
H  H10  1  0.45738259  0.15892088  0.25409032  1  0  0.131426  0  0.939979  0  0  0.141519  0  0.997584  0  0  0.145709  0  0.995502  0  0  0.116857  0.138368  0  0.999518  0
H  H11  1  0.93512576  0.40580504  0.54081276  1  0  0.072973  0  0.935777  0  0  0.082627  0  0.999053  0  0  0.084555  0  0.998566  0  0  0.099588  0.081249  0  0.999622  0
H  H12  1  0.39482980  0.59427879  0.45925730  1  0  0.073525  0  0.936119  0  0  0.083284  0  0.99885  0  0  0.085277  0  0.998311  0  0  0.099809  0.081675  0  0.999573  0
H  H13  1  0.91821836  0.19214377  0.39650051  1  0  0.063176  0  0.974234  0  0  0.078199  0  1.041239  0  0  0.077893  0  1.044358  0  0  0.081776  0.078401  0  1.03904  0
H  H14  1  0.52317423  0.80790418  0.60350610  1  0  0.062634  0  0.973808  0  0  0.077682  0  1.040769  0  0  0.077376  0  1.04388  0  0  0.081313  0.077906  0  1.038599  0
H  H15  1  0.12157210  0.15139797  0.49713606  1  0  0.080784  0  0.951257  0  0  0.09485  0  1.016637  0  0  0.096936  0  1.015112  0  0  0.090405  0.093215  0  1.017919  0
H  H16  1  0.62500181  0.84859683  0.50242913  1  0  0.079468  0  0.952004  0  0  0.093777  0  1.017273  0  0  0.095922  0  1.015655  0  0  0.089931  0.092159  0  1.018564  0
H  H17  1  0.82979934  0.01184261  0.49222122  1  0  0.076503  0  0.934054  0  0  0.096115  0  0.991018  0  0  0.097008  0  0.991162  0  0  0.091004  0.095377  0  0.991145  0
H  H18  1  0.33834714  0.98804956  0.50810471  1  0  0.076063  0  0.934154  0  0  0.095628  0  0.991573  0  0  0.096485  0  0.991758  0  0  0.090643  0.094867  0  0.991758  0
H  H19  1  0.02990411  0.01289728  0.62268509  1  0  0.065622  0  0.967116  0  0  0.077138  0  1.039713  0  0  0.078784  0  1.038457  0  0  0.084166  0.076056  0  1.040449  0
H  H20  1  0.40732722  0.98723302  0.37747255  1  0  0.066089  0  0.968114  0  0  0.077773  0  1.040596  0  0  0.079416  0  1.039351  0  0  0.084459  0.076614  0  1.041466  0
H  H21  1  0.23128193  0.17167650  0.78551753  1  0  0.103879  0  0.954947  0  0  0.128349  0  1.012334  0  0  0.129413  0  1.012891  0  0  0.089419  0.127521  0  1.012033  0
H  H22  1  0.44532325  0.82860307  0.21452456  1  0  0.104091  0  0.955708  0  0  0.12827  0  1.013301  0  0  0.129307  0  1.0139  0  0  0.089567  0.127502  0  1.012884  0
H  H23  1  0.17097263  0.23889811  0.91984600  1  0  0.107415  0  0.95136  0  0  0.12949  0  1.010469  0  0  0.130853  0  1.010748  0  0  0.089794  0.128408  0  1.010473  0
H  H24  1  0.25039786  0.76133857  0.08026924  1  0  0.107592  0  0.951221  0  0  0.129966  0  1.009963  0  0  0.131353  0  1.010217  0  0  0.089841  0.128857  0  1.010026  0
H  H25  1  0.28408824  0.35416424  0.86695371  1  0  0.096464  0  0.953778  0  0  0.117543  0  1.01523  0  0  0.119023  0  1.015555  0  0  0.083443  0.116542  0  1.014903  0
H  H26  1  0.41661121  0.64614491  0.13296178  1  0  0.096454  0  0.95396  0  0  0.117432  0  1.015453  0  0  0.118924  0  1.015776  0  0  0.083194  0.116369  0  1.015227  0
H  H27  1  0.07463856  0.52708490  0.84935970  1  0  0.093767  0  0.961127  0  0  0.114614  0  1.024355  0  0  0.115883  0  1.024844  0  0  0.082769  0.113506  0  1.024485  0
H  H28  1  0.22520086  0.47305603  0.15063787  1  0  0.094296  0  0.960598  0  0  0.114934  0  1.023936  0  0  0.116175  0  1.024447  0  0  0.082865  0.113852  0  1.024014  0
H  H29  1  0.92997641  0.41547365  0.87318655  1  0  0.119977  0  0.960495  0  0  0.139909  0  1.022021  0  0  0.141985  0  1.021422  0  0  0.091021  0.138388  0  1.022446  0
H  H30  1  0.05648857  0.58448172  0.12682070  1  0  0.120127  0  0.960198  0  0  0.139981  0  1.021867  0  0  0.142034  0  1.021288  0  0  0.091102  0.138451  0  1.022323  0
H  H31  1  0.86597744  0.49582023  0.72263489  1  0  0.095651  0  0.955977  0  0  0.116483  0  1.019506  0  0  0.117546  0  1.019941  0  0  0.084359  0.115642  0  1.019297  0
H  H32  1  0.14350916  0.50403699  0.27731116  1  0  0.095351  0  0.956423  0  0  0.116534  0  1.019573  0  0  0.117634  0  1.019962  0  0  0.084361  0.115704  0  1.019353  0
H  H33  1  0.66889438  0.29713737  0.66956880  1  0  0.112627  0  0.958214  0  0  0.132097  0  1.020597  0  0  0.134381  0  1.019022  0  0  0.088363  0.130501  0  1.021601  0
H  H34  1  0.99978167  0.70271493  0.33091672  1  0  0.112669  0  0.958715  0  0  0.132211  0  1.020919  0  0  0.134464  0  1.019409  0  0  0.08848  0.13056  0  1.022011  0
H  H35  1  0.61906347  0.13708411  0.54867408  1  0  0.105046  0  0.959696  0  0  0.129394  0  1.018411  0  0  0.129922  0  1.01959  0  0  0.089921  0.129011  0  1.01756  0
H  H36  1  0.07098183  0.86279294  0.45176213  1  0  0.104691  0  0.9602  0  0  0.128858  0  1.019192  0  0  0.129402  0  1.020338  0  0  0.089621  0.128478  0  1.018273  0
H  H37  1  0.70289291  0.29293914  0.51805637  1  0  0.08858  0  0.993496  0  0  0.107122  0  1.063223  0  0  0.108059  0  1.064491  0  0  0.079403  0.106532  0  1.062225  0
H  H38  1  0.18570806  0.70705808  0.48235184  1  0  0.087925  0  0.992963  0  0  0.10615  0  1.063186  0  0  0.107085  0  1.064481  0  0  0.078845  0.105522  0  1.062243  0
C  C39  1  0.51048440  0.60600983  0.78598608  1  0  -0.225806  0  3.695045  0  0  -0.244548  0  3.94527  0  0  -0.254948  0  3.964112  0  0  -0.09143  -0.238154  0  3.933214  0
C  C40  1  0.72401006  0.39392961  0.21368071  1  0  -0.225505  0  3.694814  0  0  -0.243621  0  3.944955  0  0  -0.253972  0  3.96378  0  0  -0.091176  -0.237175  0  3.932666  0
C  C41  1  0.64253244  0.70816216  0.85679559  1  0  0.147355  0  3.73414  0  0  0.117585  0  3.984415  0  0  0.126914  0  4.001752  0  0  0.049157  0.111564  0  3.972733  0
C  C42  1  0.78487294  0.29185901  0.14263346  1  0  0.148165  0  3.733688  0  0  0.118412  0  3.98414  0  0  0.127708  0  4.001515  0  0  0.049626  0.112437  0  3.972507  0
C  C43  1  0.46734086  0.89397010  0.84183704  1  0  0.139399  0  3.753607  0  0  0.107194  0  4.010444  0  0  0.116095  0  4.029023  0  0  0.047322  0.101485  0  3.997438  0
C  C44  1  0.62516284  0.10589389  0.15783501  1  0  0.139414  0  3.751467  0  0  0.1077  0  4.008141  0  0  0.11654  0  4.026653  0  0  0.047424  0.101965  0  3.995473  0
C  C45  1  0.32691832  0.80001444  0.77394970  1  0  -0.225145  0  3.692379  0  0  -0.241455  0  3.944222  0  0  -0.251978  0  3.963488  0  0  -0.086239  -0.234416  0  3.931193  0
C  C46  1  0.55285723  0.19978879  0.22588850  1  0  -0.225694  0  3.692937  0  0  -0.241572  0  3.944565  0  0  -0.252064  0  3.963851  0  0  -0.085979  -0.234726  0  3.931765  0
C  C47  1  0.34761992  0.65233822  0.74258394  1  0  0.312843  0  3.800714  0  0  0.299207  0  4.055652  0  0  0.313428  0  4.073458  0  0  0.121407  0.289709  0  4.043723  0
C  C48  1  0.60487704  0.34749839  0.25727887  1  0  0.311886  0  3.800872  0  0  0.298357  0  4.055853  0  0  0.312488  0  4.073742  0  0  0.120827  0.289032  0  4.043575  0
C  C49  1  0.19895573  0.41301485  0.62121243  1  0  0.578355  0  3.749603  0  0  0.534898  0  4.041227  0  0  0.562922  0  4.040677  0  0  0.24897  0.516096  0  4.040706  0
C  C50  1  0.57796848  0.58680726  0.37871795  1  0  0.579222  0  3.747917  0  0  0.535149  0  4.040439  0  0  0.563167  0  4.039889  0  0  0.24931  0.51627  0  4.039907  0
C  C51  1  0.03456163  0.33553554  0.59111594  1  0  -0.173181  0  3.60107  0  0  -0.17711  0  3.833345  0  0  -0.183104  0  3.847408  0  0  -0.08458  -0.173286  0  3.823986  0
C  C52  1  0.44381301  0.66442556  0.40882989  1  0  -0.174946  0  3.602663  0  0  -0.178296  0  3.834222  0  0  -0.184415  0  3.848499  0  0  -0.084996  -0.173997  0  3.824305  0
C  C53  1  0.00492962  0.18625232  0.50181144  1  0  -0.117366  0  3.644908  0  0  -0.163264  0  3.903002  0  0  -0.163668  0  3.916084  0  0  -0.171439  -0.162652  0  3.893832  0
C  C54  1  0.50386902  0.81372541  0.49808596  1  0  -0.114562  0  3.643606  0  0  -0.160351  0  3.901349  0  0  -0.160798  0  3.914435  0  0  -0.170004  -0.159944  0  3.892251  0
C  C55  1  0.93528168  0.08359216  0.56765729  1  0  -0.147536  0  3.650551  0  0  -0.194755  0  3.909434  0  0  -0.195137  0  3.921955  0  0  -0.169003  -0.194366  0  3.900538  0
C  C56  1  0.36817493  0.91639603  0.43256009  1  0  -0.14792  0  3.651964  0  0  -0.196138  0  3.912316  0  0  -0.196508  0  3.924833  0  0  -0.169336  -0.195775  0  3.903681  0
C  C57  1  0.88491282  0.18057658  0.67014958  1  0  -0.007854  0  3.523935  0  0  0.022965  0  3.745133  0  0  0.016907  0  3.763444  0  0  -0.011469  0.027103  0  3.732516  0
C  C58  1  0.21501004  0.81946509  0.33010400  1  0  -0.00617  0  3.520025  0  0  0.025042  0  3.740955  0  0  0.019081  0  3.759082  0  0  -0.011351  0.029082  0  3.728477  0
C  C59  1  0.02075588  0.31139096  0.72714102  1  0  0.167736  0  3.461824  0  0  0.197059  0  3.691406  0  0  0.197745  0  3.711683  0  0  -0.002291  0.196696  0  3.67751  0
C  C60  1  0.29355383  0.68865216  0.27290882  1  0  0.166881  0  3.464217  0  0  0.196612  0  3.69238  0  0  0.197234  0  3.712852  0  0  -0.001911  0.196191  0  3.678375  0
C  C61  1  0.18637173  0.26594015  0.83021411  1  0  -0.343535  0  3.66925  0  0  -0.425724  0  3.904802  0  0  -0.429139  0  3.91617  0  0  -0.246297  -0.423135  0  3.896828  0
C  C62  1  0.35569632  0.73428375  0.16983262  1  0  -0.344365  0  3.671233  0  0  -0.42657  0  3.906709  0  0  -0.429957  0  3.918033  0  0  -0.246535  -0.423823  0  3.898633  0
C  C63  1  0.96961640  0.44566719  0.79625190  1  0  -0.353879  0  3.690441  0  0  -0.438198  0  3.933586  0  0  -0.441615  0  3.944749  0  0  -0.251205  -0.435639  0  3.92607  0
C  C64  1  0.17326383  0.55435460  0.20373657  1  0  -0.35362  0  3.69169  0  0  -0.438208  0  3.935323  0  0  -0.441593  0  3.946452  0  0  -0.251226  -0.435636  0  3.927808  0
C  C65  1  0.70889218  0.23084406  0.59785112  1  0  -0.314151  0  3.66327  0  0  -0.39798  0  3.899724  0  0  -0.399671  0  3.910092  0  0  -0.246763  -0.396548  0  3.892337  0
C  C66  1  0.11159732  0.76909074  0.40255060  1  0  -0.313409  0  3.661777  0  0  -0.396848  0  3.898517  0  0  -0.398578  0  3.908875  0  0  -0.246094  -0.395389  0  3.891134  0
C  C67  1  0.88916711  0.10658080  0.78801705  1  0  0.633684  0  3.847619  0  0  0.589289  0  4.133801  0  0  0.622024  0  4.131014  0  0  0.192968  0.567125  0  4.134532  0
C  C68  1  0.10108695  0.89360994  0.21239346  1  0  0.632681  0  3.847891  0  0  0.588021  0  4.13461  0  0  0.620745  0  4.131884  0  0  0.192376  0.565838  0  4.135356  0
N  N69  1  0.62325869  0.84998813  0.88309216  1  0  -0.349854  0  3.273328  0  0  -0.276899  0  3.545612  0  0  -0.298245  0  3.563447  0  0  -0.341198  -0.262595  0  3.533112  0
N  N70  1  0.73945118  0.15000316  0.11634024  1  0  -0.350973  0  3.270852  0  0  -0.278133  0  3.543405  0  0  -0.299474  0  3.561275  0  0  -0.341908  -0.263938  0  3.531152  0
N  N71  1  0.20699519  0.55880615  0.67366969  1  0  -0.463222  0  3.33764  0  0  -0.40735  0  3.576299  0  0  -0.42981  0  3.583603  0  0  -0.39837  -0.391962  0  3.570824  0
N  N72  1  0.53348699  0.44099992  0.32637317  1  0  -0.462524  0  3.339249  0  0  -0.407326  0  3.578173  0  0  -0.429718  0  3.585476  0  0  -0.397776  -0.39203  0  3.572682  0
O  O73  1  0.31781103  0.35498149  0.60768309  1  0  -0.511884  0  1.891917  0  0  -0.471736  0  2.095463  0  0  -0.490718  0  2.089918  0  0  -0.279512  -0.458531  0  2.098853  0
O  O74  1  0.71039050  0.64480242  0.39214979  1  0  -0.511867  0  1.889225  0  0  -0.471682  0  2.093345  0  0  -0.490648  0  2.087792  0  0  -0.279622  -0.458496  0  2.096782  0
O  O75  1  0.84124948  0.18013756  0.87396943  1  0  -0.651513  0  1.966835  0  0  -0.585614  0  2.205042  0  0  -0.615876  0  2.196117  0  0  -0.344281  -0.564029  0  2.210161  0
O  O76  1  0.96690580  0.82020364  0.12654615  1  0  -0.651401  0  1.967289  0  0  -0.585411  0  2.205489  0  0  -0.615717  0  2.196576  0  0  -0.344211  -0.563913  0  2.210587  0
O  O77  1  0.93856803  0.98024493  0.80004802  1  0  -0.638362  0  1.883543  0  0  -0.58197  0  2.105041  0  0  -0.608436  0  2.095112  0  0  -0.343699  -0.563477  0  2.111506  0
O  O78  1  0.13853772  0.01990333  0.20033035  1  0  -0.638229  0  1.883295  0  0  -0.581718  0  2.104934  0  0  -0.60824  0  2.095076  0  0  -0.343703  -0.563346  0  2.111567  0
