# generated using pymatgen
data_AlH9C21N3(O2F)3
_symmetry_space_group_name_H-M   'P 1'
_cell_length_a   3.96659383
_cell_length_b   27.91854590
_cell_length_c   27.92100217
_cell_angle_alpha   120.00937091
_cell_angle_beta   89.99066987
_cell_angle_gamma   90.00351903
_symmetry_Int_Tables_number   1
_chemical_formula_structural   AlH9C21N3(O2F)3
_chemical_formula_sum   'Al2 H18 C42 N6 O12 F6'
_cell_volume   2677.51022452
_cell_formula_units_Z   2
loop_
 _symmetry_equiv_pos_site_id
 _symmetry_equiv_pos_as_xyz
  1  'x, y, z'
loop_
 _atom_site_type_symbol
 _atom_site_label
 _atom_site_symmetry_multiplicity
 _atom_site_fract_x
 _atom_site_fract_y
 _atom_site_fract_z
 _atom_site_occupancy
 _atom_site_pbe_bader_charge
 _atom_site_pbe_bader_spin_density
 _atom_site_pbe_cm5_charge
 _atom_site_pbe_ddec_charge
 _atom_site_pbe_ddec_spin_density
 _atom_site_pbe_ddec_sum_bond_order
 _atom_site_pbe_magmom
Al  Al0  1  0.99294631  0.49994983  0.50000126  1  2.504809  0  0.427178  1.593361  0  2.58046  0
Al  Al1  1  0.99317256  0.16670470  0.83332942  1  2.504662  0  0.427132  1.593295  0  2.580509  0
H  H2  1  0.30977961  0.18387537  0.69499621  1  0.104373  0  0.117163  0.125128  0  0.967775  0
H  H3  1  0.33419803  0.23735752  0.64462005  1  0.119611  0  0.109488  0.115784  0  1.006715  0
H  H4  1  0.66862976  0.38088674  0.79487349  1  0.113414  0  0.119502  0.148185  0  0.973797  0
H  H5  1  0.66861503  0.28577304  0.53844299  1  0.113171  0  0.119611  0.148264  0  0.973847  0
H  H6  1  0.33431426  0.42930861  0.68873097  1  0.119403  0  0.109407  0.115642  0  1.006459  0
H  H7  1  0.30973851  0.48278730  0.63835267  1  0.104624  0  0.117141  0.125119  0  0.967676  0
H  H8  1  0.30991471  0.01117089  0.81614818  1  0.104913  0  0.117152  0.12514  0  0.967487  0
H  H9  1  0.33442531  0.90722889  0.76258274  1  0.099817  0  0.109394  0.115713  0  1.00744  0
H  H10  1  0.66865367  0.91396890  0.61912056  1  0.107297  0  0.11946  0.148199  0  0.973774  0
H  H11  1  0.66871076  0.75269494  0.71419584  1  0.107259  0  0.119554  0.148245  0  0.973856  0
H  H12  1  0.33414107  0.75942587  0.57076146  1  0.100949  0  0.109567  0.11586  0  1.007116  0
H  H13  1  0.30944203  0.65548114  0.51721570  1  0.10543  0  0.117166  0.125093  0  0.967483  0
H  H14  1  0.30975194  0.30501328  0.98888942  1  0.099578  0  0.117228  0.12531  0  0.967621  0
H  H15  1  0.33445760  0.35538949  0.09280853  1  0.13577  0  0.109259  0.115525  0  1.007046  0
H  H16  1  0.66860005  0.20510064  0.08594650  1  0.103486  0  0.119557  0.1482  0  0.97391  0
H  H17  1  0.66866103  0.46159250  0.24739667  1  0.102978  0  0.119631  0.148286  0  0.974079  0
H  H18  1  0.33440634  0.31130046  0.24052494  1  0.136103  0  0.109309  0.115561  0  1.007229  0
H  H19  1  0.30965277  0.36166127  0.34444323  1  0.100463  0  0.117109  0.12517  0  0.967497  0
C  C20  1  0.49344894  0.46510961  0.41541098  1  1.611898  0  0.278218  0.672  0  4.061161  0
C  C21  1  0.49337227  0.45021883  0.53485429  1  1.606616  0  0.278644  0.672318  0  4.058939  0
C  C22  1  0.49335664  0.58456048  0.54973760  1  1.575664  0  0.278245  0.672402  0  4.059666  0
C  C23  1  0.49366523  0.21643006  0.79846622  1  1.605754  0  0.278805  0.673084  0  4.05948  0
C  C24  1  0.49365057  0.08209396  0.78361035  1  1.577532  0  0.278593  0.673217  0  4.059035  0
C  C25  1  0.49349276  0.20155783  0.91792391  1  1.611558  0  0.278194  0.672121  0  4.060651  0
C  C26  1  0.49568876  0.25074509  0.77142610  1  -0.017545  0  -0.011925  -0.143412  0  3.940565  0
C  C27  1  0.39444988  0.22676184  0.71576948  1  0.01625  0  -0.071033  -0.052986  0  3.966521  0
C  C28  1  0.40671168  0.25612268  0.68789939  1  -0.023082  0  -0.086554  -0.162313  0  3.962811  0
C  C29  1  0.50952985  0.31184097  0.71645781  1  0.346956  0  0.091894  0.197325  0  4.05616  0
C  C30  1  0.59803112  0.33736016  0.77250555  1  0.040129  0  -0.088333  -0.273364  0  3.947784  0
C  C31  1  0.59752547  0.30623060  0.79863223  1  0.433005  0  0.110187  0.29061  0  4.041535  0
C  C32  1  0.59800183  0.32930100  0.56082131  1  0.041828  0  -0.088312  -0.27323  0  3.947892  0
C  C33  1  0.50956537  0.35482014  0.61687787  1  0.347168  0  0.092024  0.197074  0  4.056252  0
C  C34  1  0.40674867  0.41053961  0.64543721  1  -0.024068  0  -0.086477  -0.162051  0  3.962596  0
C  C35  1  0.39438229  0.43989878  0.61756921  1  0.016592  0  -0.071144  -0.053126  0  3.966426  0
C  C36  1  0.49550344  0.41590910  0.56190265  1  -0.016503  0  -0.011875  -0.143277  0  3.940054  0
C  C37  1  0.59735535  0.36042426  0.53469163  1  0.430705  0  0.110167  0.290676  0  4.041577  0
C  C38  1  0.49570252  0.02071637  0.74928052  1  0.075829  0  -0.011998  -0.143436  0  3.940082  0
C  C39  1  0.39449957  0.98903699  0.77325751  1  0.030062  0  -0.070983  -0.052747  0  3.965877  0
C  C40  1  0.40678206  0.93179092  0.74387222  1  -0.030021  0  -0.086411  -0.162225  0  3.963452  0
C  C41  1  0.50959106  0.90462822  0.68815801  1  0.35263  0  0.091781  0.196945  0  4.057063  0
C  C42  1  0.59808996  0.93517203  0.66265119  1  -0.043366  0  -0.088311  -0.273315  0  3.947499  0
C  C43  1  0.59755801  0.99243907  0.69379234  1  0.484975  0  0.110382  0.290749  0  4.041554  0
C  C44  1  0.59799453  0.73148978  0.67068044  1  -0.04375  0  -0.088392  -0.273307  0  3.947589  0
C  C45  1  0.50946497  0.76202810  0.64516997  1  0.395137  0  0.092033  0.19731  0  4.05667  0
C  C46  1  0.40650294  0.73486333  0.58947287  1  -0.074077  0  -0.086827  -0.16236  0  3.964039  0
C  C47  1  0.39413202  0.67762553  0.56010124  1  0.02332  0  -0.070911  -0.052829  0  3.966356  0
C  C48  1  0.49540644  0.64593724  0.58406748  1  0.071861  0  -0.011762  -0.143302  0  3.939662  0
C  C49  1  0.59734662  0.67422293  0.63954773  1  0.495173  0  0.110086  0.290569  0  4.041523  0
C  C50  1  0.49546273  0.22857068  0.97928481  1  -0.016677  0  -0.011627  -0.142661  0  3.939465  0
C  C51  1  0.39436428  0.28423732  0.01099395  1  -0.06635  0  -0.071417  -0.053787  0  3.966274  0
C  C52  1  0.40674586  0.31208965  0.06822862  1  0.057367  0  -0.086207  -0.161543  0  3.962616  0
C  C53  1  0.50951932  0.28352832  0.09537265  1  0.299126  0  0.091821  0.196762  0  4.05664  0
C  C54  1  0.59796106  0.22746324  0.06479983  1  0.13008  0  -0.088368  -0.273297  0  3.947348  0
C  C55  1  0.59739781  0.20134787  0.00753422  1  0.400355  0  0.110239  0.290614  0  4.040909  0
C  C56  1  0.59795458  0.43922938  0.26853984  1  0.127003  0  -0.088385  -0.273156  0  3.947824  0
C  C57  1  0.50946870  0.38316522  0.23796481  1  0.302354  0  0.091922  0.197045  0  4.055958  0
C  C58  1  0.40667536  0.35459179  0.26510229  1  0.056538  0  -0.086417  -0.16191  0  3.962993  0
C  C59  1  0.39429262  0.38244087  0.32233706  1  -0.067123  0  -0.071202  -0.05337  0  3.96604  0
C  C60  1  0.49543703  0.43810477  0.35405276  1  -0.016453  0  -0.011759  -0.142965  0  3.940055  0
C  C61  1  0.59737578  0.46532936  0.32580081  1  0.400143  0  0.110266  0.290695  0  4.041835  0
N  N62  1  0.52042998  0.34625956  0.69287209  1  -0.543307  0  -0.144602  -0.128919  0  3.258779  0
N  N63  1  0.52050010  0.32040377  0.64046242  1  -0.378446  0  -0.144542  -0.128553  0  3.258891  0
N  N64  1  0.52053898  0.84662180  0.65374986  1  -0.404042  0  -0.144595  -0.12867  0  3.259501  0
N  N65  1  0.52055864  0.82003956  0.67957771  1  -0.525122  0  -0.1447  -0.12908  0  3.259272  0
N  N66  1  0.52043490  0.30713968  0.15338183  1  -0.550371  0  -0.144319  -0.128155  0  3.25918  0
N  N67  1  0.52047874  0.35955672  0.17995096  1  -0.390212  0  -0.144779  -0.129345  0  3.259144  0
O  O68  1  0.72912780  0.55785361  0.55694599  1  -1.244078  0  -0.233393  -0.592332  0  2.374916  0
O  O69  1  0.72925931  0.49901849  0.44212019  1  -1.246835  0  -0.233305  -0.592126  0  2.375216  0
O  O70  1  0.72912306  0.44299355  0.50091848  1  -1.240574  0  -0.233448  -0.591819  0  2.374119  0
O  O71  1  0.25768559  0.56297794  0.51409675  1  -1.251517  0  -0.233006  -0.590967  0  2.358429  0
O  O72  1  0.25761526  0.48584993  0.54890900  1  -1.243183  0  -0.233214  -0.591254  0  2.358443  0
O  O73  1  0.25780938  0.45102861  0.43697869  1  -1.245091  0  -0.233237  -0.590872  0  2.35915  0
O  O74  1  0.72932131  0.16764497  0.89121132  1  -1.246823  0  -0.233288  -0.592302  0  2.375444  0
O  O75  1  0.72939959  0.22365960  0.83239323  1  -1.240285  0  -0.233582  -0.592305  0  2.37446  0
O  O76  1  0.72946792  0.10879841  0.77639270  1  -1.244851  0  -0.233722  -0.592902  0  2.374504  0
O  O77  1  0.25789930  0.21563765  0.89635401  1  -1.244814  0  -0.233282  -0.590948  0  2.358839  0
O  O78  1  0.25792726  0.10368216  0.81925004  1  -1.252671  0  -0.233049  -0.591256  0  2.358828  0
O  O79  1  0.25799004  0.18078473  0.78440950  1  -1.242501  0  -0.233327  -0.591367  0  2.358636  0
F  F80  1  0.68719684  0.33173179  0.85276365  1  -0.630039  0  -0.100055  -0.13655  0  1.325214  0
F  F81  1  0.68691081  0.33491732  0.48055142  1  -0.629778  0  -0.100178  -0.136656  0  1.325125  0
F  F82  1  0.68718538  0.02110576  0.66832879  1  -0.631432  0  -0.100026  -0.13649  0  1.325384  0
F  F83  1  0.68703065  0.64555780  0.66500980  1  -0.631437  0  -0.100012  -0.13653  0  1.325242  0
F  F84  1  0.68703287  0.14720564  0.97883493  1  -0.627718  0  -0.100081  -0.136551  0  1.325062  0
F  F85  1  0.68706468  0.51947415  0.35450747  1  -0.627568  0  -0.100141  -0.136681  0  1.325184  0
