# generated using pymatgen
data_Zn4H13C9SN16O7
_symmetry_space_group_name_H-M   'P 1'
_cell_length_a   7.34389732
_cell_length_b   12.95694576
_cell_length_c   12.95688141
_cell_angle_alpha   88.13946917
_cell_angle_beta   84.86901555
_cell_angle_gamma   84.86909124
_symmetry_Int_Tables_number   1
_chemical_formula_structural   Zn4H13C9SN16O7
_chemical_formula_sum   'Zn8 H26 C18 S2 N32 O14'
_cell_volume   1222.67225780
_cell_formula_units_Z   2
loop_
 _symmetry_equiv_pos_site_id
 _symmetry_equiv_pos_as_xyz
  1  'x, y, z'
loop_
 _atom_site_type_symbol
 _atom_site_label
 _atom_site_symmetry_multiplicity
 _atom_site_fract_x
 _atom_site_fract_y
 _atom_site_fract_z
 _atom_site_occupancy
 _atom_site_hle17_bader_spin_density
 _atom_site_hle17_ddec_charge
 _atom_site_hle17_ddec_spin_density
 _atom_site_hle17_ddec_sum_bond_order
 _atom_site_hle17_magmom
 _atom_site_hse06_10hf_bader_spin_density
 _atom_site_hse06_10hf_ddec_charge
 _atom_site_hse06_10hf_ddec_spin_density
 _atom_site_hse06_10hf_ddec_sum_bond_order
 _atom_site_hse06_10hf_magmom
 _atom_site_hse06_bader_spin_density
 _atom_site_hse06_ddec_charge
 _atom_site_hse06_ddec_spin_density
 _atom_site_hse06_ddec_sum_bond_order
 _atom_site_hse06_magmom
 _atom_site_pbe_bader_spin_density
 _atom_site_pbe_cm5_charge
 _atom_site_pbe_ddec_charge
 _atom_site_pbe_ddec_spin_density
 _atom_site_pbe_ddec_sum_bond_order
 _atom_site_pbe_magmom
Zn  Zn0  1  0.50000158  0.84385194  0.15614785  1  0  0.878979  0  2.059109  0  0  0.687814  0  2.520989  0  0  0.729066  0  2.479086  0  0  0.694383  0.659318  0  2.549462  0
Zn  Zn1  1  0.49999923  0.15615659  0.84384461  1  0  0.87885  0  2.059404  0  0  0.687698  0  2.52127  0  0  0.72894  0  2.479376  0  0  0.694396  0.659233  0  2.549731  0
Zn  Zn2  1  0.00000154  0.82042621  0.17957061  1  0  0.903082  0  1.993319  0  0  0.700589  0  2.476714  0  0  0.739928  0  2.430995  0  0  0.756208  0.673513  0  2.508192  0
Zn  Zn3  1  0.00000187  0.17957295  0.82042857  1  0  0.90295  0  1.993424  0  0  0.700469  0  2.476752  0  0  0.739804  0  2.43104  0  0  0.756137  0.673387  0  2.508227  0
Zn  Zn4  1  0.27811773  0.78587878  0.61086473  1  0  1.05506  0  1.922867  0  0  0.878051  0  2.400332  0  0  0.918675  0  2.345949  0  0  0.702904  0.849751  0  2.437914  0
Zn  Zn5  1  0.72187996  0.38913648  0.21412169  1  0  1.05504  0  1.922933  0  0  0.878024  0  2.400408  0  0  0.918646  0  2.346026  0  0  0.702793  0.849593  0  2.437956  0
Zn  Zn6  1  0.72187977  0.21412360  0.38913969  1  0  1.055152  0  1.922828  0  0  0.878157  0  2.400287  0  0  0.918779  0  2.345902  0  0  0.702854  0.849755  0  2.437851  0
Zn  Zn7  1  0.27811804  0.61086277  0.78587587  1  0  1.055033  0  1.922937  0  0  0.878021  0  2.400404  0  0  0.918642  0  2.346022  0  0  0.702858  0.849699  0  2.437975  0
H  H8  1  0.90937343  0.72229560  0.50765874  1  0  0.344484  0  0.902685  0  0  0.326226  0  0.967909  0  0  0.333577  0  0.961593  0  0  0.299638  0.320959  0  0.972492  0
H  H9  1  0.09062407  0.49234254  0.27770288  1  0  0.344486  0  0.90264  0  0  0.326238  0  0.967845  0  0  0.333586  0  0.961532  0  0  0.299655  0.320972  0  0.972419  0
H  H10  1  0.09062293  0.27770522  0.49234501  1  0  0.344536  0  0.902589  0  0  0.32627  0  0.967831  0  0  0.333622  0  0.961509  0  0  0.299681  0.321004  0  0.97241  0
H  H11  1  0.90937372  0.50765826  0.72229386  1  0  0.344467  0  0.902696  0  0  0.326211  0  0.967917  0  0  0.333562  0  0.9616  0  0  0.299657  0.320943  0  0.972499  0
H  H12  1  0.84920292  0.74367609  0.38413236  1  0  0.320762  0  0.898297  0  0  0.307356  0  0.958991  0  0  0.313153  0  0.954999  0  0  0.307224  0.303301  0  0.96177  0
H  H13  1  0.15079711  0.61586586  0.25632143  1  0  0.320804  0  0.898306  0  0  0.307398  0  0.959  0  0  0.313196  0  0.955006  0  0  0.30726  0.303333  0  0.961798  0
H  H14  1  0.15079229  0.25632319  0.61587150  1  0  0.320709  0  0.898369  0  0  0.307306  0  0.959053  0  0  0.313101  0  0.955067  0  0  0.307199  0.303243  0  0.961848  0
H  H15  1  0.84921067  0.38413182  0.74367803  1  0  0.320669  0  0.898387  0  0  0.307292  0  0.95906  0  0  0.313091  0  0.955066  0  0  0.307198  0.303235  0  0.961839  0
H  H16  1  0.07483401  0.13970000  0.27641978  1  0  0.334791  0  0.903348  0  0  0.316874  0  0.972436  0  0  0.323942  0  0.966189  0  0  0.297633  0.311795  0  0.976952  0
H  H17  1  0.92517292  0.72358035  0.86029662  1  0  0.334818  0  0.903344  0  0  0.316886  0  0.972445  0  0  0.323956  0  0.966196  0  0  0.297638  0.311808  0  0.97697  0
H  H18  1  0.92516976  0.86029692  0.72358221  1  0  0.334801  0  0.90331  0  0  0.316869  0  0.972418  0  0  0.323939  0  0.966168  0  0  0.297642  0.311789  0  0.976949  0
H  H19  1  0.07482641  0.27641892  0.13970628  1  0  0.334785  0  0.903346  0  0  0.316875  0  0.972428  0  0  0.323944  0  0.966179  0  0  0.297621  0.311793  0  0.976945  0
H  H20  1  0.15879395  0.03510339  0.20509177  1  0  0.339409  0  0.924618  0  0  0.320268  0  0.992013  0  0  0.328746  0  0.984212  0  0  0.293929  0.314263  0  0.997513  0
H  H21  1  0.84121328  0.79490640  0.96489551  1  0  0.339409  0  0.924566  0  0  0.320233  0  0.99202  0  0  0.328712  0  0.984219  0  0  0.293922  0.314233  0  0.997515  0
H  H22  1  0.84120927  0.96489741  0.79490857  1  0  0.33938  0  0.924657  0  0  0.320236  0  0.992069  0  0  0.328717  0  0.984261  0  0  0.29391  0.314242  0  0.997555  0
H  H23  1  0.15878733  0.20509363  0.03510421  1  0  0.339407  0  0.92458  0  0  0.32025  0  0.992013  0  0  0.328727  0  0.98421  0  0  0.29391  0.314248  0  0.997508  0
H  H24  1  0.51896142  0.83358811  0.41119584  1  0  0.096093  0  0.932881  0  0  0.106151  0  0.995262  0  0  0.108464  0  0.992119  0  0  0.13705  0.104443  0  0.99747  0
H  H25  1  0.48103393  0.58880350  0.16641415  1  0  0.096125  0  0.932842  0  0  0.1062  0  0.995205  0  0  0.108514  0  0.992058  0  0  0.137052  0.104486  0  0.997414  0
H  H26  1  0.48103234  0.16641195  0.58880498  1  0  0.096098  0  0.932847  0  0  0.10615  0  0.995237  0  0  0.108463  0  0.992094  0  0  0.137042  0.104437  0  0.997447  0
H  H27  1  0.51897064  0.41119730  0.83358843  1  0  0.096107  0  0.932818  0  0  0.106224  0  0.995144  0  0  0.108539  0  0.991995  0  0  0.137059  0.104515  0  0.997349  0
H  H28  1  0.45428156  0.04945818  0.31259222  1  0  0.100693  0  0.926895  0  0  0.110833  0  0.988743  0  0  0.113088  0  0.985722  0  0  0.137384  0.109126  0  0.990955  0
H  H29  1  0.54572624  0.68740825  0.95053870  1  0  0.100622  0  0.926929  0  0  0.110778  0  0.988753  0  0  0.113031  0  0.985735  0  0  0.137402  0.109076  0  0.990958  0
H  H30  1  0.54572487  0.95053875  0.68741736  1  0  0.100629  0  0.927034  0  0  0.11079  0  0.988833  0  0  0.113043  0  0.985815  0  0  0.137407  0.109088  0  0.991041  0
H  H31  1  0.45427322  0.31259023  0.04946113  1  0  0.100616  0  0.926911  0  0  0.110773  0  0.988733  0  0  0.113028  0  0.985712  0  0  0.137395  0.109064  0  0.990942  0
H  H32  1  0.02406094  0.66639832  0.66639999  1  0  0.410925  0  0.908088  0  0  0.378904  0  0.97393  0  0  0.389415  0  0.958761  0  0  0.272588  0.371471  0  0.984636  0
H  H33  1  0.97593554  0.33360173  0.33360224  1  0  0.410946  0  0.908062  0  0  0.37892  0  0.973913  0  0  0.38943  0  0.958746  0  0  0.272592  0.371467  0  0.984648  0
C  C34  1  0.38355034  0.81964721  0.39059602  1  0  0.226612  0  3.731858  0  0  0.166605  0  4.006393  0  0  0.181796  0  4.018063  0  0  0.142682  0.156645  0  3.998291  0
C  C35  1  0.61644558  0.60940578  0.18035442  1  0  0.226494  0  3.731936  0  0  0.166474  0  4.006459  0  0  0.181664  0  4.018128  0  0  0.142645  0.156504  0  3.998365  0
C  C36  1  0.61644764  0.18035205  0.60940386  1  0  0.226625  0  3.731874  0  0  0.166614  0  4.006404  0  0  0.181804  0  4.018075  0  0  0.14274  0.156645  0  3.998314  0
C  C37  1  0.38355593  0.39059735  0.81964746  1  0  0.226594  0  3.731747  0  0  0.166539  0  4.006275  0  0  0.181728  0  4.017947  0  0  0.142702  0.156581  0  3.998171  0
C  C38  1  0.10249581  0.78309380  0.40231137  1  0  0.59138  0  3.837162  0  0  0.545636  0  4.109736  0  0  0.569749  0  4.119313  0  0  0.325973  0.529454  0  4.102844  0
C  C39  1  0.89750236  0.59768931  0.21690365  1  0  0.591291  0  3.837098  0  0  0.545516  0  4.109726  0  0  0.569626  0  4.119305  0  0  0.325887  0.529316  0  4.102841  0
C  C40  1  0.89749964  0.21690393  0.59769099  1  0  0.591433  0  3.837073  0  0  0.545634  0  4.109703  0  0  0.569747  0  4.11928  0  0  0.325936  0.529439  0  4.102817  0
C  C41  1  0.10250089  0.40231148  0.78309360  1  0  0.591345  0  3.837262  0  0  0.54562  0  4.109825  0  0  0.569733  0  4.119402  0  0  0.32594  0.529431  0  4.102933  0
C  C42  1  0.59782265  0.02780831  0.28917183  1  0  0.230989  0  3.734201  0  0  0.1713  0  4.010848  0  0  0.187046  0  4.02233  0  0  0.142267  0.160948  0  4.002847  0
C  C43  1  0.40218603  0.71082661  0.97218927  1  0  0.231215  0  3.734152  0  0  0.171507  0  4.010798  0  0  0.187256  0  4.022278  0  0  0.142353  0.161161  0  4.002793  0
C  C44  1  0.40218543  0.97218706  0.71083232  1  0  0.231147  0  3.734057  0  0  0.171463  0  4.01071  0  0  0.187212  0  4.022189  0  0  0.142365  0.161115  0  4.002713  0
C  C45  1  0.59781490  0.28917110  0.02781129  1  0  0.231232  0  3.734069  0  0  0.17153  0  4.010738  0  0  0.18728  0  4.022216  0  0  0.142363  0.161178  0  4.002736  0
C  C46  1  0.89038664  0.03453586  0.26086640  1  0  0.600581  0  3.830321  0  0  0.55298  0  4.102021  0  0  0.577728  0  4.111605  0  0  0.324109  0.536349  0  4.095072  0
C  C47  1  0.10961840  0.73912884  0.96546300  1  0  0.60064  0  3.830186  0  0  0.552927  0  4.102013  0  0  0.577679  0  4.111597  0  0  0.324136  0.536305  0  4.095055  0
C  C48  1  0.10961431  0.96546184  0.73913261  1  0  0.600564  0  3.830292  0  0  0.552997  0  4.101956  0  0  0.577748  0  4.11154  0  0  0.324155  0.536376  0  4.095001  0
C  C49  1  0.89038011  0.26086656  0.03454007  1  0  0.600669  0  3.830057  0  0  0.553012  0  4.101821  0  0  0.577766  0  4.1114  0  0  0.324129  0.536379  0  4.094873  0
C  C50  1  0.40766497  0.02631151  0.02629729  1  0  0.555792  0  3.852494  0  0  0.505244  0  4.146956  0  0  0.535114  0  4.14004  0  0  0.214701  0.48502  0  4.151014  0
C  C51  1  0.59233436  0.97369854  0.97368207  1  0  0.555349  0  3.852479  0  0  0.504679  0  4.14711  0  0  0.534554  0  4.140195  0  0  0.214504  0.484464  0  4.151168  0
S  S52  1  0.65516085  0.68198020  0.68197980  1  0  1.560116  0  5.8485  0  0  1.44092  0  6.385714  0  0  1.496306  0  6.351366  0  0  0.556954  1.40253  0  6.408343  0
S  S53  1  0.34483836  0.31801984  0.31802308  1  0  1.560239  0  5.848338  0  0  1.441075  0  6.385538  0  0  1.496457  0  6.351196  0  0  0.557015  1.402673  0  6.408184  0
N  N54  1  0.33551874  0.82297883  0.29493662  1  0  -0.263888  0  3.257849  0  0  -0.207502  0  3.557342  0  0  -0.222081  0  3.572779  0  0  -0.259926  -0.197757  0  3.546807  0
N  N55  1  0.66447994  0.70506222  0.17702240  1  0  -0.263762  0  3.257943  0  0  -0.207361  0  3.5574  0  0  -0.221939  0  3.572839  0  0  -0.259884  -0.197646  0  3.546918  0
N  N56  1  0.66447845  0.17701656  0.70506188  1  0  -0.263801  0  3.257749  0  0  -0.207401  0  3.557207  0  0  -0.221978  0  3.572643  0  0  -0.259949  -0.197681  0  3.546718  0
N  N57  1  0.33552167  0.29494014  0.82298027  1  0  -0.263763  0  3.257779  0  0  -0.207368  0  3.557267  0  0  -0.221945  0  3.572704  0  0  -0.259915  -0.197631  0  3.546735  0
N  N58  1  0.15592142  0.79801447  0.30089697  1  0  -0.420259  0  3.158535  0  0  -0.348322  0  3.454227  0  0  -0.367644  0  3.464098  0  0  -0.285445  -0.335421  0  3.447572  0
N  N59  1  0.84407963  0.69910085  0.20198337  1  0  -0.420302  0  3.158627  0  0  -0.348358  0  3.454311  0  0  -0.36768  0  3.464184  0  0  -0.285455  -0.335465  0  3.447692  0
N  N60  1  0.84407723  0.20198014  0.69910381  1  0  -0.420291  0  3.158429  0  0  -0.348326  0  3.454094  0  0  -0.367648  0  3.463962  0  0  -0.285435  -0.335434  0  3.447474  0
N  N61  1  0.15592359  0.30089995  0.79801774  1  0  -0.420256  0  3.158511  0  0  -0.348324  0  3.454157  0  0  -0.367647  0  3.464026  0  0  -0.2854  -0.335413  0  3.447497  0
N  N62  1  0.24353569  0.79571861  0.46099555  1  0  -0.533655  0  3.188439  0  0  -0.44835  0  3.485281  0  0  -0.472771  0  3.488326  0  0  -0.374307  -0.431943  0  3.483004  0
N  N63  1  0.75646177  0.53900429  0.20428222  1  0  -0.533587  0  3.188329  0  0  -0.448287  0  3.485203  0  0  -0.472706  0  3.488247  0  0  -0.374307  -0.431849  0  3.482883  0
N  N64  1  0.75646206  0.20428220  0.53900505  1  0  -0.53369  0  3.188451  0  0  -0.448377  0  3.485322  0  0  -0.472798  0  3.488365  0  0  -0.374331  -0.431947  0  3.48302  0
N  N65  1  0.24354011  0.46099650  0.79571587  1  0  -0.533659  0  3.188418  0  0  -0.448388  0  3.485308  0  0  -0.472809  0  3.488351  0  0  -0.374329  -0.431976  0  3.483024  0
N  N66  1  0.93001135  0.76282568  0.43898373  1  0  -0.689185  0  3.040805  0  0  -0.659799  0  3.269237  0  0  -0.678496  0  3.264461  0  0  -0.583163  -0.646676  0  3.27216  0
N  N67  1  0.06999165  0.56101587  0.23717121  1  0  -0.689181  0  3.040674  0  0  -0.659785  0  3.269108  0  0  -0.678485  0  3.264345  0  0  -0.583179  -0.646664  0  3.272042  0
N  N68  1  0.06998512  0.23717437  0.56101927  1  0  -0.689202  0  3.040768  0  0  -0.659797  0  3.269224  0  0  -0.678494  0  3.264445  0  0  -0.583194  -0.646676  0  3.272161  0
N  N69  1  0.93001707  0.43898490  0.76282578  1  0  -0.689046  0  3.040908  0  0  -0.659702  0  3.269305  0  0  -0.678399  0  3.264529  0  0  -0.58315  -0.646584  0  3.27224  0
N  N70  1  0.65802023  0.94456821  0.23594235  1  0  -0.28136  0  3.209431  0  0  -0.226757  0  3.501759  0  0  -0.241451  0  3.517881  0  0  -0.261741  -0.216944  0  3.490771  0
N  N71  1  0.34198482  0.76405695  0.05543044  1  0  -0.281542  0  3.209715  0  0  -0.226934  0  3.502049  0  0  -0.241627  0  3.518172  0  0  -0.261787  -0.217103  0  3.491026  0
N  N72  1  0.34198341  0.05542950  0.76406193  1  0  -0.281472  0  3.20932  0  0  -0.226903  0  3.501697  0  0  -0.241595  0  3.517817  0  0  -0.261823  -0.21707  0  3.490667  0
N  N73  1  0.65801475  0.23594076  0.94457019  1  0  -0.281545  0  3.209666  0  0  -0.226965  0  3.50201  0  0  -0.241658  0  3.51813  0  0  -0.261809  -0.217157  0  3.491026  0
N  N74  1  0.84636750  0.94834689  0.21658710  1  0  -0.406616  0  3.154956  0  0  -0.330733  0  3.45694  0  0  -0.350819  0  3.465621  0  0  -0.292915  -0.317318  0  3.451068  0
N  N75  1  0.15363770  0.78341074  0.05165080  1  0  -0.406504  0  3.155002  0  0  -0.330586  0  3.457002  0  0  -0.35068  0  3.465694  0  0  -0.29292  -0.317155  0  3.45109  0
N  N76  1  0.15363342  0.05165082  0.78341500  1  0  -0.406472  0  3.154823  0  0  -0.330599  0  3.456798  0  0  -0.350687  0  3.465479  0  0  -0.292859  -0.317167  0  3.450883  0
N  N77  1  0.84636333  0.21658620  0.94835055  1  0  -0.406536  0  3.154997  0  0  -0.330594  0  3.456933  0  0  -0.350681  0  3.465614  0  0  -0.292913  -0.317183  0  3.451066  0
N  N78  1  0.73622001  0.08587017  0.30794990  1  0  -0.546533  0  3.202753  0  0  -0.461238  0  3.502378  0  0  -0.48683  0  3.507136  0  0  -0.378339  -0.443938  0  3.498762  0
N  N79  1  0.26378671  0.69204770  0.91412792  1  0  -0.546626  0  3.202639  0  0  -0.461271  0  3.502279  0  0  -0.486866  0  3.507038  0  0  -0.378358  -0.443996  0  3.498697  0
N  N80  1  0.26378375  0.91412676  0.69205364  1  0  -0.546562  0  3.202746  0  0  -0.461292  0  3.502386  0  0  -0.486887  0  3.507145  0  0  -0.378438  -0.444026  0  3.498821  0
N  N81  1  0.73621285  0.30795001  0.08587347  1  0  -0.546584  0  3.202633  0  0  -0.461279  0  3.502298  0  0  -0.486874  0  3.507055  0  0  -0.378398  -0.443977  0  3.498676  0
N  N82  1  0.06243799  0.06384333  0.26197204  1  0  -0.70762  0  3.04898  0  0  -0.678452  0  3.287602  0  0  -0.698204  0  3.281251  0  0  -0.59243  -0.664578  0  3.291697  0
N  N83  1  0.93757005  0.73802519  0.93615578  1  0  -0.707648  0  3.048958  0  0  -0.678398  0  3.287648  0  0  -0.698153  0  3.281295  0  0  -0.592401  -0.664516  0  3.291736  0
N  N84  1  0.93756695  0.93615513  0.73802752  1  0  -0.707636  0  3.049013  0  0  -0.678458  0  3.287633  0  0  -0.698213  0  3.281279  0  0  -0.592418  -0.664579  0  3.291723  0
N  N85  1  0.06243222  0.26197251  0.06384780  1  0  -0.707658  0  3.048919  0  0  -0.678472  0  3.287556  0  0  -0.698228  0  3.281201  0  0  -0.592403  -0.664597  0  3.291646  0
O  O86  1  0.54620586  0.73485649  0.59868364  1  0  -0.758925  0  2.013545  0  0  -0.687943  0  2.301282  0  0  -0.710921  0  2.276603  0  0  -0.377631  -0.671677  0  2.317751  0
O  O87  1  0.45379286  0.40131621  0.26514699  1  0  -0.758995  0  2.013554  0  0  -0.688015  0  2.301286  0  0  -0.710991  0  2.276606  0  0  -0.377685  -0.671766  0  2.317767  0
O  O88  1  0.45379095  0.26514124  0.40131943  1  0  -0.758995  0  2.013581  0  0  -0.688033  0  2.301313  0  0  -0.711008  0  2.276633  0  0  -0.377661  -0.671785  0  2.317797  0
O  O89  1  0.54620770  0.59868384  0.73485814  1  0  -0.758918  0  2.013567  0  0  -0.687931  0  2.301307  0  0  -0.710908  0  2.276627  0  0  -0.377632  -0.671664  0  2.317774  0
O  O90  1  0.82604206  0.62890597  0.62890550  1  0  -0.73052  0  1.919304  0  0  -0.663984  0  2.138364  0  0  -0.686399  0  2.120602  0  0  -0.358142  -0.648166  0  2.150328  0
O  O91  1  0.17395443  0.37109408  0.37109596  1  0  -0.730519  0  1.919275  0  0  -0.663991  0  2.138345  0  0  -0.686398  0  2.120577  0  0  -0.358169  -0.648204  0  2.15035  0
O  O92  1  0.69747083  0.75692522  0.75692730  1  0  -0.710463  0  1.905621  0  0  -0.657739  0  2.145004  0  0  -0.679097  0  2.129489  0  0  -0.35689  -0.642643  0  2.155227  0
O  O93  1  0.30253018  0.24307172  0.24307714  1  0  -0.710473  0  1.905568  0  0  -0.657744  0  2.144917  0  0  -0.679106  0  2.129416  0  0  -0.356931  -0.642663  0  2.155135  0
O  O94  1  0.33963296  0.98330926  0.10814725  1  0  -0.573193  0  2.123768  0  0  -0.508571  0  2.371888  0  0  -0.533695  0  2.362268  0  0  -0.29412  -0.491092  0  2.377961  0
O  O95  1  0.66036825  0.89184717  0.01669056  1  0  -0.572937  0  2.123516  0  0  -0.508278  0  2.371702  0  0  -0.533405  0  2.362081  0  0  -0.293981  -0.490808  0  2.37779  0
O  O96  1  0.66037174  0.01670154  0.89183106  1  0  -0.572887  0  2.123803  0  0  -0.508233  0  2.371949  0  0  -0.533365  0  2.362345  0  0  -0.293934  -0.490804  0  2.378047  0
O  O97  1  0.33963186  0.10816676  0.98329172  1  0  -0.573057  0  2.12368  0  0  -0.508417  0  2.371763  0  0  -0.533533  0  2.362145  0  0  -0.293958  -0.490981  0  2.377855  0
O  O98  1  0.12613568  0.69662513  0.69662548  1  0  -0.987319  0  1.897253  0  0  -0.881144  0  2.202474  0  0  -0.910603  0  2.161381  0  0  -0.601352  -0.860368  0  2.230666  0
O  O99  1  0.87386080  0.30337492  0.30337675  1  0  -0.987382  0  1.897215  0  0  -0.881202  0  2.202422  0  0  -0.910659  0  2.161333  0  0  -0.601374  -0.860409  0  2.230605  0
