# generated using pymatgen
data_CdH6C6S2N3O
_symmetry_space_group_name_H-M   'P 1'
_cell_length_a   8.22848248
_cell_length_b   8.40865736
_cell_length_c   8.40859395
_cell_angle_alpha   105.56885927
_cell_angle_beta   108.53107534
_cell_angle_gamma   108.53188983
_symmetry_Int_Tables_number   1
_chemical_formula_structural   CdH6C6S2N3O
_chemical_formula_sum   'Cd2 H12 C12 S4 N6 O2'
_cell_volume   476.82824904
_cell_formula_units_Z   2
loop_
 _symmetry_equiv_pos_site_id
 _symmetry_equiv_pos_as_xyz
  1  'x, y, z'
loop_
 _atom_site_type_symbol
 _atom_site_label
 _atom_site_symmetry_multiplicity
 _atom_site_fract_x
 _atom_site_fract_y
 _atom_site_fract_z
 _atom_site_occupancy
 _atom_site_pbe_bader_spin_density
 _atom_site_pbe_cm5_charge
 _atom_site_pbe_ddec_charge
 _atom_site_pbe_ddec_spin_density
 _atom_site_pbe_ddec_sum_bond_order
 _atom_site_pbe_magmom
Cd  Cd0  1  0.00000427  0.02184192  0.97816155  1  0  0.726201  0.824438  0  2.446301  0
Cd  Cd1  1  0.99999355  0.72163196  0.27835609  1  0  0.726748  0.828512  0  2.440542  0
H  H2  1  0.02423734  0.59962287  0.85482400  1  0  0.099566  0.1562  0  1.038413  0
H  H3  1  0.97576189  0.14517865  0.40037549  1  0  0.099558  0.156187  0  1.038459  0
H  H4  1  0.13342857  0.44687411  0.83828130  1  0  0.095298  0.142214  0  1.014076  0
H  H5  1  0.86657105  0.16171999  0.55312759  1  0  0.095303  0.142209  0  1.014086  0
H  H6  1  0.13413023  0.57781431  0.70313284  1  0  0.094722  0.140276  0  1.01739  0
H  H7  1  0.86587187  0.29686836  0.42218713  1  0  0.094725  0.140259  0  1.017398  0
H  H8  1  0.39036424  0.20012284  0.33673718  1  0  0.095978  0.15302  0  1.037349  0
H  H9  1  0.60964338  0.66326771  0.79988021  1  0  0.095988  0.153029  0  1.037372  0
H  H10  1  0.62361534  0.25819810  0.50070362  1  0  0.098104  0.155165  0  0.997099  0
H  H11  1  0.37638832  0.49930117  0.74180290  1  0  0.098082  0.155162  0  0.997139  0
H  H12  1  0.41762003  0.08063077  0.47827210  1  0  0.094908  0.152943  0  1.031376  0
H  H13  1  0.58238257  0.52172728  0.91936733  1  0  0.094891  0.152955  0  1.031346  0
C  C14  1  0.14311111  0.58003852  0.83710569  1  0  -0.240314  -0.427342  0  3.915782  0
C  C15  1  0.85689033  0.16289945  0.41996128  1  0  -0.24031  -0.427268  0  3.915791  0
C  C16  1  0.32872565  0.73045591  0.98653634  1  0  0.127358  0.137664  0  3.867673  0
C  C17  1  0.67127594  0.01346786  0.26954411  1  0  0.127306  0.137571  0  3.867703  0
C  C18  1  0.49788433  0.00684661  0.26289434  1  0  0.122059  0.12312  0  3.923408  0
C  C19  1  0.50212026  0.73710452  0.99315756  1  0  0.122026  0.123109  0  3.923436  0
C  C20  1  0.48348481  0.14514816  0.40290664  1  0  -0.246245  -0.445332  0  3.946025  0
C  C21  1  0.51651788  0.59709388  0.85485353  1  0  -0.246198  -0.445351  0  3.946062  0
C  C22  1  0.21038263  0.06276143  0.70167136  1  0  0.156012  0.280216  0  4.268168  0
C  C23  1  0.78961761  0.29832788  0.93725228  1  0  0.156018  0.280234  0  4.268347  0
C  C24  1  0.21067262  0.44504888  0.31962121  1  0  0.155958  0.280109  0  4.267711  0
C  C25  1  0.78932331  0.68038581  0.55495621  1  0  0.156072  0.28027  0  4.267776  0
S  S26  1  0.29847710  0.66438014  0.44481299  1  0  -0.132327  -0.274977  0  2.539334  0
S  S27  1  0.70150753  0.55518589  0.33560467  1  0  -0.132415  -0.275096  0  2.538998  0
S  S28  1  0.29851320  0.18732720  0.92130550  1  0  -0.132876  -0.275948  0  2.545065  0
S  S29  1  0.70148994  0.07868583  0.81266954  1  0  -0.132906  -0.27597  0  2.544719  0
N  N30  1  0.14895523  0.28485250  0.23567970  1  0  -0.389703  -0.454992  0  3.204014  0
N  N31  1  0.85103710  0.76431382  0.71513185  1  0  -0.389727  -0.455035  0  3.204438  0
N  N32  1  0.14860872  0.97900434  0.54146446  1  0  -0.389356  -0.453908  0  3.198822  0
N  N33  1  0.85138189  0.45851876  0.02098749  1  0  -0.389287  -0.453838  0  3.19928  0
N  N34  1  0.33018014  0.86591274  0.12215862  1  0  -0.104334  0.218962  0  3.913529  0
N  N35  1  0.66982112  0.87784168  0.13408988  1  0  -0.104348  0.219007  0  3.913551  0
O  O36  1  0.16767192  0.86280329  0.11973678  1  0  -0.231269  -0.433873  0  2.184718  0
O  O37  1  0.83232903  0.88026614  0.13719908  1  0  -0.231268  -0.433906  0  2.184755  0
