# generated using pymatgen
data_CdH12(C2O)6
_symmetry_space_group_name_H-M   'P 1'
_cell_length_a   5.35680831
_cell_length_b   6.45951089
_cell_length_c   19.42640766
_cell_angle_alpha   92.78159965
_cell_angle_beta   90.04245726
_cell_angle_gamma   114.47422668
_symmetry_Int_Tables_number   1
_chemical_formula_structural   CdH12(C2O)6
_chemical_formula_sum   'Cd2 H24 C24 O12'
_cell_volume   610.91939821
_cell_formula_units_Z   2
loop_
 _symmetry_equiv_pos_site_id
 _symmetry_equiv_pos_as_xyz
  1  'x, y, z'
loop_
 _atom_site_type_symbol
 _atom_site_label
 _atom_site_symmetry_multiplicity
 _atom_site_fract_x
 _atom_site_fract_y
 _atom_site_fract_z
 _atom_site_occupancy
 _atom_site_hle17_bader_spin_density
 _atom_site_hle17_ddec_charge
 _atom_site_hle17_ddec_spin_density
 _atom_site_hle17_ddec_sum_bond_order
 _atom_site_hle17_magmom
 _atom_site_hse06_10hf_bader_spin_density
 _atom_site_hse06_10hf_ddec_charge
 _atom_site_hse06_10hf_ddec_spin_density
 _atom_site_hse06_10hf_ddec_sum_bond_order
 _atom_site_hse06_10hf_magmom
 _atom_site_hse06_bader_spin_density
 _atom_site_hse06_ddec_charge
 _atom_site_hse06_ddec_spin_density
 _atom_site_hse06_ddec_sum_bond_order
 _atom_site_hse06_magmom
 _atom_site_pbe_bader_spin_density
 _atom_site_pbe_cm5_charge
 _atom_site_pbe_ddec_charge
 _atom_site_pbe_ddec_spin_density
 _atom_site_pbe_ddec_sum_bond_order
 _atom_site_pbe_magmom
Cd  Cd0  1  0.31857574  0.00033522  0.25011264  1  0  1.258098  0  1.541039  0  0  1.077926  0  1.987931  0  0  1.136222  0  1.928248  0  0  0.770494  1.036069  0  2.029162  0
Cd  Cd1  1  0.68143762  0.99966319  0.74988070  1  0  1.258171  0  1.54093  0  0  1.078067  0  1.987783  0  0  1.13636  0  1.928095  0  0  0.770562  1.036211  0  2.029026  0
H  H2  1  0.08407246  0.56410814  0.37055772  1  0  0.125761  0  0.95868  0  0  0.137194  0  1.014618  0  0  0.141053  0  1.013234  0  0  0.108163  0.134402  0  1.015889  0
H  H3  1  0.52075781  0.43636171  0.12937103  1  0  0.125501  0  0.95861  0  0  0.136476  0  1.015124  0  0  0.140333  0  1.013727  0  0  0.107783  0.133716  0  1.01629  0
H  H4  1  0.91589605  0.43587150  0.62943627  1  0  0.125637  0  0.958807  0  0  0.13704  0  1.014805  0  0  0.140901  0  1.013419  0  0  0.108186  0.134253  0  1.016071  0
H  H5  1  0.47918827  0.56362526  0.87065142  1  0  0.125388  0  0.958936  0  0  0.136548  0  1.015228  0  0  0.140413  0  1.01384  0  0  0.107823  0.133781  0  1.016409  0
H  H6  1  0.66304802  0.09405239  0.41195533  1  0  0.089432  0  0.96435  0  0  0.100571  0  1.029529  0  0  0.103307  0  1.02722  0  0  0.105081  0.098523  0  1.031374  0
H  H7  1  0.56857515  0.90646522  0.08815796  1  0  0.089112  0  0.965075  0  0  0.099717  0  1.030689  0  0  0.102456  0  1.028378  0  0  0.104569  0.097733  0  1.032374  0
H  H8  1  0.33694212  0.90592196  0.58804267  1  0  0.089507  0  0.964168  0  0  0.100587  0  1.029406  0  0  0.103322  0  1.027099  0  0  0.105005  0.098539  0  1.031244  0
H  H9  1  0.43145399  0.09355356  0.91183734  1  0  0.088977  0  0.9648  0  0  0.099566  0  1.030487  0  0  0.102287  0  1.028192  0  0  0.104502  0.09758  0  1.032178  0
H  H10  1  0.31875641  0.07912683  0.48797685  1  0  0.089531  0  0.957422  0  0  0.101656  0  1.01956  0  0  0.104007  0  1.019038  0  0  0.102055  0.099793  0  1.020349  0
H  H11  1  0.23889969  0.92102467  0.01185785  1  0  0.089851  0  0.957082  0  0  0.10129  0  1.02022  0  0  0.103657  0  1.019636  0  0  0.102012  0.099628  0  1.020626  0
H  H12  1  0.68122679  0.92083737  0.51201940  1  0  0.089634  0  0.957415  0  0  0.101601  0  1.019747  0  0  0.103952  0  1.019225  0  0  0.102017  0.099776  0  1.020492  0
H  H13  1  0.76110678  0.07899728  0.98814316  1  0  0.089811  0  0.957341  0  0  0.101331  0  1.020378  0  0  0.103697  0  1.019796  0  0  0.10205  0.099659  0  1.020802  0
H  H14  1  0.90032019  0.74284136  0.43236181  1  0  0.102048  0  0.955045  0  0  0.114181  0  1.013257  0  0  0.117396  0  1.011301  0  0  0.104891  0.111895  0  1.014711  0
H  H15  1  0.15817154  0.25780603  0.06784718  1  0  0.102476  0  0.954875  0  0  0.114272  0  1.013575  0  0  0.117454  0  1.011642  0  0  0.104667  0.111983  0  1.01504  0
H  H16  1  0.09965086  0.25712094  0.56763904  1  0  0.101955  0  0.954998  0  0  0.114124  0  1.013196  0  0  0.117294  0  1.011301  0  0  0.104826  0.111835  0  1.014659  0
H  H17  1  0.84181508  0.74222479  0.93214577  1  0  0.102443  0  0.954372  0  0  0.114276  0  1.013096  0  0  0.117463  0  1.011169  0  0  0.104653  0.111995  0  1.014542  0
H  H18  1  0.79824989  0.36772414  0.19987826  1  0  0.437895  0  0.864682  0  0  0.404552  0  0.930415  0  0  0.416896  0  0.912824  0  0  0.286938  0.395802  0  0.942841  0
H  H19  1  0.43096791  0.63249253  0.30030495  1  0  0.438141  0  0.864195  0  0  0.404919  0  0.929716  0  0  0.417253  0  0.912149  0  0  0.286886  0.396165  0  0.942146  0
H  H20  1  0.20176257  0.63230980  0.80012145  1  0  0.437818  0  0.864763  0  0  0.40438  0  0.930699  0  0  0.416725  0  0.913106  0  0  0.286819  0.395622  0  0.943137  0
H  H21  1  0.56904075  0.36750394  0.69969401  1  0  0.43808  0  0.864266  0  0  0.404854  0  0.929796  0  0  0.417192  0  0.912219  0  0  0.286867  0.396099  0  0.942226  0
H  H22  1  0.81557891  0.12489307  0.17910998  1  0  0.428415  0  0.879923  0  0  0.39567  0  0.946189  0  0  0.406891  0  0.930159  0  0  0.286792  0.387703  0  0.957546  0
H  H23  1  0.69112116  0.87543560  0.32099604  1  0  0.429006  0  0.8794  0  0  0.396335  0  0.945526  0  0  0.407567  0  0.929475  0  0  0.286775  0.388371  0  0.956886  0
H  H24  1  0.18444510  0.87513410  0.82088857  1  0  0.42846  0  0.879862  0  0  0.395736  0  0.946105  0  0  0.40696  0  0.930069  0  0  0.28681  0.387767  0  0.957465  0
H  H25  1  0.30889675  0.12456445  0.67899887  1  0  0.428968  0  0.879459  0  0  0.396361  0  0.945509  0  0  0.407595  0  0.929454  0  0  0.286821  0.388393  0  0.956876  0
C  C26  1  0.10802311  0.25049581  0.33351770  1  0  0.674258  0  3.915551  0  0  0.625229  0  4.202307  0  0  0.660633  0  4.196943  0  0  0.197343  0.601331  0  4.204737  0
C  C27  1  0.85768997  0.74987610  0.16670570  1  0  0.67311  0  3.915663  0  0  0.624299  0  4.201907  0  0  0.6597  0  4.196542  0  0  0.196672  0.600373  0  4.20447  0
C  C28  1  0.89197952  0.74949234  0.66647646  1  0  0.673883  0  3.915965  0  0  0.624782  0  4.202825  0  0  0.660181  0  4.197469  0  0  0.197087  0.600881  0  4.205253  0
C  C29  1  0.14239975  0.25019287  0.83331222  1  0  0.673286  0  3.917121  0  0  0.624537  0  4.203297  0  0  0.659928  0  4.197931  0  0  0.196426  0.600616  0  4.205861  0
C  C30  1  0.98170665  0.37977034  0.37334875  1  0  -0.235808  0  3.664099  0  0  -0.248557  0  3.917821  0  0  -0.261404  0  3.93597  0  0  -0.099841  -0.239979  0  3.905406  0
C  C31  1  0.60240362  0.62076826  0.12669160  1  0  -0.235514  0  3.662651  0  0  -0.247871  0  3.916221  0  0  -0.260712  0  3.934382  0  0  -0.09933  -0.239333  0  3.903876  0
C  C32  1  0.01824558  0.62019915  0.62664349  1  0  -0.235506  0  3.664031  0  0  -0.248179  0  3.917692  0  0  -0.261019  0  3.935828  0  0  -0.099883  -0.239603  0  3.90527  0
C  C33  1  0.39755534  0.37927067  0.87331129  1  0  -0.235461  0  3.663998  0  0  -0.248014  0  3.917529  0  0  -0.260876  0  3.935692  0  0  -0.099282  -0.239469  0  3.905185  0
C  C34  1  0.75741748  0.28003879  0.41184167  1  0  -0.031896  0  3.720992  0  0  -0.059202  0  3.97456  0  0  -0.054512  0  3.992422  0  0  -0.069761  -0.062131  0  3.962302  0
C  C35  1  0.47744271  0.72050143  0.08820959  1  0  -0.030626  0  3.720314  0  0  -0.057661  0  3.973152  0  0  -0.05299  0  3.991089  0  0  -0.069263  -0.060596  0  3.960806  0
C  C36  1  0.24254676  0.71993229  0.58815318  1  0  -0.031988  0  3.720803  0  0  -0.059261  0  3.97432  0  0  -0.054569  0  3.99218  0  0  -0.069621  -0.062192  0  3.962071  0
C  C37  1  0.52250955  0.27953164  0.91177053  1  0  -0.03029  0  3.719293  0  0  -0.057286  0  3.972179  0  0  -0.052579  0  3.990089  0  0  -0.069151  -0.060235  0  3.959862  0
C  C38  1  0.62867932  0.39605449  0.45512739  1  0  0.081904  0  3.798236  0  0  0.101033  0  4.030067  0  0  0.099598  0  4.055274  0  0  -0.007687  0.101995  0  4.012881  0
C  C39  1  0.23265291  0.60421026  0.04491699  1  0  0.080118  0  3.800446  0  0  0.100352  0  4.030644  0  0  0.098835  0  4.055967  0  0  -0.007674  0.101349  0  4.013451  0
C  C40  1  0.37130440  0.60391822  0.54486903  1  0  0.081647  0  3.798511  0  0  0.100839  0  4.030198  0  0  0.099403  0  4.055398  0  0  -0.007756  0.101795  0  4.013025  0
C  C41  1  0.76734674  0.39573828  0.95508668  1  0  0.079882  0  3.799296  0  0  0.1002  0  4.029456  0  0  0.098677  0  4.054785  0  0  -0.007693  0.101189  0  4.012277  0
C  C42  1  0.39957375  0.26437006  0.49382948  1  0  -0.101947  0  3.721294  0  0  -0.122239  0  3.970409  0  0  -0.125448  0  3.992737  0  0  -0.083201  -0.120002  0  3.955582  0
C  C43  1  0.13480808  0.73562590  0.00609396  1  0  -0.101165  0  3.719375  0  0  -0.12117  0  3.968076  0  0  -0.124337  0  3.990389  0  0  -0.083119  -0.119037  0  3.953036  0
C  C44  1  0.60041840  0.73560084  0.50616949  1  0  -0.1019  0  3.721475  0  0  -0.12208  0  3.970541  0  0  -0.125291  0  3.99289  0  0  -0.083152  -0.119869  0  3.955707  0
C  C45  1  0.86523990  0.26435955  0.99392384  1  0  -0.101121  0  3.719742  0  0  -0.121255  0  3.968453  0  0  -0.124421  0  3.990767  0  0  -0.083148  -0.119118  0  3.953415  0
C  C46  1  0.72608914  0.63509237  0.46199548  1  0  -0.087474  0  3.701195  0  0  -0.107109  0  3.945909  0  0  -0.109036  0  3.966961  0  0  -0.080976  -0.105702  0  3.931599  0
C  C47  1  0.09143884  0.36523156  0.03812801  1  0  -0.088138  0  3.703584  0  0  -0.107961  0  3.947993  0  0  -0.109836  0  3.969111  0  0  -0.080967  -0.106608  0  3.93371  0
C  C48  1  0.27389825  0.36488019  0.53800455  1  0  -0.087372  0  3.701028  0  0  -0.10706  0  3.945769  0  0  -0.108964  0  3.966853  0  0  -0.080957  -0.105648  0  3.931433  0
C  C49  1  0.90858335  0.63476952  0.96188289  1  0  -0.088212  0  3.702403  0  0  -0.10807  0  3.946772  0  0  -0.109958  0  3.96792  0  0  -0.080937  -0.106713  0  3.93247  0
O  O50  1  0.31206595  0.35787417  0.29540080  1  0  -0.639571  0  1.969643  0  0  -0.565396  0  2.192645  0  0  -0.595153  0  2.182722  0  0  -0.311506  -0.54446  0  2.198673  0
O  O51  1  0.95381502  0.64238206  0.20501498  1  0  -0.638871  0  1.968219  0  0  -0.564847  0  2.191158  0  0  -0.594578  0  2.181184  0  0  -0.310985  -0.544018  0  2.197277  0
O  O52  1  0.68795682  0.64213931  0.70459902  1  0  -0.639515  0  1.969654  0  0  -0.565319  0  2.192688  0  0  -0.595078  0  2.182758  0  0  -0.311488  -0.544378  0  2.198717  0
O  O53  1  0.04620446  0.35757624  0.79499969  1  0  -0.639095  0  1.968757  0  0  -0.565112  0  2.191832  0  0  -0.59484  0  2.18185  0  0  -0.311148  -0.544277  0  2.197958  0
O  O54  1  0.01918576  0.03267484  0.33634538  1  0  -0.675969  0  2.006208  0  0  -0.601291  0  2.241314  0  0  -0.631613  0  2.230563  0  0  -0.326165  -0.579974  0  2.247949  0
O  O55  1  0.98680823  0.96767740  0.16384413  1  0  -0.675242  0  2.005665  0  0  -0.600596  0  2.240774  0  0  -0.630918  0  2.229981  0  0  -0.326106  -0.579268  0  2.247388  0
O  O56  1  0.98081933  0.96729955  0.66365159  1  0  -0.675713  0  2.006293  0  0  -0.601032  0  2.24141  0  0  -0.631348  0  2.230654  0  0  -0.325961  -0.579708  0  2.248043  0
O  O57  1  0.01320337  0.03241836  0.83614498  1  0  -0.675301  0  2.005721  0  0  -0.600755  0  2.240912  0  0  -0.631076  0  2.230123  0  0  -0.326053  -0.579421  0  2.247522  0
O  O58  1  0.68833522  0.19902149  0.18989359  1  0  -0.885844  0  1.888307  0  0  -0.815377  0  2.105339  0  0  -0.840852  0  2.068096  0  0  -0.597293  -0.797367  0  2.131253  0
O  O59  1  0.48975040  0.80125331  0.31017542  1  0  -0.886478  0  1.888345  0  0  -0.816272  0  2.105583  0  0  -0.841735  0  2.068313  0  0  -0.597157  -0.79823  0  2.1316  0
O  O60  1  0.31167861  0.80100400  0.81010441  1  0  -0.885816  0  1.888542  0  0  -0.815328  0  2.105525  0  0  -0.840797  0  2.068271  0  0  -0.597165  -0.79732  0  2.131452  0
O  O61  1  0.51025251  0.19874659  0.68982310  1  0  -0.886371  0  1.888464  0  0  -0.816204  0  2.105545  0  0  -0.84167  0  2.068267  0  0  -0.597152  -0.798163  0  2.131566  0
