# generated using pymatgen
data_SrCoP2H8(CO4)2
_symmetry_space_group_name_H-M   'P 1'
_cell_length_a   7.92837881
_cell_length_b   7.99588064
_cell_length_c   8.59062949
_cell_angle_alpha   84.72201967
_cell_angle_beta   62.52287149
_cell_angle_gamma   78.49631573
_symmetry_Int_Tables_number   1
_chemical_formula_structural   SrCoP2H8(CO4)2
_chemical_formula_sum   'Sr2 Co2 P4 H16 C4 O16'
_cell_volume   473.45840829
_cell_formula_units_Z   2
loop_
 _symmetry_equiv_pos_site_id
 _symmetry_equiv_pos_as_xyz
  1  'x, y, z'
loop_
 _atom_site_type_symbol
 _atom_site_label
 _atom_site_symmetry_multiplicity
 _atom_site_fract_x
 _atom_site_fract_y
 _atom_site_fract_z
 _atom_site_occupancy
 _atom_site_hle17_ddec_charge
 _atom_site_hle17_ddec_spin_density
 _atom_site_hle17_ddec_sum_bond_order
 _atom_site_hle17_magmom
 _atom_site_hse06_10hf_ddec_charge
 _atom_site_hse06_10hf_ddec_spin_density
 _atom_site_hse06_10hf_ddec_sum_bond_order
 _atom_site_hse06_10hf_magmom
 _atom_site_hse06_ddec_charge
 _atom_site_hse06_ddec_spin_density
 _atom_site_hse06_ddec_sum_bond_order
 _atom_site_hse06_magmom
 _atom_site_pbe_cm5_charge
 _atom_site_pbe_ddec_charge
 _atom_site_pbe_ddec_spin_density
 _atom_site_pbe_ddec_sum_bond_order
 _atom_site_pbe_magmom
Sr  Sr0  1  0.03610257  0.24995062  0.92787406  1  1.634823  0.000438  1.120831  0.0  1.505612  0.000142  1.484134  0.0  1.539123  0.00044  1.44304  0.0  0.994443  1.481296  -0.000275  1.512474  0.0
Sr  Sr1  1  0.96389802  0.75005062  0.07212631  1  1.634804  0.000443  1.120863  0.0  1.505583  0.000143  1.48417  0.0  1.539098  0.000439  1.443074  0.0  0.994441  1.481282  -0.000274  1.512482  0.0
Co  Co2  1  0.49901812  0.74986511  0.00185170  1  1.19133  -2.815796  1.816096  -2.573  1.15216  -2.839156  2.235329  -2.64  1.229827  -2.878159  2.161267  -2.715  0.700668  1.08221  -2.800998  2.29893  -2.569
Co  Co3  1  0.50098165  0.25013615  0.99814806  1  1.191312  -2.815796  1.816084  -2.573  1.15214  -2.839153  2.235314  -2.64  1.229815  -2.878157  2.161251  -2.715  0.70066  1.082193  -2.800964  2.298925  -2.569
P  P4  1  0.39108086  0.56120773  0.77820607  1  1.498895  -0.004321  4.872546  -0.003  1.351449  -0.00768  5.377905  -0.006  1.402143  -0.005601  5.343175  -0.005  0.327429  1.315156  -0.009662  5.399878  -0.007
P  P5  1  0.83058039  0.93893574  0.77817854  1  1.497682  -0.004322  4.872051  -0.003  1.350386  -0.007695  5.377605  -0.006  1.401125  -0.00561  5.342669  -0.005  0.327265  1.314103  -0.009673  5.39959  -0.007
P  P6  1  0.60891915  0.43879225  0.22179369  1  1.498822  -0.004323  4.872614  -0.003  1.351365  -0.00768  5.377983  -0.006  1.402068  -0.005602  5.343227  -0.005  0.327391  1.315073  -0.009662  5.399955  -0.007
P  P7  1  0.16941927  0.06106424  0.22182299  1  1.497699  -0.004321  4.872108  -0.003  1.3504  -0.007694  5.377667  -0.006  1.401135  -0.005609  5.342729  -0.005  0.327255  1.314119  -0.009673  5.399649  -0.007
H  H8  1  0.40112388  0.68977038  0.51334881  1  0.132923  -0.000358  0.923874  -0.001  0.151588  -0.000319  0.97183  -0.001  0.153159  -0.000192  0.97234  0.0  0.115029  0.150371  -0.000462  0.971783  -0.001
H  H9  1  0.08511614  0.81011428  0.51336012  1  0.132274  -0.00036  0.924575  -0.001  0.15102  -0.000322  0.972508  -0.001  0.152543  -0.000194  0.973094  0.0  0.114989  0.149836  -0.000464  0.972445  -0.001
H  H10  1  0.59887613  0.31022960  0.48665094  1  0.132948  -0.000358  0.923927  -0.001  0.151613  -0.000319  0.971876  -0.001  0.153185  -0.000192  0.972384  0.0  0.115043  0.150397  -0.000462  0.97183  -0.001
H  H11  1  0.91488304  0.18988825  0.48664141  1  0.132285  -0.000359  0.924562  -0.001  0.15103  -0.000322  0.972497  -0.001  0.15255  -0.000194  0.973084  0.0  0.115003  0.149847  -0.000464  0.972435  -0.001
H  H12  1  0.63639403  0.61841863  0.49323263  1  0.135645  0.000281  0.924101  0.0  0.153829  9.4e-05  0.973295  0.0  0.155772  9.1e-05  0.973303  0.0  0.119312  0.152344  9.7e-05  0.973548  0.0
H  H13  1  0.87010686  0.88191989  0.49313664  1  0.135307  0.000283  0.924817  0.0  0.15335  9.4e-05  0.974121  0.0  0.155276  9.1e-05  0.974169  0.0  0.119498  0.151918  9.8e-05  0.974329  0.0
H  H14  1  0.36360751  0.38157751  0.50676773  1  0.135637  0.00028  0.924117  0.0  0.153828  9.4e-05  0.973298  0.0  0.155759  9.1e-05  0.973319  0.0  0.119307  0.152343  9.7e-05  0.97355  0.0
H  H15  1  0.12989325  0.11808391  0.50686373  1  0.135328  0.000282  0.924815  0.0  0.153346  9.4e-05  0.974155  0.0  0.155269  9.1e-05  0.974204  0.0  0.119498  0.151914  9.7e-05  0.974362  0.0
H  H16  1  0.78967605  0.42072623  0.73197072  1  0.427841  0.000134  0.872395  0.0  0.398798  0.0  0.933756  0.0  0.408678  7.4e-05  0.919159  0.0  0.295413  0.391925  -8.9e-05  0.943864  0.0
H  H17  1  0.47839374  0.07933492  0.73208874  1  0.42711  0.000133  0.873488  0.0  0.39856  0.0  0.93388  0.0  0.408401  7.5e-05  0.919333  0.0  0.29515  0.391717  -8.9e-05  0.943952  0.0
H  H18  1  0.21032314  0.57927376  0.26802843  1  0.427851  0.000133  0.87238  0.0  0.398809  0.0  0.933738  0.0  0.408689  7.4e-05  0.919141  0.0  0.295419  0.391936  -8.9e-05  0.943846  0.0
H  H19  1  0.52160605  0.92066382  0.26790863  1  0.427075  0.000133  0.873539  0.0  0.398522  0.0  0.933936  0.0  0.408364  7.5e-05  0.919389  0.0  0.295133  0.391679  -8.9e-05  0.944009  0.0
H  H20  1  0.90429241  0.54703002  0.74788067  1  0.429747  0.000141  0.863456  0.0  0.403794  0.000112  0.919546  0.0  0.413943  0.000157  0.904568  0.0  0.303578  0.396492  5.2e-05  0.930321  0.0
H  H21  1  0.34799073  0.95296634  0.74781586  1  0.429863  0.000138  0.863178  0.0  0.40407  0.000109  0.919023  0.0  0.414188  0.000155  0.904074  0.0  0.3037  0.396784  4.9e-05  0.929787  0.0
H  H22  1  0.09570690  0.45297127  0.25211671  1  0.429761  0.00014  0.863436  0.0  0.403804  0.000112  0.919528  0.0  0.413953  0.000157  0.904551  0.0  0.303581  0.396504  5.2e-05  0.930302  0.0
H  H23  1  0.65201185  0.04703236  0.25218158  1  0.429827  0.000138  0.863232  0.0  0.404063  0.000109  0.919044  0.0  0.414188  0.000155  0.904088  0.0  0.303691  0.396777  4.9e-05  0.929812  0.0
C  C24  1  0.49334034  0.58289388  0.54273085  1  -0.383341  -0.003569  3.675145  -0.005  -0.403086  -0.002393  3.920096  -0.003  -0.411207  -0.00155  3.928924  -0.002  -0.153179  -0.397448  -0.003306  3.914562  -0.004
C  C25  1  0.96373125  0.91717647  0.54268582  1  -0.381993  -0.003594  3.675389  -0.005  -0.401757  -0.002407  3.920328  -0.003  -0.409842  -0.001559  3.929115  -0.002  -0.153393  -0.396226  -0.003329  3.914914  -0.004
C  C26  1  0.50665874  0.41710483  0.45727007  1  -0.383373  -0.003565  3.675235  -0.005  -0.403115  -0.002392  3.920172  -0.003  -0.41123  -0.00155  3.929002  -0.002  -0.153194  -0.397476  -0.003307  3.914639  -0.004
C  C27  1  0.03626792  0.08282606  0.45731571  1  -0.382057  -0.003594  3.675363  -0.005  -0.401831  -0.002407  3.920348  -0.003  -0.409902  -0.001559  3.929119  -0.002  -0.153412  -0.3963  -0.003329  3.914935  -0.004
O  O28  1  0.36445846  0.73841811  0.85985406  1  -0.929476  -0.042752  2.055464  -0.069  -0.860842  -0.03418  2.354606  -0.047  -0.898186  -0.026261  2.328921  -0.035  -0.385598  -0.830713  -0.041648  2.371395  -0.057
O  O29  1  0.77536272  0.76176602  0.85984845  1  -0.930194  -0.042778  2.055681  -0.069  -0.861316  -0.034213  2.354701  -0.047  -0.89866  -0.026289  2.328921  -0.035  -0.385769  -0.831176  -0.041694  2.371541  -0.057
O  O30  1  0.63554353  0.26158185  0.14014514  1  -0.929459  -0.042752  2.055466  -0.069  -0.860847  -0.03418  2.354672  -0.047  -0.898197  -0.02626  2.328985  -0.035  -0.385575  -0.830712  -0.04165  2.371463  -0.057
O  O31  1  0.22463425  0.23823528  0.14015125  1  -0.93021  -0.042777  2.055676  -0.069  -0.861324  -0.034212  2.354683  -0.047  -0.89867  -0.026289  2.328907  -0.035  -0.385786  -0.831185  -0.041695  2.371527  -0.057
O  O32  1  0.53843118  0.42902998  0.81699284  1  -0.892166  -0.039932  2.099814  -0.066  -0.826926  -0.034407  2.403749  -0.048  -0.864136  -0.027209  2.378191  -0.037  -0.365423  -0.796406  -0.041266  2.419749  -0.058
O  O33  1  0.64464585  0.07138281  0.81685600  1  -0.891491  -0.039877  2.100461  -0.066  -0.826537  -0.034352  2.404007  -0.048  -0.863862  -0.027166  2.378718  -0.037  -0.365579  -0.79603  -0.041205  2.420012  -0.058
O  O34  1  0.46156883  0.57097001  0.18300692  1  -0.892156  -0.039931  2.099816  -0.066  -0.826905  -0.034407  2.403746  -0.048  -0.864117  -0.027209  2.378189  -0.037  -0.365422  -0.796388  -0.041264  2.419743  -0.058
O  O35  1  0.35535345  0.92861716  0.18314730  1  -0.891505  -0.039877  2.1005  -0.066  -0.826542  -0.034352  2.404034  -0.048  -0.863877  -0.027166  2.378779  -0.037  -0.365573  -0.796035  -0.041202  2.420036  -0.058
O  O36  1  0.19311791  0.51066778  0.84753696  1  -0.956835  -0.002159  1.939938  -0.005  -0.869742  -0.001645  2.20544  -0.004  -0.898717  -0.000796  2.188385  -0.002  -0.470111  -0.848712  -0.002737  2.216516  -0.006
O  O37  1  0.95935635  0.98930958  0.84748084  1  -0.955813  -0.002163  1.938604  -0.005  -0.868628  -0.001648  2.203759  -0.004  -0.897582  -0.000797  2.186667  -0.002  -0.469634  -0.847598  -0.002742  2.214832  -0.006
O  O38  1  0.80688174  0.48933220  0.15246457  1  -0.956789  -0.00216  1.939932  -0.005  -0.869699  -0.001645  2.205438  -0.004  -0.898674  -0.000795  2.188381  -0.002  -0.470092  -0.84867  -0.002737  2.216513  -0.006
O  O39  1  0.04064238  0.01068913  0.15252185  1  -0.95581  -0.002164  1.938603  -0.005  -0.868619  -0.001648  2.203758  -0.004  -0.897572  -0.000797  2.186666  -0.002  -0.469624  -0.84759  -0.002742  2.214831  -0.006
O  O40  1  0.91846504  0.42636399  0.72078922  1  -0.876149  0.000215  1.761827  0.0  -0.827808  -6.9e-05  1.93077  0.0  -0.845953  0.000149  1.899993  0.0  -0.633865  -0.814806  -0.000338  1.952263  -0.001
O  O41  1  0.36084329  0.07365462  0.72081734  1  -0.875933  0.000213  1.762516  0.0  -0.827906  -7e-05  1.93119  0.0  -0.845964  0.000147  1.900582  0.0  -0.633907  -0.814978  -0.000339  1.952605  -0.001
O  O42  1  0.08153473  0.57363728  0.27921054  1  -0.876169  0.000217  1.761814  0.0  -0.827824  -7e-05  1.930768  0.0  -0.845969  0.000149  1.899991  0.0  -0.633874  -0.814825  -0.000337  1.952259  -0.001
O  O43  1  0.63915731  0.92634409  0.27918064  1  -0.87587  0.000214  1.762611  0.0  -0.827868  -7e-05  1.931201  0.0  -0.845936  0.000148  1.900586  0.0  -0.633884  -0.814943  -0.000339  1.952615  -0.001
