# generated using pymatgen
data_CoP2H46(C28O3)2
_symmetry_space_group_name_H-M   'P 1'
_cell_length_a   9.46369604
_cell_length_b   10.92233044
_cell_length_c   11.31012140
_cell_angle_alpha   86.98192723
_cell_angle_beta   88.69186378
_cell_angle_gamma   70.72373838
_symmetry_Int_Tables_number   1
_chemical_formula_structural   CoP2H46(C28O3)2
_chemical_formula_sum   'Co1 P2 H46 C56 O6'
_cell_volume   1101.98756415
_cell_formula_units_Z   1
loop_
 _symmetry_equiv_pos_site_id
 _symmetry_equiv_pos_as_xyz
  1  'x, y, z'
loop_
 _atom_site_type_symbol
 _atom_site_label
 _atom_site_symmetry_multiplicity
 _atom_site_fract_x
 _atom_site_fract_y
 _atom_site_fract_z
 _atom_site_occupancy
 _atom_site_hse06_10hf_ddec_charge
 _atom_site_hse06_10hf_ddec_spin_density
 _atom_site_hse06_10hf_ddec_sum_bond_order
 _atom_site_hse06_10hf_magmom
 _atom_site_hse06_ddec_charge
 _atom_site_hse06_ddec_spin_density
 _atom_site_hse06_ddec_sum_bond_order
 _atom_site_hse06_magmom
 _atom_site_pbe_cm5_charge
 _atom_site_pbe_ddec_charge
 _atom_site_pbe_ddec_spin_density
 _atom_site_pbe_ddec_sum_bond_order
 _atom_site_pbe_magmom
Co  Co0  1  0.50000250  0.50000261  0.49999976  1  1.007741  1.125261  2.697262  1.062  1.046755  1.066118  2.636799  1.01  0.656845  0.98135  1.139452  2.736683  1.074
P  P1  1  0.83546711  0.52832868  0.64385029  1  0.890527  0.00564  4.808953  0.01  0.918984  0.004438  4.801569  0.008  0.250841  0.870587  0.006631  4.813485  0.011
P  P2  1  0.16453936  0.47167266  0.35615032  1  0.89064  0.00564  4.808705  0.01  0.919085  0.004438  4.801319  0.008  0.25086  0.870694  0.006631  4.813239  0.011
H  H3  1  0.42659836  0.21146708  0.73018529  1  0.113428  -3.6e-05  1.003214  0.0  0.117323  -3.2e-05  1.000629  0.0  0.105319  0.110772  -7.6e-05  1.004837  0.0
H  H4  1  0.57340221  0.78852749  0.26981673  1  0.113454  -3.6e-05  1.003187  0.0  0.11735  -3.3e-05  1.000601  0.0  0.105326  0.110797  -7.6e-05  1.004808  0.0
H  H5  1  0.43940734  0.05817814  0.90363319  1  0.092133  -1.9e-05  1.048421  0.0  0.09447  -9e-06  1.048337  0.0  0.095548  0.090518  -1.7e-05  1.04852  0.0
H  H6  1  0.56059102  0.94182228  0.09637117  1  0.092166  -1.8e-05  1.048407  0.0  0.094465  -9e-06  1.048368  0.0  0.095558  0.090551  -1.8e-05  1.048508  0.0
H  H7  1  0.42033197  0.13728759  0.10929169  1  0.088437  -0.00014  1.054989  0.0  0.090543  -6.7e-05  1.055058  0.0  0.092581  0.087045  -0.000184  1.054846  0.0
H  H8  1  0.57967381  0.86271281  0.89071076  1  0.088421  -0.00014  1.054998  0.0  0.090525  -6.7e-05  1.055078  0.0  0.092594  0.087031  -0.000184  1.054852  0.0
H  H9  1  0.38973185  0.36822586  0.13836413  1  0.096478  -2.3e-05  1.032332  0.0  0.098472  -2.4e-05  1.033468  0.0  0.095673  0.094979  -3.2e-05  1.031884  0.0
H  H10  1  0.61027848  0.63177644  0.86163546  1  0.096456  -2.4e-05  1.032393  0.0  0.098454  -2.4e-05  1.033525  0.0  0.09566  0.094958  -3.2e-05  1.031945  0.0
H  H11  1  0.37006653  0.52086189  0.96658230  1  0.095761  -8e-05  1.051999  0.0  0.097848  -3.7e-05  1.052373  0.0  0.095986  0.094312  -0.000111  1.051775  0.0
H  H12  1  0.62993432  0.47913749  0.03341501  1  0.095773  -8e-05  1.051964  0.0  0.097859  -3.7e-05  1.052342  0.0  0.095976  0.094324  -0.000111  1.051742  0.0
H  H13  1  0.26670539  0.63360856  0.82233346  1  0.113372  0.000149  1.090486  0.0  0.115777  7.5e-05  1.092631  0.0  0.090204  0.111987  0.000153  1.088966  0.0
H  H14  1  0.73330612  0.36638505  0.17767104  1  0.11345  0.000148  1.090429  0.0  0.115856  7.5e-05  1.092572  0.0  0.090235  0.112066  0.000153  1.088913  0.0
H  H15  1  0.29968380  0.80972986  0.86179391  1  0.095062  -8.8e-05  1.049355  0.0  0.097244  -4e-05  1.049239  0.0  0.096229  0.093349  -0.000115  1.049841  0.0
H  H16  1  0.70032152  0.19027734  0.13820991  1  0.095028  -8.7e-05  1.049445  0.0  0.097213  -3.9e-05  1.049322  0.0  0.096217  0.09332  -0.000115  1.049932  0.0
H  H17  1  0.18127546  0.04401573  0.89676261  1  0.097794  4e-06  1.015319  0.0  0.100186  -5e-06  1.015273  0.0  0.096783  0.09612  -5e-06  1.015454  0.0
H  H18  1  0.81872677  0.95598562  0.10323808  1  0.097816  4e-06  1.015257  0.0  0.100207  -5e-06  1.01521  0.0  0.096796  0.096141  -5e-06  1.015389  0.0
H  H19  1  0.07791658  0.20099359  0.72910228  1  0.089477  -8e-05  1.058507  0.0  0.091268  -4.2e-05  1.059349  0.0  0.09252  0.088264  -0.000118  1.057693  0.0
H  H20  1  0.92208321  0.79900590  0.27090654  1  0.089519  -8e-05  1.058513  0.0  0.091309  -4.2e-05  1.059355  0.0  0.092546  0.088306  -0.000118  1.057699  0.0
H  H21  1  0.09169951  0.12258728  0.52341825  1  0.096464  -1.2e-05  1.027071  0.0  0.09887  -1.5e-05  1.027516  0.0  0.095834  0.094772  -9e-06  1.026682  0.0
H  H22  1  0.90829250  0.87741324  0.47659509  1  0.096588  -1.2e-05  1.026998  0.0  0.098996  -1.5e-05  1.02744  0.0  0.095873  0.094892  -9e-06  1.026608  0.0
H  H23  1  0.20825231  0.88710100  0.48946880  1  0.108685  -4.4e-05  1.014859  0.0  0.112205  -3.2e-05  1.012687  0.0  0.103334  0.106053  -4.8e-05  1.016678  0.0
H  H24  1  0.79174923  0.11289941  0.51053461  1  0.108605  -4.4e-05  1.014838  0.0  0.112122  -3.2e-05  1.012668  0.0  0.103319  0.105973  -4.8e-05  1.016657  0.0
H  H25  1  0.05689252  0.48397437  0.84186723  1  0.093113  -1.8e-05  1.032261  0.0  0.095036  -3e-06  1.032463  0.0  0.098664  0.092101  -3.6e-05  1.031666  0.0
H  H26  1  0.94311081  0.51602412  0.15813892  1  0.09308  -1.8e-05  1.032263  0.0  0.095004  -3e-06  1.032464  0.0  0.098652  0.092065  -3.6e-05  1.031669  0.0
H  H27  1  0.10712082  0.33009504  0.01533998  1  0.095674  -1e-05  1.045135  0.0  0.097188  -3e-06  1.047038  0.0  0.096434  0.094426  -2.7e-05  1.044502  0.0
H  H28  1  0.89288159  0.66989467  0.98466230  1  0.095712  -9e-06  1.045118  0.0  0.097234  -3e-06  1.046989  0.0  0.096463  0.094478  -2.7e-05  1.044439  0.0
H  H29  1  0.95153156  0.18784846  0.05465676  1  0.090096  -2.9e-05  1.040483  0.0  0.092511  -1.6e-05  1.039591  0.0  0.096846  0.088271  -3.5e-05  1.041261  0.0
H  H30  1  0.04846231  0.81214704  0.94534004  1  0.090157  -2.9e-05  1.040497  0.0  0.092572  -1.6e-05  1.039605  0.0  0.096855  0.08833  -3.5e-05  1.041279  0.0
H  H31  1  0.74288805  0.20078570  0.91820997  1  0.100493  -3e-06  1.009682  0.0  0.10227  -1e-06  1.010742  0.0  0.1002  0.099062  -5e-06  1.009494  0.0
H  H32  1  0.25711029  0.79921750  0.08178097  1  0.100414  -3e-06  1.00972  0.0  0.102191  -1e-06  1.010781  0.0  0.100161  0.098984  -5e-06  1.009532  0.0
H  H33  1  0.69446994  0.35376219  0.74054318  1  0.119046  -0.000214  1.036427  0.0  0.123167  -0.000157  1.034012  0.0  0.109157  0.116173  -0.000245  1.03827  0.0
H  H34  1  0.30553833  0.64623713  0.25944955  1  0.119005  -0.000214  1.036502  0.0  0.123122  -0.000157  1.034092  0.0  0.109146  0.116134  -0.000245  1.038346  0.0
H  H35  1  0.57890451  0.74515284  0.59173955  1  0.119696  -0.000247  1.043508  0.0  0.124051  -0.000183  1.040729  0.0  0.109429  0.116881  -0.000288  1.045222  0.0
H  H36  1  0.42109888  0.25484262  0.40825528  1  0.11961  -0.000247  1.043569  0.0  0.12396  -0.000182  1.040798  0.0  0.109386  0.116796  -0.000288  1.045282  0.0
H  H37  1  0.50752367  0.98179590  0.62252161  1  0.104655  -3e-06  1.003131  0.0  0.106824  -2e-06  1.00384  0.0  0.103446  0.102952  -8e-06  1.003321  0.0
H  H38  1  0.49246032  0.01820055  0.37747269  1  0.104674  -4e-06  1.003273  0.0  0.106839  -2e-06  1.003993  0.0  0.103493  0.102975  -8e-06  1.003452  0.0
H  H39  1  0.69035440  0.07015106  0.71211225  1  0.104768  -2.6e-05  1.002766  0.0  0.107746  -1.5e-05  1.001057  0.0  0.105297  0.102655  -4.4e-05  1.004036  0.0
H  H40  1  0.30962095  0.92985704  0.28787976  1  0.104733  -2.7e-05  1.002829  0.0  0.107716  -1.5e-05  1.001107  0.0  0.105201  0.102617  -4.4e-05  1.004104  0.0
H  H41  1  0.94348484  0.92183255  0.76845615  1  0.092614  -6e-06  1.047933  0.0  0.094132  -3e-06  1.049692  0.0  0.095436  0.091573  -3e-06  1.046985  0.0
H  H42  1  0.05649706  0.07818619  0.23153332  1  0.092644  -6e-06  1.047943  0.0  0.094162  -3e-06  1.049701  0.0  0.095487  0.091607  -3e-06  1.046997  0.0
H  H43  1  0.01306707  0.68568598  0.74336173  1  0.088477  -2.6e-05  1.051195  0.0  0.090682  -6e-06  1.051003  0.0  0.095572  0.087426  -3.9e-05  1.050652  0.0
H  H44  1  0.98693430  0.31432603  0.25663657  1  0.088363  -2.6e-05  1.05131  0.0  0.090569  -6e-06  1.051115  0.0  0.095553  0.087315  -3.9e-05  1.050764  0.0
H  H45  1  0.09780303  0.50492964  0.60647768  1  0.14709  0.000293  0.990279  0.001  0.148837  0.000221  0.990846  0.0  0.110131  0.145773  0.00025  0.990184  0.001
H  H46  1  0.90220157  0.49507945  0.39352073  1  0.147069  0.000293  0.990278  0.001  0.148801  0.000221  0.990861  0.0  0.110152  0.145751  0.00025  0.990183  0.001
H  H47  1  0.05096934  0.36701625  0.56990410  1  0.14333  -5.6e-05  0.978081  0.0  0.144576  -4.7e-05  0.978847  0.0  0.111107  0.14248  -5.4e-05  0.977449  0.0
H  H48  1  0.94903916  0.63299089  0.43009434  1  0.143218  -5.6e-05  0.978062  0.0  0.144466  -4.7e-05  0.978826  0.0  0.111071  0.142368  -5.4e-05  0.977428  0.0
C  C49  1  0.39600704  0.46517428  0.73186618  1  0.367073  -0.02111  4.09102  -0.013  0.400279  -0.012442  4.092383  -0.008  0.107755  0.345259  -0.023477  4.090853  -0.014
C  C50  1  0.60399878  0.53482318  0.26813379  1  0.367039  -0.021105  4.091132  -0.013  0.400227  -0.012439  4.092521  -0.008  0.107742  0.34525  -0.023473  4.090932  -0.014
C  C51  1  0.39640261  0.37630781  0.83608364  1  0.006891  -0.000481  3.985722  0.001  6e-06  0.000214  4.006373  0.001  -0.01574  0.010994  -0.001093  3.971368  0.001
C  C52  1  0.60359580  0.62368964  0.16391472  1  0.006969  -0.00048  3.98558  0.001  8.9e-05  0.000214  4.006238  0.001  -0.015757  0.011065  -0.001093  3.971222  0.001
C  C53  1  0.41774456  0.24476635  0.82009898  1  -0.110874  -0.004302  3.974467  -0.003  -0.109261  -0.00292  3.992758  -0.002  -0.086945  -0.112102  -0.005036  3.961916  -0.003
C  C54  1  0.58225174  0.75523114  0.17990296  1  -0.110865  -0.004302  3.974398  -0.003  -0.10925  -0.002919  3.992678  -0.002  -0.086901  -0.112093  -0.005036  3.961849  -0.003
C  C55  1  0.42590448  0.15928291  0.91760457  1  -0.097413  0.000565  4.042369  0.001  -0.101295  0.000656  4.063897  0.001  -0.096977  -0.094636  0.000418  4.028167  0.001
C  C56  1  0.57408787  0.84071945  0.08239804  1  -0.097484  0.000565  4.042495  0.001  -0.101341  0.000656  4.064042  0.001  -0.096991  -0.09471  0.000418  4.028292  0.001
C  C57  1  0.41509029  0.20317682  0.03252903  1  -0.092005  -0.004881  4.022773  -0.003  -0.090899  -0.003025  4.041298  -0.002  -0.095181  -0.092425  -0.005951  4.010493  -0.003
C  C58  1  0.58491231  0.79682358  0.96747348  1  -0.091873  -0.004879  4.022908  -0.003  -0.09077  -0.003025  4.041433  -0.002  -0.095197  -0.092295  -0.00595  4.01063  -0.003
C  C59  1  0.39533453  0.33361324  0.04922563  1  -0.087385  0.000588  4.028303  0.001  -0.090487  0.000649  4.049009  0.001  -0.096297  -0.085489  0.000468  4.014732  0.001
C  C60  1  0.60467014  0.66639004  0.95077490  1  -0.087471  0.000588  4.028649  0.001  -0.090575  0.000649  4.049349  0.001  -0.096257  -0.085578  0.000468  4.015081  0.001
C  C61  1  0.38413376  0.41982494  0.95191853  1  -0.113849  -0.004213  3.965892  -0.003  -0.113686  -0.002809  3.986502  -0.002  -0.088918  -0.113395  -0.004804  3.951566  -0.003
C  C62  1  0.61586462  0.58017542  0.04807877  1  -0.113903  -0.004214  3.965988  -0.003  -0.11374  -0.002807  3.986603  -0.002  -0.088967  -0.113448  -0.004803  3.951668  -0.003
C  C63  1  0.32598618  0.59946604  0.74070600  1  -0.463408  -0.000273  4.060386  0.003  -0.488084  0.000255  4.075288  0.002  -0.158299  -0.449285  -0.001166  4.051585  0.002
C  C64  1  0.67402740  0.40053047  0.25929740  1  -0.463515  -0.000273  4.060526  0.003  -0.488157  0.000255  4.075464  0.002  -0.158323  -0.44942  -0.001167  4.051705  0.002
C  C65  1  0.32886507  0.69273627  0.65109733  1  0.374712  -0.020795  4.076278  -0.013  0.40801  -0.012374  4.077446  -0.008  0.111134  0.353479  -0.022888  4.074561  -0.014
C  C66  1  0.67114282  0.30726416  0.34890860  1  0.374758  -0.020789  4.076323  -0.013  0.407962  -0.012372  4.077616  -0.008  0.111163  0.353573  -0.022883  4.074542  -0.014
C  C67  1  0.25777554  0.83262334  0.67332548  1  0.008782  -0.000506  3.986964  0.001  0.001866  0.000147  4.007978  0.001  -0.015563  0.01316  -0.001039  3.972062  0.001
C  C68  1  0.74223268  0.16737899  0.32667768  1  0.008808  -0.000506  3.986723  0.001  0.00194  0.000148  4.007725  0.001  -0.015505  0.013174  -0.001038  3.97181  0.001
C  C69  1  0.25032594  0.87777271  0.78819062  1  -0.130585  -0.003852  4.003047  -0.002  -0.130843  -0.002602  4.023945  -0.002  -0.094049  -0.130301  -0.00431  3.988962  -0.003
C  C70  1  0.74967984  0.12222767  0.21181094  1  -0.130674  -0.003852  4.002972  -0.002  -0.130931  -0.002602  4.023851  -0.002  -0.094065  -0.130406  -0.00431  3.988912  -0.003
C  C71  1  0.18568330  0.00953022  0.80762223  1  -0.096912  0.000535  4.051706  0.001  -0.100442  0.000597  4.072872  0.001  -0.098819  -0.094661  0.000407  4.037896  0.001
C  C72  1  0.81431719  0.99047021  0.19238297  1  -0.096847  0.000535  4.051642  0.001  -0.100378  0.000597  4.072811  0.001  -0.098824  -0.094593  0.000407  4.037829  0.001
C  C73  1  0.12811576  0.09821897  0.71276479  1  -0.083634  -0.004904  4.01342  -0.003  -0.082431  -0.003009  4.033049  -0.002  -0.094724  -0.084468  -0.005286  4.000616  -0.003
C  C74  1  0.87187911  0.90177954  0.28724242  1  -0.083592  -0.004903  4.013424  -0.003  -0.082392  -0.003009  4.03306  -0.002  -0.094715  -0.08443  -0.005286  4.000617  -0.003
C  C75  1  0.13613239  0.05426819  0.59812699  1  -0.088398  0.000529  4.027375  0.001  -0.091755  0.000613  4.048121  0.001  -0.093052  -0.086201  0.000395  4.013819  0.001
C  C76  1  0.86386565  0.94573034  0.40188281  1  -0.08865  0.000529  4.027354  0.001  -0.092011  0.000613  4.048101  0.001  -0.093066  -0.086447  0.000395  4.013791  0.001
C  C77  1  0.20097666  0.92240596  0.57845249  1  -0.104561  -0.004097  3.965178  -0.002  -0.102838  -0.002767  3.983489  -0.002  -0.085419  -0.105992  -0.004629  3.953229  -0.003
C  C78  1  0.79901784  0.07759351  0.42155290  1  -0.104442  -0.004097  3.964951  -0.002  -0.102725  -0.002767  3.98326  -0.002  -0.085506  -0.105872  -0.004628  3.953  -0.003
C  C79  1  0.86981539  0.43034977  0.78118532  1  -0.168144  2.3e-05  4.019508  0.0  -0.175552  2.3e-05  4.042397  0.0  -0.028262  -0.162787  -3.2e-05  4.003788  0.0
C  C80  1  0.13019039  0.56965059  0.21881448  1  -0.168253  2.4e-05  4.019539  0.0  -0.175651  2.3e-05  4.04241  0.0  -0.028334  -0.162897  -3.2e-05  4.00382  0.0
C  C81  1  0.98647011  0.42341989  0.85827359  1  -0.074227  0.000148  3.996844  0.0  -0.074623  0.000121  4.01906  0.0  -0.081643  -0.073959  0.000164  3.981247  0.0
C  C82  1  0.01353534  0.57657858  0.14173074  1  -0.074123  0.000149  3.99699  0.0  -0.074521  0.000121  4.019203  0.0  -0.08159  -0.073852  0.000163  3.981391  0.0
C  C83  1  0.01516837  0.33637725  0.95656811  1  -0.07759  5e-06  3.994195  0.0  -0.080924  1e-06  4.017282  0.0  -0.08832  -0.075891  8e-06  3.979367  0.0
C  C84  1  0.98482935  0.66361928  0.04343474  1  -0.07759  4e-06  3.994394  0.0  -0.080921  1e-06  4.017489  0.0  -0.088307  -0.075886  8e-06  3.979569  0.0
C  C85  1  0.92768732  0.25649541  0.97829902  1  -0.081675  -4.6e-05  4.00948  0.0  -0.082166  -2.9e-05  4.029426  0.0  -0.088394  -0.081127  -8.2e-05  3.995875  0.0
C  C86  1  0.07230861  0.74350302  0.02170022  1  -0.081878  -4.5e-05  4.009619  0.0  -0.082371  -2.9e-05  4.029567  0.0  -0.088454  -0.081335  -8.2e-05  3.996018  0.0
C  C87  1  0.81124272  0.26327326  0.90176010  1  -0.08391  -6.6e-05  4.003578  0.0  -0.087272  -3.9e-05  4.025935  0.0  -0.089174  -0.081744  -0.00011  3.988033  0.0
C  C88  1  0.18875778  0.73672704  0.09823273  1  -0.083779  -6.6e-05  4.003511  0.0  -0.08714  -4e-05  4.025868  0.0  -0.089151  -0.081612  -0.00011  3.987966  0.0
C  C89  1  0.78241824  0.34955799  0.80282079  1  -0.071429  -0.00013  3.959278  0.0  -0.071375  -0.000107  3.97876  0.0  -0.077168  -0.071186  -0.000129  3.945615  0.0
C  C90  1  0.21758680  0.65044427  0.19717448  1  -0.07134  -0.000131  3.959189  0.0  -0.071285  -0.000106  3.97867  0.0  -0.077095  -0.071101  -0.000129  3.945527  0.0
C  C91  1  0.79770138  0.69913888  0.66945438  1  -0.162975  -0.000168  3.999131  0.0  -0.170743  -0.000128  4.023248  0.0  -0.029455  -0.157424  -0.000195  3.982726  0.0
C  C92  1  0.20229732  0.30086342  0.33054368  1  -0.163002  -0.000167  3.999127  0.0  -0.170769  -0.000128  4.023243  0.0  -0.02945  -0.157447  -0.000195  3.982717  0.0
C  C93  1  0.65655429  0.78404190  0.63370565  1  -0.071947  -7.6e-05  3.955838  0.0  -0.07184  -7.4e-05  3.975578  0.0  -0.07681  -0.071899  -0.000119  3.941771  0.0
C  C94  1  0.34344620  0.21595843  0.36628984  1  -0.071813  -7.7e-05  3.955737  0.0  -0.071709  -7.4e-05  3.975491  0.0  -0.076761  -0.071767  -0.000119  3.941672  0.0
C  C95  1  0.61776552  0.91693822  0.65010340  1  -0.080285  -5.4e-05  3.997039  0.0  -0.083856  -3.8e-05  4.019258  0.0  -0.085584  -0.078267  -0.000104  3.982168  0.0
C  C96  1  0.38222335  0.08306209  0.34988880  1  -0.080454  -5.3e-05  3.997353  0.0  -0.084027  -3.8e-05  4.019568  0.0  -0.085672  -0.078434  -0.000104  3.982478  0.0
C  C97  1  0.72008660  0.96618328  0.70035408  1  -0.072956  -3e-06  3.999949  0.0  -0.073373  1e-05  4.020011  0.0  -0.082048  -0.07227  -7e-06  3.986255  0.0
C  C98  1  0.27989795  0.03382288  0.29963874  1  -0.073  -3e-06  3.999854  0.0  -0.073413  1e-05  4.019915  0.0  -0.081996  -0.072311  -7e-06  3.986157  0.0
C  C99  1  0.86199654  0.88248039  0.73326305  1  -0.087716  -4.9e-05  4.005635  0.0  -0.091567  -3.1e-05  4.029232  0.0  -0.090895  -0.0853  -6.2e-05  3.98956  0.0
C  C100  1  0.13798829  0.11753064  0.26673212  1  -0.087613  -4.8e-05  4.005256  0.0  -0.091465  -3e-05  4.028856  0.0  -0.090861  -0.085201  -6.2e-05  3.989185  0.0
C  C101  1  0.90105058  0.74918791  0.71852898  1  -0.081573  0.000105  4.001269  0.0  -0.082023  9.6e-05  4.023765  0.0  -0.085827  -0.081241  0.000118  3.985192  0.0
C  C102  1  0.09894946  0.25081924  0.28146876  1  -0.081423  0.000104  4.001337  0.0  -0.08187  9.6e-05  4.023826  0.0  -0.085793  -0.081091  0.000118  3.985259  0.0
C  C103  1  0.01240977  0.47389069  0.56428244  1  -0.357055  0.000717  3.918954  0.001  -0.362439  0.000529  3.92853  0.001  -0.157027  -0.352861  0.000956  3.911584  0.001
C  C104  1  0.98759698  0.52611551  0.43571787  1  -0.356793  0.000718  3.918794  0.001  -0.362169  0.000528  3.928374  0.001  -0.156979  -0.352591  0.000956  3.911418  0.001
O  O105  1  0.46595462  0.41026243  0.63945708  1  -0.462571  -0.007151  2.44462  -0.005  -0.495087  -0.005005  2.435688  -0.003  -0.283036  -0.440321  -0.006901  2.44965  -0.005
O  O106  1  0.53405540  0.58973790  0.36053998  1  -0.462561  -0.00715  2.444776  -0.005  -0.495072  -0.005003  2.435854  -0.003  -0.283014  -0.440317  -0.006899  2.449792  -0.005
O  O107  1  0.39152315  0.66761841  0.54884479  1  -0.457511  -0.007833  2.449319  -0.006  -0.490372  -0.005522  2.440827  -0.004  -0.281974  -0.435329  -0.007624  2.453568  -0.006
O  O108  1  0.60848400  0.33238394  0.45115928  1  -0.457532  -0.007833  2.449241  -0.006  -0.490362  -0.005523  2.44079  -0.004  -0.281986  -0.435364  -0.007624  2.453474  -0.006
O  O109  1  0.71158637  0.50887360  0.57552481  1  -0.677433  0.014209  2.317799  0.02  -0.698539  0.01195  2.304057  0.017  -0.34431  -0.661568  0.016839  2.326444  0.024
O  O110  1  0.28842047  0.49112674  0.42447319  1  -0.677548  0.014208  2.317808  0.02  -0.698636  0.01195  2.304055  0.017  -0.344356  -0.661681  0.016839  2.326452  0.024
