# generated using pymatgen
data_MgH10C9NO5
_symmetry_space_group_name_H-M   'P 1'
_cell_length_a   7.37750763
_cell_length_b   11.63484413
_cell_length_c   12.40891225
_cell_angle_alpha   80.08208253
_cell_angle_beta   72.74891635
_cell_angle_gamma   71.50119152
_symmetry_Int_Tables_number   1
_chemical_formula_structural   MgH10C9NO5
_chemical_formula_sum   'Mg4 H40 C36 N4 O20'
_cell_volume   961.06069363
_cell_formula_units_Z   4
loop_
 _symmetry_equiv_pos_site_id
 _symmetry_equiv_pos_as_xyz
  1  'x, y, z'
loop_
 _atom_site_type_symbol
 _atom_site_label
 _atom_site_symmetry_multiplicity
 _atom_site_fract_x
 _atom_site_fract_y
 _atom_site_fract_z
 _atom_site_occupancy
 _atom_site_hle17_bader_spin_density
 _atom_site_hle17_ddec_charge
 _atom_site_hle17_ddec_spin_density
 _atom_site_hle17_ddec_sum_bond_order
 _atom_site_hle17_magmom
 _atom_site_hse06_10hf_bader_spin_density
 _atom_site_hse06_10hf_ddec_charge
 _atom_site_hse06_10hf_ddec_spin_density
 _atom_site_hse06_10hf_ddec_sum_bond_order
 _atom_site_hse06_10hf_magmom
 _atom_site_hse06_bader_spin_density
 _atom_site_hse06_ddec_charge
 _atom_site_hse06_ddec_spin_density
 _atom_site_hse06_ddec_sum_bond_order
 _atom_site_hse06_magmom
 _atom_site_pbe_bader_spin_density
 _atom_site_pbe_cm5_charge
 _atom_site_pbe_ddec_charge
 _atom_site_pbe_ddec_spin_density
 _atom_site_pbe_ddec_sum_bond_order
 _atom_site_pbe_magmom
Mg  Mg0  1  0.53956228  0.74890990  0.75731401  1  0  1.495095  0  1.142226  0  0  1.385465  0  1.401286  0  0  1.410925  0  1.362255  0  0  0.808291  1.367757  0  1.427832  0
Mg  Mg1  1  0.04593403  0.75096897  0.74261253  1  0  1.494323  0  1.143353  0  0  1.384991  0  1.402148  0  0  1.410423  0  1.363237  0  0  0.807997  1.367584  0  1.427951  0
Mg  Mg2  1  0.46043738  0.25108976  0.24268518  1  0  1.495104  0  1.142208  0  0  1.385473  0  1.401281  0  0  1.410931  0  1.362253  0  0  0.808304  1.367767  0  1.427818  0
Mg  Mg3  1  0.95406482  0.24903069  0.25738747  1  0  1.494362  0  1.143285  0  0  1.385004  0  1.402121  0  0  1.410435  0  1.363208  0  0  0.807999  1.367585  0  1.427946  0
H  H4  1  0.83948952  0.56941759  0.55603953  1  0  0.118981  0  0.961175  0  0  0.126135  0  1.02511  0  0  0.129311  0  1.02252  0  0  0.135771  0.123767  0  1.02704  0
H  H5  1  0.96473531  0.93093267  0.94397370  1  0  0.118418  0  0.961699  0  0  0.125332  0  1.025885  0  0  0.128532  0  1.023359  0  0  0.135379  0.12294  0  1.027813  0
H  H6  1  0.16050643  0.43058663  0.44396091  1  0  0.119038  0  0.961188  0  0  0.1262  0  1.025101  0  0  0.129379  0  1.022511  0  0  0.135792  0.123833  0  1.027027  0
H  H7  1  0.03526958  0.06906244  0.05602556  1  0  0.118436  0  0.961707  0  0  0.12536  0  1.02586  0  0  0.128541  0  1.023358  0  0  0.135369  0.12297  0  1.027785  0
H  H8  1  0.89711192  0.91368766  0.53067090  1  0  0.131686  0  0.933931  0  0  0.140282  0  0.991838  0  0  0.143664  0  0.988319  0  0  0.145567  0.137742  0  0.994524  0
H  H9  1  0.34157715  0.58660510  0.96920607  1  0  0.131159  0  0.933841  0  0  0.139495  0  0.991945  0  0  0.142865  0  0.988403  0  0  0.14541  0.137057  0  0.994495  0
H  H10  1  0.10288138  0.08631565  0.46932701  1  0  0.131657  0  0.933898  0  0  0.140261  0  0.991831  0  0  0.143634  0  0.988322  0  0  0.145561  0.137721  0  0.994516  0
H  H11  1  0.65842652  0.41339092  0.03079392  1  0  0.13124  0  0.933758  0  0  0.139578  0  0.991865  0  0  0.14295  0  0.988319  0  0  0.145437  0.137138  0  0.994418  0
H  H12  1  0.54199277  0.82026993  0.39409836  1  0  0.121145  0  0.973396  0  0  0.140527  0  1.035725  0  0  0.141557  0  1.037342  0  0  0.089745  0.139837  0  1.034583  0
H  H13  1  0.75610578  0.68004182  0.10597075  1  0  0.121182  0  0.973679  0  0  0.140666  0  1.035914  0  0  0.14175  0  1.037466  0  0  0.090385  0.139932  0  1.03482  0
H  H14  1  0.45800204  0.17973246  0.60590279  1  0  0.121116  0  0.973443  0  0  0.140511  0  1.035759  0  0  0.141541  0  1.037377  0  0  0.089734  0.139821  0  1.034617  0
H  H15  1  0.24389384  0.31995967  0.89402750  1  0  0.121138  0  0.973611  0  0  0.140629  0  1.035854  0  0  0.141713  0  1.037405  0  0  0.090363  0.139895  0  1.03476  0
H  H16  1  0.44438160  0.97633741  0.41420960  1  0  0.152579  0  0.964407  0  0  0.167126  0  1.029356  0  0  0.170227  0  1.028522  0  0  0.100368  0.16495  0  1.029925  0
H  H17  1  0.83480181  0.52394805  0.08601862  1  0  0.152378  0  0.965421  0  0  0.167061  0  1.030166  0  0  0.170195  0  1.0293  0  0  0.100975  0.164879  0  1.030736  0
H  H18  1  0.55561402  0.02366498  0.58579074  1  0  0.15256  0  0.964452  0  0  0.167101  0  1.02941  0  0  0.170201  0  1.028578  0  0  0.100373  0.164921  0  1.029982  0
H  H19  1  0.16519854  0.47605343  0.91398175  1  0  0.152377  0  0.96541  0  0  0.167058  0  1.030161  0  0  0.170192  0  1.029293  0  0  0.100963  0.164876  0  1.030733  0
H  H20  1  0.29151301  0.89467676  0.39146215  1  0  0.123148  0  0.968135  0  0  0.142757  0  1.029031  0  0  0.144268  0  1.029495  0  0  0.089888  0.14167  0  1.028742  0
H  H21  1  0.57763786  0.60569311  0.10819418  1  0  0.122484  0  0.967891  0  0  0.141567  0  1.029582  0  0  0.143145  0  1.029956  0  0  0.089139  0.140404  0  1.029378  0
H  H22  1  0.70848222  0.10532473  0.60853907  1  0  0.123101  0  0.96822  0  0  0.142705  0  1.029129  0  0  0.144216  0  1.029594  0  0  0.089853  0.141618  0  1.028838  0
H  H23  1  0.42236293  0.39430837  0.89180432  1  0  0.122468  0  0.967894  0  0  0.141545  0  1.029596  0  0  0.143123  0  1.029969  0  0  0.089135  0.140388  0  1.029386  0
H  H24  1  0.41452026  0.37396475  0.63165905  1  0  0.116202  0  0.983171  0  0  0.135192  0  1.044969  0  0  0.136922  0  1.045306  0  0  0.08545  0.133942  0  1.044793  0
H  H25  1  0.42021972  0.12598144  0.86831823  1  0  0.117852  0  0.981933  0  0  0.136845  0  1.043677  0  0  0.138562  0  1.044003  0  0  0.086442  0.1356  0  1.043509  0
H  H26  1  0.58547736  0.62603582  0.36834168  1  0  0.116235  0  0.983134  0  0  0.135202  0  1.044956  0  0  0.136933  0  1.045292  0  0  0.085457  0.133951  0  1.044782  0
H  H27  1  0.57977903  0.87402004  0.13168374  1  0  0.117879  0  0.981928  0  0  0.136862  0  1.043675  0  0  0.138578  0  1.044002  0  0  0.086444  0.135617  0  1.043508  0
H  H28  1  0.61803851  0.35419407  0.68971387  1  0  0.116263  0  0.970085  0  0  0.134384  0  1.036176  0  0  0.135868  0  1.037022  0  0  0.087222  0.133342  0  1.03561  0
H  H29  1  0.66198342  0.14576885  0.81038990  1  0  0.117825  0  0.971808  0  0  0.136033  0  1.037551  0  0  0.137428  0  1.038503  0  0  0.088178  0.135077  0  1.036877  0
H  H30  1  0.38195870  0.64580741  0.31028680  1  0  0.116243  0  0.970144  0  0  0.134366  0  1.036227  0  0  0.135851  0  1.037071  0  0  0.087218  0.133324  0  1.035662  0
H  H31  1  0.33802058  0.85422899  0.18961020  1  0  0.117827  0  0.971853  0  0  0.136038  0  1.037587  0  0  0.137433  0  1.038539  0  0  0.088181  0.135084  0  1.036912  0
H  H32  1  0.62651849  0.41930364  0.54936958  1  0  0.140029  0  0.940697  0  0  0.160283  0  0.997937  0  0  0.162458  0  0.998159  0  0  0.09769  0.158737  0  0.997806  0
H  H33  1  0.59544008  0.08056277  0.95067014  1  0  0.139347  0  0.941177  0  0  0.159889  0  0.998086  0  0  0.162046  0  0.9983  0  0  0.097741  0.158369  0  0.997942  0
H  H34  1  0.37348158  0.58069512  0.45062969  1  0  0.140037  0  0.940696  0  0  0.160293  0  0.997937  0  0  0.162468  0  0.998159  0  0  0.097697  0.158746  0  0.997808  0
H  H35  1  0.40456036  0.91943599  0.04933019  1  0  0.139362  0  0.941171  0  0  0.159925  0  0.998052  0  0  0.162082  0  0.998267  0  0  0.097757  0.158405  0  0.997908  0
H  H36  1  0.93004133  0.56524055  0.34249291  1  0  0.13717  0  0.929083  0  0  0.143415  0  0.99042  0  0  0.148006  0  0.98746  0  0  0.123284  0.140044  0  0.992857  0
H  H37  1  0.83793363  0.93487077  0.15749532  1  0  0.137396  0  0.92887  0  0  0.143618  0  0.99029  0  0  0.148247  0  0.987268  0  0  0.123718  0.140219  0  0.992751  0
H  H38  1  0.06996022  0.43475911  0.65750865  1  0  0.137265  0  0.929041  0  0  0.143534  0  0.990332  0  0  0.148126  0  0.987369  0  0  0.123348  0.140162  0  0.992769  0
H  H39  1  0.16207313  0.06512616  0.84250535  1  0  0.137365  0  0.928869  0  0  0.143558  0  0.990326  0  0  0.148187  0  0.987305  0  0  0.123686  0.140158  0  0.992787  0
H  H40  1  0.97201603  0.93341148  0.31836844  1  0  0.138963  0  0.941254  0  0  0.143151  0  1.006267  0  0  0.147536  0  1.004284  0  0  0.12242  0.139947  0  1.007979  0
H  H41  1  0.22384977  0.56659031  0.18145957  1  0  0.138689  0  0.940925  0  0  0.142412  0  1.006716  0  0  0.146979  0  1.004442  0  0  0.121655  0.139118  0  1.008541  0
H  H42  1  0.02798206  0.06659000  0.68162850  1  0  0.138974  0  0.941253  0  0  0.143159  0  1.006275  0  0  0.147544  0  1.004291  0  0  0.122454  0.139954  0  1.007987  0
H  H43  1  0.77615273  0.43340572  0.81854017  1  0  0.138727  0  0.94091  0  0  0.142469  0  1.006679  0  0  0.14701  0  1.004435  0  0  0.121661  0.139174  0  1.008506  0
C  C44  1  0.34584026  0.85673824  0.55817349  1  0  0.802754  0  3.813089  0  0  0.761704  0  4.105866  0  0  0.794835  0  4.096157  0  0  0.227558  0.739178  0  4.1117  0
C  C45  1  0.76111328  0.64330304  0.94170358  1  0  0.803404  0  3.810329  0  0  0.761077  0  4.105013  0  0  0.794205  0  4.095195  0  0  0.22683  0.738566  0  4.110926  0
C  C46  1  0.65415503  0.14326233  0.44182674  1  0  0.802807  0  3.813001  0  0  0.761722  0  4.105825  0  0  0.794852  0  4.096118  0  0  0.227552  0.739195  0  4.111655  0
C  C47  1  0.23888919  0.35669480  0.05829521  1  0  0.803337  0  3.81046  0  0  0.761017  0  4.105129  0  0  0.794144  0  4.095311  0  0  0.226812  0.738505  0  4.111043  0
C  C48  1  0.43658900  0.54022718  0.67725086  1  0  0.786444  0  3.828583  0  0  0.749166  0  4.11921  0  0  0.781564  0  4.1105  0  0  0.221365  0.727149  0  4.124536  0
C  C49  1  0.65438505  0.95971750  0.82273678  1  0  0.786285  0  3.83039  0  0  0.747055  0  4.124329  0  0  0.779465  0  4.115655  0  0  0.219802  0.725036  0  4.129601  0
C  C50  1  0.56341220  0.45977339  0.32274771  1  0  0.78646  0  3.828847  0  0  0.749247  0  4.119352  0  0  0.781647  0  4.110637  0  0  0.221356  0.727228  0  4.124676  0
C  C51  1  0.34561136  0.04028125  0.17726757  1  0  0.786329  0  3.83029  0  0  0.747076  0  4.124272  0  0  0.779487  0  4.115593  0  0  0.219821  0.725056  0  4.129545  0
C  C52  1  0.88111286  0.64235373  0.49620297  1  0  0.030344  0  3.581153  0  0  -0.012343  0  3.842988  0  0  -0.004554  0  3.854758  0  0  0.056416  -0.017245  0  3.835191  0
C  C53  1  0.01978495  0.85798069  0.00375570  1  0  0.029967  0  3.582173  0  0  -0.012297  0  3.843752  0  0  -0.004579  0  3.855482  0  0  0.056693  -0.01715  0  3.835964  0
C  C54  1  0.11888271  0.35764957  0.50379836  1  0  0.030206  0  3.581244  0  0  -0.012523  0  3.843137  0  0  -0.00473  0  3.854893  0  0  0.056343  -0.017426  0  3.835344  0
C  C55  1  0.98022336  0.14201716  0.99624435  1  0  0.029888  0  3.582192  0  0  -0.01233  0  3.843691  0  0  -0.004603  0  3.855433  0  0  0.056714  -0.01718  0  3.835892  0
C  C56  1  0.90605652  0.84179119  0.48288466  1  0  0.060346  0  3.555296  0  0  0.018602  0  3.814822  0  0  0.028437  0  3.823781  0  0  0.065821  0.011533  0  3.810287  0
C  C57  1  0.23088895  0.65851251  0.01699457  1  0  0.061847  0  3.55694  0  0  0.021706  0  3.81424  0  0  0.030953  0  3.824412  0  0  0.067412  0.014657  0  3.809531  0
C  C58  1  0.09393715  0.15821211  0.51711430  1  0  0.060413  0  3.555148  0  0  0.01864  0  3.814731  0  0  0.028472  0  3.823713  0  0  0.065809  0.011572  0  3.810191  0
C  C59  1  0.76911553  0.34148352  0.98300462  1  0  0.061798  0  3.556882  0  0  0.021647  0  3.814194  0  0  0.030894  0  3.824361  0  0  0.067396  0.014598  0  3.809485  0
C  C60  1  0.40730558  0.88948996  0.43191046  1  0  -0.468326  0  3.639214  0  0  -0.542668  0  3.868053  0  0  -0.550155  0  3.871877  0  0  -0.2559  -0.537306  0  3.865104  0
C  C61  1  0.72872949  0.61079196  0.06802642  1  0  -0.468285  0  3.639528  0  0  -0.542284  0  3.868981  0  0  -0.549767  0  3.872607  0  0  -0.256944  -0.536909  0  3.866161  0
C  C62  1  0.59269083  0.11051152  0.56809101  1  0  -0.468263  0  3.639368  0  0  -0.542597  0  3.86819  0  0  -0.550084  0  3.872013  0  0  -0.255875  -0.537233  0  3.865241  0
C  C63  1  0.27127049  0.38920952  0.93197288  1  0  -0.468209  0  3.639425  0  0  -0.542213  0  3.868871  0  0  -0.549695  0  3.872495  0  0  -0.256919  -0.536842  0  3.866049  0
C  C64  1  0.52766168  0.41424149  0.63503882  1  0  -0.449878  0  3.647279  0  0  -0.52369  0  3.873194  0  0  -0.531059  0  3.877868  0  0  -0.250822  -0.518468  0  3.8698  0
C  C65  1  0.57705738  0.08572028  0.86496826  1  0  -0.452836  0  3.649518  0  0  -0.526557  0  3.876653  0  0  -0.533839  0  3.88138  0  0  -0.252578  -0.521387  0  3.87317  0
C  C66  1  0.47233756  0.58575908  0.36496030  1  0  -0.449896  0  3.647343  0  0  -0.523712  0  3.87325  0  0  -0.531081  0  3.877922  0  0  -0.250843  -0.518489  0  3.869861  0
C  C67  1  0.42294301  0.91427938  0.13503305  1  0  -0.452899  0  3.649595  0  0  -0.52662  0  3.876735  0  0  -0.533902  0  3.881462  0  0  -0.252587  -0.52145  0  3.873254  0
C  C68  1  0.92740360  0.64442256  0.37970653  1  0  -0.147435  0  3.716526  0  0  -0.163738  0  3.970883  0  0  -0.169848  0  3.987867  0  0  -0.071787  -0.160143  0  3.959888  0
C  C69  1  0.95181885  0.85577418  0.12024050  1  0  -0.147212  0  3.717819  0  0  -0.163829  0  3.972405  0  0  -0.169936  0  3.989336  0  0  -0.07262  -0.16023  0  3.961457  0
C  C70  1  0.07259636  0.35557801  0.62029471  1  0  -0.147504  0  3.716612  0  0  -0.163815  0  3.970925  0  0  -0.169922  0  3.987905  0  0  -0.071814  -0.160226  0  3.959937  0
C  C71  1  0.04819102  0.14422457  0.87975891  1  0  -0.147138  0  3.717916  0  0  -0.16373  0  3.972492  0  0  -0.169836  0  3.989423  0  0  -0.072591  -0.16013  0  3.961541  0
C  C72  1  0.94739390  0.84923285  0.36620538  1  0  -0.132421  0  3.668549  0  0  -0.149923  0  3.922142  0  0  -0.156454  0  3.939237  0  0  -0.067782  -0.145928  0  3.911034  0
C  C73  1  0.16304848  0.65093178  0.13368216  1  0  -0.132308  0  3.670558  0  0  -0.149953  0  3.923687  0  0  -0.156449  0  3.940612  0  0  -0.066393  -0.145881  0  3.912559  0
C  C74  1  0.05260535  0.15076863  0.63379182  1  0  -0.132345  0  3.668567  0  0  -0.149878  0  3.922206  0  0  -0.156408  0  3.939298  0  0  -0.067783  -0.145883  0  3.911095  0
C  C75  1  0.83695518  0.34906425  0.86631783  1  0  -0.132341  0  3.670544  0  0  -0.149993  0  3.923716  0  0  -0.156468  0  3.940656  0  0  -0.066414  -0.145921  0  3.912589  0
C  C76  1  0.96487522  0.74842712  0.31194802  1  0  0.080111  0  3.784125  0  0  0.085846  0  4.024213  0  0  0.090329  0  4.044117  0  0  0.010142  0.083102  0  4.010608  0
C  C77  1  0.02542162  0.75164123  0.18796365  1  0  0.080016  0  3.785399  0  0  0.08584  0  4.025746  0  0  0.090447  0  4.045533  0  0  0.009988  0.083022  0  4.012203  0
C  C78  1  0.03512719  0.25157163  0.68805176  1  0  0.080035  0  3.784272  0  0  0.085846  0  4.024306  0  0  0.090332  0  4.04421  0  0  0.010111  0.083104  0  4.010694  0
C  C79  1  0.97458591  0.24835753  0.81203527  1  0  0.080005  0  3.78547  0  0  0.085767  0  4.025883  0  0  0.090372  0  4.045669  0  0  0.010007  0.082949  0  4.012337  0
N  N80  1  0.87903436  0.73812197  0.54564863  1  0  0.301481  0  3.676203  0  0  0.347092  0  3.943808  0  0  0.346543  0  3.961626  0  0  -0.107954  0.346742  0  3.932018  0
N  N81  1  0.16302537  0.76227190  0.95426897  1  0  0.300963  0  3.677145  0  0  0.346046  0  3.944948  0  0  0.345516  0  3.962756  0  0  -0.108812  0.345727  0  3.933101  0
N  N82  1  0.12096122  0.26188224  0.45435076  1  0  0.301553  0  3.676043  0  0  0.347181  0  3.943638  0  0  0.346635  0  3.961453  0  0  -0.107896  0.346834  0  3.931842  0
N  N83  1  0.83698144  0.23772412  0.04573072  1  0  0.300949  0  3.677134  0  0  0.346032  0  3.944927  0  0  0.3455  0  3.962732  0  0  -0.108801  0.345714  0  3.933074  0
O  O84  1  0.84397876  0.73019177  0.65763771  1  0  -0.667196  0  1.879576  0  0  -0.621249  0  2.128757  0  0  -0.638683  0  2.119597  0  0  -0.263041  -0.60907  0  2.135093  0
O  O85  1  0.23161042  0.77024490  0.84226759  1  0  -0.66714  0  1.878657  0  0  -0.621373  0  2.128347  0  0  -0.638379  0  2.11852  0  0  -0.263922  -0.609397  0  2.134929  0
O  O86  1  0.15601285  0.26981426  0.34236184  1  0  -0.667273  0  1.879566  0  0  -0.621323  0  2.128758  0  0  -0.638755  0  2.119595  0  0  -0.263091  -0.609146  0  2.135097  0
O  O87  1  0.76839086  0.22975203  0.15773289  1  0  -0.667118  0  1.878646  0  0  -0.621384  0  2.128369  0  0  -0.638379  0  2.118533  0  0  -0.263939  -0.609412  0  2.134969  0
O  O88  1  0.47236885  0.84222167  0.61349294  1  0  -0.749834  0  2.028796  0  0  -0.69164  0  2.267336  0  0  -0.715903  0  2.25698  0  0  -0.365639  -0.674642  0  2.273895  0
O  O89  1  0.92840133  0.65770252  0.88648800  1  0  -0.750588  0  2.028721  0  0  -0.692256  0  2.268381  0  0  -0.716402  0  2.257912  0  0  -0.365638  -0.675362  0  2.274986  0
O  O90  1  0.52762908  0.15777981  0.38650984  1  0  -0.749861  0  2.028839  0  0  -0.691632  0  2.267359  0  0  -0.715891  0  2.256998  0  0  -0.36564  -0.674645  0  2.273943  0
O  O91  1  0.07159955  0.34229623  0.11351046  1  0  -0.750567  0  2.028737  0  0  -0.692211  0  2.268356  0  0  -0.716366  0  2.257909  0  0  -0.365608  -0.675314  0  2.274959  0
O  O92  1  0.55235660  0.58546456  0.70385794  1  0  -0.752512  0  1.985172  0  0  -0.700504  0  2.230397  0  0  -0.72361  0  2.21776  0  0  -0.362007  -0.684379  0  2.238612  0
O  O93  1  0.84195310  0.91447832  0.79640541  1  0  -0.751378  0  1.985254  0  0  -0.698666  0  2.231441  0  0  -0.721816  0  2.218879  0  0  -0.361213  -0.682549  0  2.239669  0
O  O94  1  0.44764939  0.41453419  0.29613966  1  0  -0.75253  0  1.985237  0  0  -0.700545  0  2.23042  0  0  -0.723655  0  2.217789  0  0  -0.362019  -0.684412  0  2.238623  0
O  O95  1  0.15804498  0.08551953  0.20359635  1  0  -0.751393  0  1.985283  0  0  -0.698661  0  2.231477  0  0  -0.721807  0  2.218906  0  0  -0.361228  -0.682542  0  2.239705  0
O  O96  1  0.62086840  0.65375539  0.89752786  1  0  -0.751861  0  2.006958  0  0  -0.693316  0  2.248845  0  0  -0.71751  0  2.236851  0  0  -0.362438  -0.67605  0  2.256189  0
O  O97  1  0.17200658  0.84622779  0.60223008  1  0  -0.752121  0  2.008734  0  0  -0.694297  0  2.250132  0  0  -0.718717  0  2.238367  0  0  -0.362769  -0.676927  0  2.257458  0
O  O98  1  0.37913365  0.34624336  0.10247086  1  0  -0.751827  0  2.007013  0  0  -0.693292  0  2.248884  0  0  -0.717493  0  2.236912  0  0  -0.362442  -0.676025  0  2.256227  0
O  O99  1  0.82799260  0.15377369  0.39777003  1  0  -0.752143  0  2.00864  0  0  -0.694309  0  2.25007  0  0  -0.718728  0  2.238302  0  0  -0.362754  -0.676936  0  2.257402  0
O  O100  1  0.52876210  0.90843609  0.81764909  1  0  -0.732221  0  1.94952  0  0  -0.679402  0  2.185562  0  0  -0.702149  0  2.173699  0  0  -0.357428  -0.663534  0  2.193199  0
O  O101  1  0.25466393  0.59154904  0.68208635  1  0  -0.732729  0  1.948087  0  0  -0.680792  0  2.183093  0  0  -0.703411  0  2.1712  0  0  -0.359053  -0.665078  0  2.190817  0
O  O102  1  0.47123504  0.09156266  0.18235738  1  0  -0.732244  0  1.949368  0  0  -0.679427  0  2.185438  0  0  -0.702173  0  2.173572  0  0  -0.357456  -0.66356  0  2.193083  0
O  O103  1  0.74534003  0.40845336  0.31790991  1  0  -0.732732  0  1.948228  0  0  -0.680794  0  2.183163  0  0  -0.703414  0  2.171267  0  0  -0.35901  -0.665077  0  2.190886  0
