# generated using pymatgen
data_MnH16C8(SO4)2
_symmetry_space_group_name_H-M   'P 1'
_cell_length_a   8.23037821
_cell_length_b   12.14750503
_cell_length_c   15.09400000
_cell_angle_alpha   111.83930066
_cell_angle_beta   90.00000000
_cell_angle_gamma   90.00000000
_symmetry_Int_Tables_number   1
_chemical_formula_structural   MnH16C8(SO4)2
_chemical_formula_sum   'Mn4 H64 C32 S8 O32'
_cell_volume   1400.77130718
_cell_formula_units_Z   4
loop_
 _symmetry_equiv_pos_site_id
 _symmetry_equiv_pos_as_xyz
  1  'x, y, z'
loop_
 _atom_site_type_symbol
 _atom_site_label
 _atom_site_symmetry_multiplicity
 _atom_site_fract_x
 _atom_site_fract_y
 _atom_site_fract_z
 _atom_site_occupancy
 _atom_site_hle17_ddec_charge
 _atom_site_hle17_ddec_spin_density
 _atom_site_hle17_ddec_sum_bond_order
 _atom_site_hle17_magmom
 _atom_site_hse06_10hf_ddec_charge
 _atom_site_hse06_10hf_ddec_spin_density
 _atom_site_hse06_10hf_ddec_sum_bond_order
 _atom_site_hse06_10hf_magmom
 _atom_site_hse06_ddec_charge
 _atom_site_hse06_ddec_spin_density
 _atom_site_hse06_ddec_sum_bond_order
 _atom_site_hse06_magmom
 _atom_site_pbe_bader_charge
 _atom_site_pbe_bader_spin_density
 _atom_site_pbe_cm5_charge
 _atom_site_pbe_ddec_charge
 _atom_site_pbe_ddec_spin_density
 _atom_site_pbe_ddec_sum_bond_order
 _atom_site_pbe_magmom
Mn  Mn0  1  0.50000011  0.00000000  0.00000000  1  1.255311  4.804198  1.680509  4.699  1.103976  4.734481  2.166704  4.569  1.16003  4.771362  2.094837  4.622  1.536396  4.583969  0.573277  1.059576  4.697659  2.219396  4.517
Mn  Mn1  1  0.99999900  0.50000048  0.99999975  1  1.255209  4.804207  1.680443  4.699  1.103898  4.734483  2.166652  4.569  1.159977  4.771365  2.094756  4.622  1.536591  4.583921  0.573254  1.059492  4.697661  2.219343  4.517
Mn  Mn2  1  0.50000011  0.49999959  0.50000014  1  1.219671  4.800448  1.729069  4.695  1.067744  4.730061  2.21996  4.565  1.124174  4.767264  2.147636  4.619  1.524582  4.579165  0.562566  1.023384  4.69339  2.27282  4.513
Mn  Mn3  1  0.00000000  0.00000000  0.50000000  1  1.21963  4.800449  1.72911  4.695  1.067706  4.73006  2.220012  4.565  1.124137  4.767262  2.147693  4.619  1.524428  4.579197  0.562576  1.023349  4.693388  2.272866  4.513
H  H4  1  0.47223346  0.21400820  0.96596513  1  0.421296  0.000205  0.883695  0.001  0.388724  0.000838  0.949841  0.002  0.400065  0.00057  0.933461  0.002  0.649298  0.001777  0.290197  0.380573  0.001086  0.961578  0.002
H  H5  1  0.97222750  0.28599582  0.03403833  1  0.421383  0.000206  0.883571  0.001  0.388795  0.000837  0.949744  0.002  0.400139  0.000569  0.93336  0.002  0.649168  0.001776  0.290211  0.380644  0.001085  0.96148  0.002
H  H6  1  0.52776675  0.78599186  0.03403476  1  0.421306  0.000206  0.883682  0.001  0.388733  0.000838  0.94983  0.002  0.400075  0.00057  0.933449  0.002  0.649303  0.001777  0.290197  0.380581  0.001086  0.961567  0.002
H  H7  1  0.02777151  0.71400513  0.96596182  1  0.421386  0.000205  0.88356  0.001  0.388788  0.000838  0.949751  0.002  0.400133  0.000569  0.933365  0.002  0.649165  0.001776  0.290216  0.380637  0.001085  0.961488  0.002
H  H8  1  0.30264952  0.18532171  0.01058536  1  0.4172  0.000147  0.886668  0.001  0.384952  0.000838  0.952819  0.002  0.396304  0.00055  0.936271  0.001  0.64155  0.001629  0.292296  0.376817  0.001109  0.964636  0.002
H  H9  1  0.80265084  0.31468586  0.98942247  1  0.417219  0.000146  0.886662  0.001  0.385048  0.000837  0.952738  0.002  0.396402  0.00055  0.936186  0.001  0.641084  0.001629  0.292344  0.376911  0.001108  0.964561  0.002
H  H10  1  0.69735070  0.81467836  0.98941519  1  0.417189  0.000147  0.886685  0.001  0.384942  0.000838  0.952834  0.002  0.396293  0.00055  0.936287  0.001  0.641547  0.001629  0.292288  0.376807  0.001109  0.96465  0.002
H  H11  1  0.19734938  0.68531509  0.01057768  1  0.417196  0.000146  0.886691  0.001  0.385028  0.000837  0.952762  0.002  0.396382  0.00055  0.936209  0.001  0.641075  0.001629  0.292332  0.376892  0.001108  0.964583  0.002
H  H12  1  0.40947936  0.87389336  0.20577191  1  0.157181  -0.000143  0.938815  0.0  0.174323  -0.000128  0.995919  0.0  0.177202  -0.000127  0.994119  0.0  0.106772  5.8e-05  0.105781  0.172182  -0.000125  0.997296  0.0
H  H13  1  0.90948190  0.62611339  0.79422826  1  0.157141  -0.000152  0.938872  0.0  0.174259  -0.000128  0.99601  0.0  0.177136  -0.000127  0.994212  0.0  0.106686  5.8e-05  0.105766  0.17212  -0.000125  0.997382  0.0
H  H14  1  0.59052086  0.12610759  0.79422824  1  0.1572  -0.000141  0.938789  0.0  0.174345  -0.000128  0.995894  0.0  0.177223  -0.000127  0.994094  0.0  0.106768  5.8e-05  0.105782  0.172204  -0.000125  0.99727  0.0
H  H15  1  0.09051832  0.37388579  0.20577203  1  0.157141  -0.000145  0.938863  0.0  0.174258  -0.000128  0.996  0.0  0.177136  -0.000127  0.994202  0.0  0.106683  5.8e-05  0.105767  0.172119  -0.000125  0.997373  0.0
H  H16  1  0.27770291  0.94665255  0.30651747  1  0.16059  -0.000288  0.960833  0.0  0.177302  -0.000172  1.018853  0.0  0.17961  -0.000272  1.018686  0.0  0.145646  0.000607  0.10806  0.175552  -5.4e-05  1.01912  0.0
H  H17  1  0.77770667  0.55335420  0.69347938  1  0.160551  -0.000281  0.960875  0.0  0.17727  -0.000172  1.018891  0.0  0.179577  -0.000272  1.018729  0.0  0.145763  0.000607  0.108039  0.175517  -5.4e-05  1.019159  0.0
H  H18  1  0.72229730  0.05334751  0.69348242  1  0.160624  -0.000281  0.960818  0.0  0.177347  -0.000172  1.018814  0.0  0.179655  -0.000272  1.018646  0.0  0.145642  0.000607  0.108088  0.175597  -5.4e-05  1.01908  0.0
H  H19  1  0.22229234  0.44664587  0.30652117  1  0.160553  -0.000279  0.960869  0.0  0.177269  -0.000172  1.018891  0.0  0.179577  -0.000272  1.018727  0.0  0.14576  0.000607  0.108038  0.175516  -5.4e-05  1.019159  0.0
H  H20  1  0.48301911  0.00051438  0.30556211  1  0.135257  -0.000126  0.963655  0.0  0.149453  -3.2e-05  1.031481  0.0  0.150214  -7e-05  1.033282  0.0  0.101714  0.00017  0.098343  0.148759  1.5e-05  1.03043  0.0
H  H21  1  0.98302408  0.49948964  0.69443671  1  0.135253  -0.000128  0.963658  0.0  0.149426  -3.2e-05  1.031513  0.0  0.150187  -7e-05  1.033315  0.0  0.10168  0.00017  0.098324  0.148732  1.5e-05  1.030462  0.0
H  H22  1  0.51698110  0.99948657  0.69443805  1  0.135283  -0.000117  0.963645  0.0  0.149484  -3.2e-05  1.031466  0.0  0.150244  -7e-05  1.033266  0.0  0.101718  0.00017  0.098349  0.148789  1.5e-05  1.030415  0.0
H  H23  1  0.01697492  0.50051042  0.30556318  1  0.13525  -0.000117  0.963667  0.0  0.149427  -3.2e-05  1.031516  0.0  0.150187  -7e-05  1.033319  0.0  0.101676  0.00017  0.09833  0.148733  1.5e-05  1.030464  0.0
H  H24  1  0.38018423  0.21507687  0.34473611  1  0.167926  -0.00057  0.944101  0.0  0.183948  -0.000483  1.002616  0.0  0.186781  -0.00053  1.001185  0.0  0.135528  0.000224  0.109764  0.181806  -0.000424  1.003786  0.0
H  H25  1  0.88018798  0.28492715  0.65526469  1  0.167923  -0.000581  0.944078  0.0  0.183947  -0.000483  1.002599  0.0  0.186779  -0.00053  1.001163  0.0  0.135531  0.000224  0.109754  0.181804  -0.000424  1.003769  0.0
H  H26  1  0.61981720  0.78492319  0.65526377  1  0.167938  -0.000569  0.944108  0.0  0.183962  -0.000483  1.002619  0.0  0.186795  -0.00053  1.001188  0.0  0.135546  0.000224  0.109777  0.18182  -0.000424  1.003789  0.0
H  H27  1  0.11981223  0.71507203  0.34473427  1  0.167914  -0.00058  0.944117  0.0  0.183954  -0.000483  1.002615  0.0  0.186787  -0.00053  1.00118  0.0  0.135546  0.000224  0.109767  0.181811  -0.000424  1.003786  0.0
H  H28  1  0.17535768  0.16360774  0.35254946  1  0.160125  6.2e-05  0.946344  0.0  0.174961  0.000326  1.009113  0.001  0.177778  0.000135  1.007662  0.0  0.119017  0.001576  0.109429  0.172772  0.000543  1.010392  0.001
H  H29  1  0.67535657  0.33639629  0.64744936  1  0.160102  5e-05  0.946363  0.0  0.17496  0.000326  1.009112  0.001  0.177779  0.000135  1.007659  0.0  0.118812  0.001576  0.109419  0.172774  0.000543  1.010375  0.001
H  H30  1  0.82464254  0.83639322  0.64745135  1  0.160107  5.8e-05  0.946305  0.0  0.174945  0.000326  1.009085  0.001  0.177762  0.000135  1.00763  0.0  0.11885  0.001576  0.109418  0.172756  0.000543  1.010365  0.001
H  H31  1  0.32464243  0.66360378  0.35255119  1  0.160102  4.3e-05  0.946368  0.0  0.174964  0.000326  1.009111  0.001  0.177782  0.000135  1.007659  0.0  0.118813  0.001576  0.109421  0.172778  0.000543  1.010374  0.001
H  H32  1  0.21581511  0.24968673  0.28090343  1  0.144501  -0.000189  0.945015  0.0  0.165481  -0.000111  0.999497  0.0  0.166955  -0.000112  0.99963  0.0  0.113144  4.2e-05  0.104595  0.164346  -0.000107  0.999524  0.0
H  H33  1  0.71581522  0.25031995  0.71909950  1  0.1445  -0.000202  0.944961  0.0  0.16547  -0.000111  0.999468  0.0  0.166944  -0.000112  0.999598  0.0  0.11318  4.2e-05  0.104589  0.164334  -0.000107  0.999494  0.0
H  H34  1  0.78418632  0.75031333  0.71909646  1  0.144478  -0.000187  0.945031  0.0  0.16546  -0.000111  0.999508  0.0  0.166933  -0.000112  0.999643  0.0  0.113126  4.2e-05  0.104585  0.164324  -0.000107  0.999535  0.0
H  H35  1  0.28418500  0.74968011  0.28090039  1  0.1445  -0.000204  0.944954  0.0  0.16547  -0.000111  0.999464  0.0  0.166944  -0.000112  0.999594  0.0  0.113177  4.2e-05  0.104586  0.164334  -0.000107  0.999491  0.0
H  H36  1  0.70347678  0.30594405  0.46295542  1  0.408924  0.00014  0.904482  0.001  0.374752  0.000825  0.97442  0.002  0.386227  0.000553  0.957873  0.001  0.656255  0.001394  0.285157  0.366595  0.001077  0.986136  0.002
H  H37  1  0.20347182  0.19405466  0.53704446  1  0.408914  0.000139  0.904506  0.001  0.374787  0.000824  0.97437  0.002  0.38626  0.000552  0.957825  0.001  0.656289  0.001393  0.28518  0.36663  0.001077  0.98609  0.002
H  H38  1  0.29652222  0.69405602  0.53704447  1  0.40892  0.000141  0.904478  0.001  0.374742  0.000825  0.974435  0.002  0.386216  0.000553  0.95789  0.001  0.656249  0.001394  0.285146  0.366584  0.001078  0.986151  0.002
H  H39  1  0.79652840  0.80594630  0.46295570  1  0.408848  0.00014  0.904598  0.001  0.374701  0.000825  0.974485  0.002  0.386174  0.000552  0.957942  0.001  0.656292  0.001393  0.285138  0.366543  0.001077  0.986205  0.002
H  H40  1  0.52439996  0.27236739  0.49015427  1  0.415779  -7.2e-05  0.892528  0.001  0.382842  0.000571  0.960473  0.002  0.394229  0.000335  0.943949  0.001  0.64508  0.001167  0.289925  0.374699  0.000792  0.972248  0.002
H  H41  1  0.02439985  0.22762954  0.50984706  1  0.415793  -7.1e-05  0.892513  0.001  0.382863  0.000571  0.960443  0.002  0.394248  0.000334  0.943922  0.001  0.645104  0.001167  0.28994  0.374722  0.000792  0.972217  0.002
H  H42  1  0.47560026  0.72763268  0.50984628  1  0.415784  -7.1e-05  0.89252  0.001  0.382847  0.000571  0.960466  0.002  0.394233  0.000335  0.943943  0.001  0.645084  0.001167  0.289932  0.374703  0.000792  0.972242  0.002
H  H43  1  0.97560037  0.77236964  0.49015256  1  0.415788  -7.2e-05  0.892524  0.001  0.382848  0.000571  0.960472  0.002  0.394233  0.000334  0.94395  0.001  0.645103  0.001167  0.289931  0.374706  0.000792  0.972245  0.002
H  H44  1  0.56242008  0.26208420  0.19386111  1  0.167595  -0.000529  0.946256  0.0  0.183802  -0.000446  1.000738  0.0  0.186936  -0.000479  0.999309  0.0  0.131338  0.00018  0.108346  0.181509  -0.000403  1.001826  0.0
H  H45  1  0.06242119  0.23791096  0.80613638  1  0.167576  -0.000522  0.94637  0.0  0.183819  -0.000446  1.000784  0.0  0.186954  -0.000479  0.999354  0.0  0.131363  0.00018  0.108375  0.181527  -0.000403  1.001871  0.0
H  H46  1  0.43758013  0.73791587  0.80614010  1  0.167609  -0.000527  0.94625  0.0  0.183815  -0.000446  1.000731  0.0  0.186949  -0.000479  0.999302  0.0  0.131487  0.00018  0.10835  0.181522  -0.000403  1.001819  0.0
H  H47  1  0.93758024  0.76209000  0.19386444  1  0.167577  -0.000524  0.94637  0.0  0.183811  -0.000446  1.000798  0.0  0.186945  -0.000479  0.99937  0.0  0.131338  0.00018  0.108381  0.181518  -0.000403  1.001886  0.0
H  H48  1  0.70070413  0.32265522  0.13181567  1  0.157431  -4e-05  0.955561  0.0  0.173024  0.000282  1.016823  0.0  0.17611  7.2e-05  1.014856  0.0  0.118256  0.001571  0.106023  0.170619  0.000514  1.018466  0.001
H  H49  1  0.20069795  0.17734526  0.86818871  1  0.157419  -3.5e-05  0.955617  0.0  0.173015  0.000282  1.016863  0.0  0.1761  7.2e-05  1.014897  0.0  0.118564  0.001571  0.106043  0.170611  0.000514  1.018503  0.001
H  H50  1  0.29929730  0.67734485  0.86818488  1  0.157434  -3.8e-05  0.955566  0.0  0.173025  0.000282  1.01683  0.0  0.176111  7.2e-05  1.014863  0.0  0.118215  0.001571  0.106017  0.170619  0.000514  1.018473  0.001
H  H51  1  0.79930227  0.82265481  0.13181184  1  0.157422  -2.9e-05  0.955613  0.0  0.173024  0.000282  1.016847  0.0  0.176109  7.2e-05  1.014882  0.0  0.118254  0.001571  0.106038  0.17062  0.000514  1.018488  0.001
H  H52  1  0.49166392  0.37222913  0.14938761  1  0.133044  -0.000241  0.955266  0.0  0.146946  -0.000139  1.023382  0.0  0.148399  -0.000169  1.023985  0.0  0.07955  0.000134  0.097891  0.145753  -0.000103  1.023196  0.0
H  H53  1  0.99165674  0.12777046  0.85061319  1  0.133218  -0.000233  0.955083  0.0  0.14708  -0.000139  1.023216  0.0  0.148535  -0.000169  1.023815  0.0  0.079466  0.000134  0.09793  0.145886  -0.000103  1.023032  0.0
H  H54  1  0.50833751  0.62777094  0.85061294  1  0.133096  -0.000236  0.955155  0.0  0.146989  -0.000139  1.023283  0.0  0.148443  -0.00017  1.023884  0.0  0.079528  0.000134  0.097902  0.145796  -0.000103  1.023095  0.0
H  H55  1  0.00834348  0.87223049  0.14938696  1  0.1332  -0.000234  0.95509  0.0  0.147061  -0.000139  1.023226  0.0  0.148517  -0.00017  1.023825  0.0  0.079463  0.000134  0.097926  0.145867  -0.000103  1.023042  0.0
H  H56  1  0.57153631  0.58642446  0.21423611  1  0.133351  -0.000119  0.960205  0.0  0.148186  -4.1e-05  1.026199  0.0  0.149141  -6.8e-05  1.02764  0.0  0.063357  0.000135  0.097042  0.147357  -9e-06  1.025369  0.0
H  H57  1  0.07153620  0.91356899  0.78576471  1  0.133414  -0.000137  0.960187  0.0  0.148232  -4.1e-05  1.026188  0.0  0.149197  -6.8e-05  1.02762  0.0  0.062943  0.000135  0.09704  0.1474  -9e-06  1.025364  0.0
H  H58  1  0.42846269  0.41357472  0.78576284  1  0.133369  -0.000136  0.960218  0.0  0.1482  -4.1e-05  1.026219  0.0  0.149155  -6.8e-05  1.027662  0.0  0.062985  0.000135  0.097035  0.147371  -9e-06  1.02539  0.0
H  H59  1  0.92846401  0.08643108  0.21423452  1  0.13341  -0.000133  0.960191  0.0  0.148228  -4.1e-05  1.026196  0.0  0.149192  -6.8e-05  1.027629  0.0  0.062929  0.000135  0.097031  0.147396  -9e-06  1.025371  0.0
H  H60  1  0.78684719  0.55418342  0.20204220  1  0.163695  -0.000297  0.952119  0.0  0.177888  -0.000147  1.013098  0.0  0.18054  -0.000277  1.012441  0.0  0.155649  0.000753  0.107784  0.175887  2e-06  1.013724  0.0
H  H61  1  0.28684830  0.94581447  0.79796525  1  0.163673  -0.000301  0.952049  0.0  0.177858  -0.000147  1.013054  0.0  0.180508  -0.000277  1.012402  0.0  0.155634  0.000753  0.107794  0.175856  2e-06  1.013682  0.0
H  H62  1  0.21315181  0.44581576  0.79795742  1  0.163647  -0.000298  0.952162  0.0  0.177861  -0.000147  1.013119  0.0  0.180513  -0.000277  1.012462  0.0  0.155638  0.000753  0.107781  0.17586  2e-06  1.013745  0.0
H  H63  1  0.71315070  0.05418560  0.20203464  1  0.163703  -0.000296  0.952032  0.0  0.177892  -0.000147  1.013028  0.0  0.180543  -0.000277  1.012374  0.0  0.155572  0.000753  0.10781  0.17589  2e-06  1.013656  0.0
H  H64  1  0.70636001  0.65385094  0.31422918  1  0.158841  -0.000162  0.940418  0.0  0.1749  -6e-05  0.998605  0.0  0.177963  -0.000105  0.996661  0.0  0.123191  0.000356  0.106095  0.172608  -6e-06  1.000105  0.0
H  H65  1  0.20636719  0.84614694  0.68577561  1  0.158834  -0.000175  0.940437  0.0  0.174882  -6e-05  0.998627  0.0  0.177942  -0.000105  0.996678  0.0  0.123225  0.000356  0.106128  0.17259  -6e-06  1.000128  0.0
H  H66  1  0.29363900  0.34615001  0.68577097  1  0.15875  -0.000169  0.940302  0.0  0.174809  -6e-05  0.998521  0.0  0.177872  -0.000105  0.996575  0.0  0.123197  0.000356  0.106053  0.172517  -6e-06  1.000021  0.0
H  H67  1  0.79363303  0.15385401  0.31422388  1  0.158845  -0.000164  0.940417  0.0  0.17489  -6e-05  0.998614  0.0  0.177951  -0.000105  0.996665  0.0  0.123224  0.000356  0.106127  0.172598  -6e-06  1.000115  0.0
C  C68  1  0.37687818  0.95855781  0.26221371  1  -0.440082  0.000463  3.560572  0.001  -0.509297  0.000904  3.80607  0.001  -0.513325  0.000544  3.810994  0.001  -0.292575  0.001961  -0.235322  -0.506256  0.001276  3.80295  0.001
C  C69  1  0.87688315  0.54144628  0.73778632  1  -0.439982  0.000464  3.560658  0.001  -0.509161  0.000904  3.806173  0.001  -0.51319  0.000544  3.811099  0.001  -0.292612  0.001961  -0.235269  -0.506119  0.001276  3.803053  0.001
C  C70  1  0.62312203  0.04144226  0.73778618  1  -0.440165  0.000438  3.560576  0.001  -0.509396  0.000905  3.806088  0.001  -0.513423  0.000543  3.81101  0.001  -0.292579  0.001961  -0.235346  -0.506355  0.001276  3.802969  0.001
C  C71  1  0.12311706  0.45855379  0.26221356  1  -0.439976  0.00044  3.560655  0.001  -0.509153  0.000904  3.806167  0.001  -0.513183  0.000544  3.811093  0.001  -0.292613  0.001961  -0.235265  -0.506112  0.001276  3.803048  0.001
C  C72  1  0.26517129  0.18379985  0.30706627  1  -0.427687  0.001697  3.553008  0.002  -0.497933  0.002282  3.798395  0.002  -0.501416  0.001599  3.801984  0.002  -0.273166  0.004094  -0.232573  -0.495287  0.002993  3.79627  0.002
C  C73  1  0.76517383  0.31620595  0.69293706  1  -0.427681  0.001748  3.553068  0.002  -0.497923  0.002282  3.798415  0.002  -0.501413  0.001599  3.802024  0.002  -0.272896  0.004093  -0.23256  -0.495286  0.002993  3.796319  0.002
C  C74  1  0.73483014  0.81619933  0.69293468  1  -0.42766  0.001701  3.552938  0.002  -0.497915  0.002282  3.798323  0.002  -0.501395  0.001599  3.801909  0.002  -0.272991  0.004094  -0.232564  -0.495266  0.002993  3.796191  0.002
C  C75  1  0.23482639  0.68379412  0.30706283  1  -0.427674  0.001766  3.553072  0.002  -0.497934  0.002281  3.798416  0.002  -0.501424  0.0016  3.802027  0.002  -0.272891  0.004093  -0.232567  -0.495294  0.002993  3.796316  0.002
C  C76  1  0.88205060  0.03534418  0.01061202  1  0.172196  0.002579  3.924165  0.003  0.149425  0.006242  4.211936  0.006  0.162133  0.004499  4.226527  0.004  0.801678  0.008775  0.091742  0.140492  0.008077  4.201658  0.007
C  C77  1  0.38204684  0.46465364  0.98938826  1  0.171739  0.002577  3.924116  0.003  0.149003  0.006248  4.211837  0.006  0.161715  0.004503  4.226429  0.004  0.80325  0.008781  0.091558  0.140064  0.008084  4.20155  0.007
C  C78  1  0.11794962  0.96465589  0.98938787  1  0.171962  0.002582  3.924322  0.003  0.149172  0.006243  4.212106  0.006  0.161879  0.004499  4.226698  0.004  0.803174  0.008774  0.091638  0.140239  0.008077  4.201828  0.007
C  C79  1  0.61795095  0.53534643  0.01061097  1  0.171799  0.002571  3.924044  0.003  0.149051  0.006247  4.211783  0.006  0.161761  0.004502  4.226376  0.004  0.800195  0.008783  0.091574  0.140112  0.008083  4.201496  0.007
C  C80  1  0.04797592  0.08575263  0.02476812  1  0.169503  0.002339  3.891942  0.002  0.145595  0.003085  4.175689  0.003  0.15691  0.002251  4.189493  0.002  0.76585  0.00519  0.090876  0.138116  0.004028  4.166044  0.004
C  C81  1  0.54797968  0.41424519  0.97523216  1  0.169656  0.002355  3.891781  0.002  0.14577  0.003086  4.175521  0.003  0.15709  0.002253  4.189324  0.002  0.764293  0.005191  0.090885  0.138295  0.004027  4.165866  0.004
C  C82  1  0.95202429  0.91424744  0.97523177  1  0.169502  0.002352  3.89195  0.002  0.145592  0.003085  4.175697  0.003  0.156907  0.002253  4.1895  0.002  0.763585  0.005192  0.09087  0.138114  0.004028  4.166052  0.004
C  C83  1  0.45202054  0.58575577  0.02476800  1  0.16967  0.002346  3.891913  0.002  0.145793  0.003086  4.175631  0.003  0.157112  0.002253  4.189434  0.002  0.764671  0.00519  0.090901  0.138316  0.004027  4.165976  0.004
C  C84  1  0.59531408  0.34151793  0.17978037  1  -0.430818  0.001201  3.567115  0.001  -0.497158  0.001774  3.811262  0.002  -0.501404  0.001184  3.815295  0.001  -0.248402  0.003414  -0.235413  -0.493957  0.002379  3.808816  0.002
C  C85  1  0.09531032  0.15847900  0.82021897  1  -0.431033  0.001176  3.56727  0.001  -0.497347  0.001774  3.811381  0.002  -0.501593  0.001183  3.815405  0.001  -0.248932  0.003415  -0.235502  -0.494138  0.002379  3.808915  0.002
C  C86  1  0.40468614  0.65848214  0.82022018  1  -0.430879  0.001186  3.567065  0.001  -0.497215  0.001774  3.811209  0.002  -0.501462  0.001184  3.815242  0.001  -0.248501  0.003414  -0.235432  -0.494014  0.002379  3.808766  0.002
C  C87  1  0.90468989  0.84152106  0.17978157  1  -0.431019  0.001167  3.567332  0.001  -0.497322  0.001774  3.811427  0.002  -0.501568  0.001184  3.815451  0.001  -0.248593  0.003414  -0.2355  -0.494113  0.002379  3.808963  0.002
C  C88  1  0.68192856  0.57466554  0.25053148  1  -0.430703  0.000855  3.547759  0.001  -0.495926  0.001418  3.788747  0.001  -0.499798  0.000944  3.793083  0.001  -0.273222  0.002757  -0.234303  -0.493005  0.001903  3.786094  0.002
C  C89  1  0.18192846  0.92533146  0.74947239  1  -0.430741  0.000897  3.547839  0.001  -0.495917  0.001418  3.788852  0.001  -0.499792  0.000944  3.793174  0.001  -0.272645  0.002757  -0.234305  -0.492998  0.001903  3.786204  0.002
C  C90  1  0.31807165  0.42533453  0.74946907  1  -0.430584  0.000888  3.547686  0.001  -0.495824  0.001418  3.788672  0.001  -0.499694  0.000945  3.793009  0.001  -0.27285  0.002757  -0.234252  -0.492904  0.001903  3.786017  0.002
C  C91  1  0.81807176  0.07466949  0.25052710  1  -0.430792  0.000874  3.547847  0.001  -0.495969  0.001418  3.788843  0.001  -0.499845  0.000945  3.793164  0.001  -0.27258  0.002758  -0.234322  -0.493049  0.001903  3.786195  0.002
C  C92  1  0.11881471  0.46813546  0.49593948  1  0.180569  0.00357  3.91437  0.004  0.158068  0.007551  4.197611  0.007  0.171272  0.005553  4.210939  0.005  0.811963  0.010366  0.095724  0.148723  0.009694  4.188293  0.008
C  C93  1  0.61881846  0.03186501  0.50405961  1  0.180544  0.00356  3.914396  0.004  0.158036  0.007554  4.197642  0.007  0.171248  0.005557  4.210964  0.005  0.812142  0.01037  0.095666  0.148689  0.009699  4.188325  0.008
C  C94  1  0.88118429  0.53186460  0.50406041  1  0.180554  0.003564  3.914378  0.004  0.15806  0.007552  4.197605  0.007  0.171264  0.005553  4.210932  0.005  0.812147  0.010366  0.095708  0.148715  0.009694  4.188288  0.008
C  C95  1  0.38117932  0.96813505  0.49593962  1  0.18058  0.003562  3.914277  0.004  0.158091  0.007555  4.19751  0.007  0.171307  0.005556  4.210834  0.005  0.81203  0.010372  0.095792  0.148744  0.009699  4.188194  0.008
C  C96  1  0.95571671  0.41447754  0.48494131  1  0.175108  0.002431  3.880872  0.002  0.151593  0.003192  4.157216  0.003  0.163131  0.002383  4.170535  0.002  0.764109  0.005244  0.094749  0.143985  0.00409  4.147923  0.004
C  C97  1  0.45571903  0.08552204  0.51505684  1  0.175212  0.002434  3.880794  0.002  0.151701  0.003192  4.157136  0.003  0.163237  0.002386  4.170458  0.002  0.764176  0.005245  0.094813  0.144096  0.00409  4.147843  0.004
C  C98  1  0.04428351  0.58552163  0.51505831  1  0.175131  0.002428  3.880876  0.002  0.151611  0.003192  4.157222  0.003  0.16315  0.002384  4.17054  0.002  0.764099  0.005244  0.094774  0.144003  0.00409  4.147929  0.004
C  C99  1  0.54427997  0.91447980  0.48494358  1  0.175069  0.002435  3.880859  0.002  0.151561  0.003192  4.1572  0.003  0.16308  0.002385  4.170544  0.002  0.763997  0.005245  0.094772  0.143955  0.00409  4.147906  0.004
S  S100  1  0.29910533  0.05232053  0.20409982  1  0.704324  0.003282  3.600779  0.003  0.676449  0.006695  4.045419  0.005  0.692855  0.004576  4.043552  0.004  1.149626  0.009784  0.296655  0.664529  0.008967  4.046508  0.007
S  S101  1  0.79910422  0.44768704  0.79590271  1  0.704158  0.003278  3.601057  0.003  0.676322  0.006693  4.045688  0.005  0.692734  0.004576  4.043821  0.004  1.14976  0.009782  0.296656  0.664399  0.008969  4.046768  0.007
S  S102  1  0.70089489  0.94768043  0.79590033  1  0.704311  0.003286  3.600796  0.003  0.676436  0.006694  4.045444  0.005  0.692843  0.004577  4.043577  0.004  1.149616  0.009783  0.296633  0.664518  0.008967  4.046534  0.007
S  S103  1  0.20089478  0.55231213  0.20409691  1  0.704216  0.00327  3.601101  0.003  0.67637  0.006694  4.04574  0.005  0.692782  0.004575  4.043872  0.004  1.149743  0.009782  0.296666  0.664445  0.008969  4.04682  0.007
S  S104  1  0.65056184  0.45452831  0.29065726  1  0.697789  0.002361  3.586142  0.002  0.673703  0.005439  4.019244  0.004  0.689122  0.003637  4.018285  0.003  1.151006  0.007562  0.293523  0.662551  0.007315  4.019638  0.005
S  S105  1  0.15056295  0.04546684  0.70934354  1  0.697904  0.002365  3.5863  0.002  0.673795  0.005438  4.019378  0.004  0.689212  0.003637  4.01842  0.003  1.151092  0.007561  0.293527  0.662642  0.007315  4.019772  0.005
S  S106  1  0.34943716  0.54547175  0.70934263  1  0.697798  0.002353  3.586083  0.002  0.673729  0.00544  4.019174  0.004  0.689147  0.003637  4.018215  0.003  1.151  0.007562  0.29354  0.662576  0.007316  4.019569  0.005
S  S107  1  0.84943848  0.95453322  0.29065635  1  0.697894  0.00237  3.586345  0.002  0.673787  0.005438  4.019423  0.004  0.689207  0.003637  4.018465  0.003  1.151117  0.007561  0.293512  0.662634  0.007315  4.019818  0.005
O  O108  1  0.44413876  0.08178835  0.15320165  1  -0.677803  0.029994  1.994905  0.018  -0.601745  0.037478  2.272653  0.022  -0.628103  0.03357  2.261709  0.019  -1.263635  0.056205  -0.340264  -0.582205  0.041253  2.279665  0.025
O  O109  1  0.94413766  0.41821745  0.84679837  1  -0.677616  0.029988  1.995034  0.018  -0.601609  0.037478  2.272791  0.022  -0.627992  0.03357  2.261899  0.019  -1.26384  0.056207  -0.340253  -0.582047  0.041251  2.279785  0.025
O  O110  1  0.55586145  0.91821172  0.84679824  1  -0.677788  0.029995  1.994889  0.018  -0.601732  0.037478  2.272647  0.022  -0.628089  0.033569  2.261701  0.019  -1.263626  0.056205  -0.340258  -0.582195  0.041253  2.279662  0.025
O  O111  1  0.05586256  0.58178262  0.15320152  1  -0.677684  0.029992  1.995117  0.018  -0.601659  0.037477  2.272863  0.022  -0.62804  0.033569  2.261965  0.019  -1.263842  0.056205  -0.340271  -0.582093  0.041251  2.279854  0.025
O  O112  1  0.74228667  0.08110103  0.02439842  1  -0.515899  0.028918  2.123575  0.019  -0.458948  0.0366  2.379794  0.023  -0.483934  0.032743  2.373998  0.019  -1.182205  0.056659  -0.294993  -0.440372  0.040381  2.383268  0.026
O  O113  1  0.24227076  0.41888881  0.97560079  1  -0.51566  0.028918  2.123644  0.019  -0.458687  0.036597  2.379765  0.023  -0.483677  0.032739  2.373973  0.019  -1.182225  0.056682  -0.294825  -0.440141  0.040379  2.383316  0.026
O  O114  1  0.25771355  0.91889815  0.97560120  1  -0.515736  0.028911  2.123744  0.019  -0.458755  0.036599  2.379928  0.023  -0.483741  0.03274  2.374136  0.019  -1.182213  0.056659  -0.294905  -0.440173  0.04038  2.38339  0.026
O  O115  1  0.75772824  0.58111126  0.02439843  1  -0.51572  0.028921  2.123454  0.019  -0.458758  0.036599  2.379615  0.023  -0.483748  0.03274  2.373822  0.019  -1.182201  0.056678  -0.294875  -0.440211  0.040381  2.383166  0.026
O  O116  1  0.10421392  0.19028105  0.05408483  1  -0.509001  -0.000155  2.084795  0.0  -0.44933  0.000236  2.294759  0.001  -0.47083  -7.1e-05  2.290427  0.0  -1.183243  0.002299  -0.294875  -0.434255  0.000615  2.297496  0.001
O  O117  1  0.60421768  0.30971765  0.94591439  1  -0.508918  -0.000151  2.08474  0.0  -0.449353  0.000234  2.294777  0.001  -0.470859  -7e-05  2.290447  0.0  -1.182398  0.002298  -0.294868  -0.434269  0.000615  2.297507  0.001
O  O118  1  0.89578629  0.80971902  0.94591572  1  -0.509003  -0.000156  2.084802  0.0  -0.449324  0.000235  2.294764  0.001  -0.470823  -7e-05  2.290432  0.0  -1.183239  0.002299  -0.294866  -0.43425  0.000615  2.297503  0.001
O  O119  1  0.39578133  0.69028153  0.05408523  1  -0.508909  -0.00016  2.084777  0.0  -0.449348  0.000235  2.29481  0.001  -0.470853  -7.1e-05  2.29048  0.0  -1.182406  0.002298  -0.294866  -0.434262  0.000615  2.297539  0.001
O  O120  1  0.40251492  0.15064800  0.97346412  1  -0.862329  0.030159  1.925616  0.017  -0.800161  0.038515  2.138139  0.021  -0.824312  0.034836  2.101162  0.019  -1.300906  0.056687  -0.576414  -0.781956  0.041848  2.164086  0.024
O  O121  1  0.90249923  0.34935248  0.02654026  1  -0.862394  0.030151  1.925503  0.017  -0.800336  0.038512  2.137903  0.021  -0.824489  0.034833  2.100911  0.019  -1.300316  0.056684  -0.576463  -0.782128  0.041845  2.163857  0.024
O  O122  1  0.59748652  0.84935207  0.02653577  1  -0.862323  0.030156  1.925602  0.017  -0.800167  0.038515  2.138144  0.021  -0.824318  0.034836  2.101167  0.019  -1.300907  0.056687  -0.576403  -0.781961  0.041848  2.164091  0.024
O  O123  1  0.09750220  0.65064759  0.97346029  1  -0.862366  0.030153  1.925487  0.017  -0.800311  0.038512  2.137902  0.021  -0.824465  0.034833  2.100912  0.019  -1.300301  0.056685  -0.576455  -0.782103  0.041845  2.163855  0.024
O  O124  1  0.49326652  0.48490517  0.34938728  1  -0.677462  0.030095  1.976487  0.019  -0.60437  0.037812  2.253569  0.023  -0.630174  0.033815  2.243504  0.02  -1.262857  0.056834  -0.345357  -0.585255  0.041635  2.260045  0.026
O  O125  1  0.99327149  0.01508999  0.65061353  1  -0.677508  0.030088  1.976471  0.019  -0.604394  0.037811  2.253522  0.023  -0.630191  0.033814  2.24345  0.02  -1.262833  0.056833  -0.34539  -0.585281  0.041633  2.26  0.026
O  O126  1  0.50673370  0.51509578  0.65061288  1  -0.67747  0.030099  1.976421  0.019  -0.604395  0.037813  2.25351  0.023  -0.630199  0.033817  2.243446  0.02  -1.262845  0.056835  -0.34537  -0.585279  0.041636  2.259987  0.026
O  O127  1  0.00672873  0.98491097  0.34938663  1  -0.677488  0.030086  1.976503  0.019  -0.604381  0.037811  2.253559  0.023  -0.630182  0.033813  2.243491  0.02  -1.262851  0.056833  -0.345373  -0.585267  0.041633  2.260036  0.026
O  O128  1  0.26012899  0.42614424  0.48955513  1  -0.510884  0.030241  2.154749  0.019  -0.4508  0.037703  2.415034  0.023  -0.4762  0.033823  2.40877  0.019  -1.189048  0.05927  -0.293673  -0.431999  0.041442  2.418842  0.026
O  O129  1  0.76013761  0.07385358  0.51044316  1  -0.51087  0.030247  2.154844  0.019  -0.450795  0.037704  2.41515  0.023  -0.476223  0.033823  2.408947  0.019  -1.189108  0.059269  -0.293647  -0.431992  0.041443  2.418959  0.026
O  O130  1  0.73987122  0.57385583  0.51044542  1  -0.510863  0.030241  2.15476  0.019  -0.450777  0.037702  2.415036  0.023  -0.476177  0.033822  2.408772  0.019  -1.189061  0.05927  -0.29366  -0.431977  0.041441  2.418845  0.026
O  O131  1  0.23986018  0.92614649  0.48955673  1  -0.510825  0.030246  2.154782  0.019  -0.450792  0.037705  2.415121  0.023  -0.476218  0.033824  2.408904  0.019  -1.189018  0.059268  -0.293691  -0.43199  0.041444  2.41893  0.026
O  O132  1  0.90410669  0.31045818  0.46742468  1  -0.496106  -0.00034  2.12061  0.0  -0.432771  8.5e-05  2.329986  0.001  -0.455117  -0.000189  2.326887  0.0  -1.167352  0.002155  -0.285001  -0.417177  0.000419  2.331842  0.001
O  O133  1  0.40410780  0.18954229  0.53257175  1  -0.496159  -0.000338  2.120618  0.0  -0.43282  8.6e-05  2.329965  0.001  -0.455167  -0.000189  2.326869  0.0  -1.167366  0.002155  -0.285039  -0.41723  0.000419  2.331823  0.001
O  O134  1  0.09589231  0.68954188  0.53257520  1  -0.496097  -0.000334  2.120654  0.0  -0.43274  8.5e-05  2.330025  0.001  -0.455087  -0.000188  2.326926  0.0  -1.167332  0.002155  -0.284992  -0.417147  0.000419  2.331882  0.001
O  O135  1  0.59589121  0.81045866  0.46742840  1  -0.496078  -0.000335  2.120583  0.0  -0.432736  8.5e-05  2.329928  0.001  -0.455074  -0.000189  2.326835  0.0  -1.16732  0.002155  -0.285019  -0.417142  0.000419  2.331783  0.001
O  O136  1  0.58376297  0.31630439  0.45580209  1  -0.860974  0.030206  1.911316  0.018  -0.803754  0.038796  2.125836  0.022  -0.827372  0.034982  2.088386  0.02  -1.323143  0.057406  -0.579754  -0.785997  0.042251  2.152028  0.025
O  O137  1  0.08376164  0.18370052  0.54419964  1  -0.860952  0.030202  1.911353  0.018  -0.803768  0.038796  2.125846  0.022  -0.827375  0.034981  2.088386  0.02  -1.32314  0.05739  -0.579772  -0.786013  0.04225  2.152033  0.025
O  O138  1  0.41623725  0.68369568  0.54419846  1  -0.860977  0.030202  1.911286  0.018  -0.803762  0.038795  2.1258  0.022  -0.827381  0.034981  2.08835  0.02  -1.323139  0.057404  -0.579754  -0.786003  0.042249  2.151992  0.025
O  O139  1  0.91623857  0.81629954  0.45580024  1  -0.860889  0.030202  1.911404  0.018  -0.803683  0.038795  2.125931  0.022  -0.827291  0.034981  2.088474  0.02  -1.323147  0.05739  -0.579724  -0.785928  0.04225  2.152118  0.025
