# generated using pymatgen
data_ZnH22C20(N2O3)2
_symmetry_space_group_name_H-M   'P 1'
_cell_length_a   9.38875836
_cell_length_b   10.16213884
_cell_length_c   13.84900000
_cell_angle_alpha   78.78564464
_cell_angle_beta   86.36944463
_cell_angle_gamma   79.89616149
_symmetry_Int_Tables_number   1
_chemical_formula_structural   ZnH22C20(N2O3)2
_chemical_formula_sum   'Zn2 H44 C40 N8 O12'
_cell_volume   1275.41801052
_cell_formula_units_Z   2
loop_
 _symmetry_equiv_pos_site_id
 _symmetry_equiv_pos_as_xyz
  1  'x, y, z'
loop_
 _atom_site_type_symbol
 _atom_site_label
 _atom_site_symmetry_multiplicity
 _atom_site_fract_x
 _atom_site_fract_y
 _atom_site_fract_z
 _atom_site_occupancy
 _atom_site_hle17_bader_spin_density
 _atom_site_hle17_ddec_charge
 _atom_site_hle17_ddec_spin_density
 _atom_site_hle17_ddec_sum_bond_order
 _atom_site_hle17_magmom
 _atom_site_hse06_10hf_bader_spin_density
 _atom_site_hse06_10hf_ddec_charge
 _atom_site_hse06_10hf_ddec_spin_density
 _atom_site_hse06_10hf_ddec_sum_bond_order
 _atom_site_hse06_10hf_magmom
 _atom_site_hse06_bader_spin_density
 _atom_site_hse06_ddec_charge
 _atom_site_hse06_ddec_spin_density
 _atom_site_hse06_ddec_sum_bond_order
 _atom_site_hse06_magmom
 _atom_site_pbe_bader_charge
 _atom_site_pbe_bader_spin_density
 _atom_site_pbe_cm5_charge
 _atom_site_pbe_ddec_charge
 _atom_site_pbe_ddec_spin_density
 _atom_site_pbe_ddec_sum_bond_order
 _atom_site_pbe_magmom
Zn  Zn0  1  0.16051413  0.12443186  0.69061318  1  0  1.013227  0  1.854894  0  0  0.820841  0  2.328565  0  0  0.866414  0  2.2746  0  1.255736  0  0.703224  0.789178  0  2.365618  0
Zn  Zn1  1  0.83948640  0.87556884  0.30938627  1  0  1.01321  0  1.854911  0  0  0.820848  0  2.328586  0  0  0.866414  0  2.274617  0  1.255784  0  0.703233  0.78918  0  2.365637  0
H  H2  1  0.12361736  0.42114599  0.39997123  1  0  0.11672  0  0.977406  0  0  0.126224  0  1.041812  0  0  0.129654  0  1.039472  0  0.098878  0  0.103751  0.123588  0  1.043772  0
H  H3  1  0.87638372  0.57885165  0.60002935  1  0  0.116754  0  0.977414  0  0  0.126258  0  1.041798  0  0  0.129689  0  1.039457  0  0.098879  0  0.103751  0.123597  0  1.043787  0
H  H4  1  0.91823823  0.93164614  0.68607360  1  0  0.098821  0  0.971039  0  0  0.104837  0  1.042612  0  0  0.107153  0  1.039997  0  0.182486  0  0.130377  0.10328  0  1.043977  0
H  H5  1  0.08176231  0.06835455  0.31392657  1  0  0.098764  0  0.971085  0  0  0.104814  0  1.04262  0  0  0.10713  0  1.040005  0  0.182516  0  0.130367  0.103254  0  1.043983  0
H  H6  1  0.73167346  0.22947672  0.45001671  1  0  0.125884  0  0.984239  0  0  0.129638  0  1.052378  0  0  0.132881  0  1.050751  0  0.150978  0  0.126088  0.127202  0  1.05378  0
H  H7  1  0.26832583  0.77052500  0.54998481  1  0  0.125881  0  0.984232  0  0  0.12965  0  1.052359  0  0  0.132894  0  1.05073  0  0.150958  0  0.126089  0.127213  0  1.053763  0
H  H8  1  0.58440211  0.09502426  0.42887071  1  0  0.076078  0  0.982247  0  0  0.086762  0  1.052607  0  0  0.08845  0  1.052221  0  0.064318  0  0.088292  0.085581  0  1.05284  0
H  H9  1  0.41559879  0.90497440  0.57113046  1  0  0.076071  0  0.982256  0  0  0.086739  0  1.05262  0  0  0.088429  0  1.052233  0  0.064365  0  0.088279  0.085561  0  1.052851  0
H  H10  1  0.49912139  0.12990966  0.54165402  1  0  0.086841  0  0.944016  0  0  0.099968  0  1.006459  0  0  0.102269  0  1.00503  0  0.079078  0  0.090309  0.098197  0  1.007787  0
H  H11  1  0.50088057  0.87008900  0.45834710  1  0  0.086858  0  0.943989  0  0  0.099975  0  1.006437  0  0  0.102274  0  1.005013  0  0.078534  0  0.090319  0.098206  0  1.007766  0
H  H12  1  0.77741272  0.34686495  0.00569644  1  0  0.069448  0  0.916434  0  0  0.086436  0  0.975163  0  0  0.087118  0  0.974337  0  0.041129  0  0.108494  0.085841  0  0.975829  0
H  H13  1  0.22258763  0.65313676  0.99430214  1  0  0.069456  0  0.916389  0  0  0.086454  0  0.975121  0  0  0.087131  0  0.974294  0  0.041097  0  0.108492  0.085859  0  0.975787  0
H  H14  1  0.81479498  0.46736854  0.89936892  1  0  0.075276  0  0.945245  0  0  0.091097  0  1.00838  0  0  0.091021  0  1.009831  0  0.086839  0  0.110382  0.091041  0  1.007401  0
H  H15  1  0.18520485  0.53263012  0.10063013  1  0  0.07526  0  0.945271  0  0  0.091111  0  1.008387  0  0  0.091033  0  1.009835  0  0.08686  0  0.110384  0.091055  0  1.007409  0
H  H16  1  0.65806279  0.92261041  0.63279449  1  0  0.06894  0  0.949824  0  0  0.086155  0  1.010198  0  0  0.085136  0  1.01292  0  0.089782  0  0.105424  0.086862  0  1.008231  0
H  H17  1  0.34193900  0.07738927  0.36720649  1  0  0.068919  0  0.949847  0  0  0.086113  0  1.010228  0  0  0.085106  0  1.012938  0  0.0898  0  0.10542  0.086821  0  1.00826  0
H  H18  1  0.73899515  0.88861831  0.51929270  1  0  0.074093  0  0.954716  0  0  0.086275  0  1.024623  0  0  0.086389  0  1.025443  0  0.098315  0  0.102998  0.085819  0  1.024789  0
H  H19  1  0.26100788  0.11138035  0.48070765  1  0  0.074098  0  0.954749  0  0  0.086268  0  1.024657  0  0  0.086381  0  1.025478  0  0.098303  0  0.10299  0.085813  0  1.024821  0
H  H20  1  0.78768715  0.36560080  0.25465618  1  0  0.097805  0  0.916347  0  0  0.11188  0  0.97535  0  0  0.113609  0  0.97371  0  0.093006  0  0.116704  0.110622  0  0.976853  0
H  H21  1  0.21231499  0.63439684  0.74534436  1  0  0.097827  0  0.916514  0  0  0.111904  0  0.975487  0  0  0.113633  0  0.973843  0  0.092989  0  0.116718  0.110648  0  0.976986  0
H  H22  1  0.66377423  0.35138231  0.16677398  1  0  0.073718  0  0.93352  0  0  0.085665  0  0.998841  0  0  0.08736  0  0.996852  0  0.065858  0  0.105491  0.084172  0  1.000808  0
H  H23  1  0.33622524  0.64861838  0.83322551  1  0  0.07374  0  0.933513  0  0  0.085659  0  0.998871  0  0  0.087349  0  0.996885  0  0.065865  0  0.105479  0.084165  0  1.000838  0
H  H24  1  0.23383777  0.55008605  0.46988407  1  0  0.076419  0  0.970133  0  0  0.086907  0  1.036894  0  0  0.087752  0  1.036966  0  0.087987  0  0.103879  0.086337  0  1.036793  0
H  H25  1  0.76616365  0.44991566  0.53011591  1  0  0.076433  0  0.970129  0  0  0.086924  0  1.036881  0  0  0.087768  0  1.036953  0  0.088004  0  0.103886  0.086355  0  1.036778  0
H  H26  1  0.37746852  0.51089898  0.55367388  1  0  0.115288  0  0.933262  0  0  0.120797  0  0.999818  0  0  0.124175  0  0.996432  0  0.129382  0  0.118407  0.118403  0  1.002232  0
H  H27  1  0.62253095  0.48910171  0.44632705  1  0  0.115304  0  0.933255  0  0  0.120796  0  0.999828  0  0  0.124174  0  0.996442  0  0.129386  0  0.118413  0.118402  0  1.002243  0
H  H28  1  0.49004099  0.22995592  0.16619685  1  0  0.102866  0  0.957411  0  0  0.116746  0  1.01196  0  0  0.119825  0  1.010216  0  0.057194  0  0.100668  0.114376  0  1.013717  0
H  H29  1  0.50995937  0.77004579  0.83380318  1  0  0.102841  0  0.95746  0  0  0.116718  0  1.01201  0  0  0.119798  0  1.010265  0  0.057174  0  0.100665  0.11435  0  1.013765  0
H  H30  1  0.97780659  0.39342020  0.09322354  1  0  0.075564  0  0.951694  0  0  0.089874  0  1.021637  0  0  0.090587  0  1.022082  0  0.037457  0  0.093736  0.089007  0  1.021792  0
H  H31  1  0.02219626  0.60657948  0.90677307  1  0  0.075537  0  0.951721  0  0  0.089854  0  1.021687  0  0  0.090568  0  1.022131  0  0.037446  0  0.093723  0.088987  0  1.021842  0
H  H32  1  0.85539694  0.54436813  0.05316300  1  0  0.075675  0  0.925724  0  0  0.095017  0  0.98032  0  0  0.09544  0  0.981554  0  0.050762  0  0.09625  0.094456  0  0.979864  0
H  H33  1  0.14460662  0.45563358  0.94683400  1  0  0.075736  0  0.925947  0  0  0.095106  0  0.980494  0  0  0.095529  0  0.98173  0  0.050692  0  0.096297  0.094545  0  0.980038  0
H  H34  1  0.97486991  0.30924370  0.51098343  1  0  0.103808  0  0.979071  0  0  0.111458  0  1.044657  0  0  0.113754  0  1.043611  0  0.11627  0  0.115329  0.10976  0  1.04559  0
H  H35  1  0.02513044  0.69075801  0.48901732  1  0  0.103785  0  0.979126  0  0  0.111437  0  1.04471  0  0  0.113734  0  1.043664  0  0.116616  0  0.115322  0.10974  0  1.04564  0
H  H36  1  0.96683296  0.37357739  0.76796540  1  0  0.110586  0  0.955997  0  0  0.115806  0  1.02639  0  0  0.118754  0  1.022772  0  0.191077  0  0.13627  0.113555  0  1.029062  0
H  H37  1  0.03316900  0.62642126  0.23203355  1  0  0.110571  0  0.956034  0  0  0.115836  0  1.026363  0  0  0.118782  0  1.022749  0  0.191079  0  0.136309  0.113586  0  1.029037  0
H  H38  1  0.04532161  0.33849766  0.25998490  1  0  0.088229  0  0.965766  0  0  0.097805  0  1.031085  0  0  0.100945  0  1.029107  0  0.034062  0  0.095585  0.095338  0  1.033171  0
H  H39  1  0.95467733  0.66149998  0.74001649  1  0  0.088183  0  0.965809  0  0  0.097762  0  1.031126  0  0  0.100901  0  1.029151  0  0.034073  0  0.095572  0.095291  0  1.033213  0
H  H40  1  0.19664520  0.00997075  0.92634447  1  0  0.104031  0  0.945935  0  0  0.116051  0  0.99934  0  0  0.118392  0  0.998635  0  0.131599  0  0.119285  0.114291  0  1.000054  0
H  H41  1  0.80335747  0.99002995  0.07365560  1  0  0.10403  0  0.945941  0  0  0.116052  0  0.99934  0  0  0.118393  0  0.998636  0  0.13163  0  0.119288  0.114293  0  1.000054  0
H  H42  1  0.22773545  0.24036009  0.14261784  1  0  0.085613  0  0.957846  0  0  0.098029  0  1.016085  0  0  0.1011  0  1.014627  0  0.04353  0  0.094586  0.095815  0  1.017045  0
H  H43  1  0.77226420  0.75963959  0.85738179  1  0  0.085595  0  0.957845  0  0  0.098008  0  1.016088  0  0  0.101079  0  1.01463  0  0.043526  0  0.094584  0.095794  0  1.01705  0
H  H44  1  0.02161193  0.14794959  0.05895974  1  0  0.139596  0  0.982971  0  0  0.147609  0  1.044985  0  0  0.1513  0  1.042503  0  0.215127  0  0.12386  0.144915  0  1.046795  0
H  H45  1  0.97838861  0.85205110  0.94104043  1  0  0.139581  0  0.982988  0  0  0.147583  0  1.045013  0  0  0.151275  0  1.04253  0  0.215118  0  0.123855  0.144889  0  1.046825  0
C  C46  1  0.22391350  0.37429569  0.58384181  1  0  0.649917  0  3.913659  0  0  0.600882  0  4.219185  0  0  0.633104  0  4.212913  0  1.579766  0  0.195486  0.578932  0  4.222703  0
C  C47  1  0.77608473  0.62570602  0.41615831  1  0  0.64998  0  3.913562  0  0  0.600915  0  4.219127  0  0  0.633135  0  4.212857  0  1.579564  0  0.195534  0.578966  0  4.222643  0
C  C48  1  0.20538874  0.37818225  0.35031897  1  0  -0.199023  0  3.783511  0  0  -0.22172  0  4.040534  0  0  -0.225475  0  4.060197  0  -0.065482  0  -0.114336  -0.219163  0  4.027267  0
C  C49  1  0.79461234  0.62181539  0.64968305  1  0  -0.199117  0  3.783549  0  0  -0.221785  0  4.040553  0  0  -0.22554  0  4.060215  0  -0.065463  0  -0.11435  -0.219207  0  4.027299  0
C  C50  1  0.90238420  0.02339361  0.63017035  1  0  0.156078  0  3.652616  0  0  0.095114  0  3.911318  0  0  0.10899  0  3.924375  0  0.964715  0  0.13795  0.086613  0  3.901263  0
C  C51  1  0.09761545  0.97660607  0.36983072  1  0  0.156148  0  3.652548  0  0  0.095162  0  3.911243  0  0  0.109038  0  3.924298  0  0.964695  0  0.13799  0.086667  0  3.901183  0
C  C52  1  0.80849864  0.17981528  0.50623834  1  0  -0.056234  0  3.652252  0  0  -0.0957  0  3.907041  0  0  -0.094785  0  3.926837  0  0.34775  0  0.003047  -0.096602  0  3.894235  0
C  C53  1  0.19150190  0.82018541  0.49376327  1  0  -0.056153  0  3.65212  0  0  -0.095629  0  3.906896  0  0  -0.094712  0  3.926692  0  0.347533  0  0.003085  -0.096531  0  3.894089  0
C  C54  1  0.45595668  0.31998057  0.29623765  1  0  0.168502  0  3.794582  0  0  0.154257  0  4.060629  0  0  0.162068  0  4.076402  0  0.445292  0  0.074643  0.148966  0  4.049944  0
C  C55  1  0.54404172  0.68002013  0.70376333  1  0  0.168444  0  3.794556  0  0  0.154208  0  4.060578  0  0  0.162022  0  4.076348  0  0.445157  0  0.074642  0.148924  0  4.049894  0
C  C56  1  0.35260237  0.36857371  0.36592645  1  0  0.181942  0  3.789611  0  0  0.16757  0  4.052382  0  0  0.175906  0  4.068537  0  0.524771  0  0.07958  0.161777  0  4.041586  0
C  C57  1  0.64739728  0.63142597  0.63407462  1  0  0.182022  0  3.7895  0  0  0.16761  0  4.052296  0  0  0.175944  0  4.068452  0  0.524819  0  0.079609  0.161817  0  4.041494  0
C  C58  1  0.55265451  0.04826350  0.50356126  1  0  -0.131465  0  3.658355  0  0  -0.166925  0  3.912329  0  0  -0.168884  0  3.92469  0  -0.067371  0  -0.170819  -0.165718  0  3.904289  0
C  C59  1  0.44734532  0.95173516  0.49644067  1  0  -0.131442  0  3.658307  0  0  -0.166916  0  3.912332  0  0  -0.168877  0  3.924695  0  -0.038405  0  -0.170788  -0.165718  0  3.904301  0
C  C60  1  0.86348378  0.39503078  0.96297041  1  0  0.008957  0  3.631235  0  0  -0.054322  0  3.891139  0  0  -0.049605  0  3.902301  0  0.298697  0  -0.048945  -0.057341  0  3.883339  0
C  C61  1  0.13651782  0.60496992  0.03702899  1  0  0.008921  0  3.631105  0  0  -0.054396  0  3.891079  0  0  -0.049662  0  3.902222  0  0.298796  0  -0.048982  -0.057416  0  3.88328  0
C  C62  1  0.68655133  0.97019427  0.55757471  1  0  0.003334  0  3.615628  0  0  -0.058991  0  3.868941  0  0  -0.054763  0  3.881946  0  0.243963  0  -0.056706  -0.061395  0  3.860074  0
C  C63  1  0.31344939  0.02980541  0.44242631  1  0  0.003328  0  3.615716  0  0  -0.058953  0  3.868979  0  0  -0.054734  0  3.881981  0  0.244072  0  -0.0567  -0.061356  0  3.860114  0
C  C64  1  0.70634066  0.30661061  0.24055238  1  0  -0.060921  0  3.639612  0  0  -0.121794  0  3.906574  0  0  -0.118122  0  3.907357  0  0.403229  0  -0.064264  -0.124129  0  3.906088  0
C  C65  1  0.29365935  0.69338703  0.75944680  1  0  -0.060995  0  3.6399  0  0  -0.121865  0  3.906827  0  0  -0.118184  0  3.907613  0  0.403249  0  -0.064289  -0.124193  0  3.906342  0
C  C66  1  0.30977953  0.46659937  0.51095480  1  0  -0.077093  0  3.610988  0  0  -0.132392  0  3.868036  0  0  -0.129436  0  3.868661  0  0.368159  0  -0.070807  -0.13429  0  3.867474  0
C  C67  1  0.69021994  0.53340133  0.48904469  1  0  -0.077133  0  3.610983  0  0  -0.132407  0  3.868039  0  0  -0.129446  0  3.868656  0  0.368182  0  -0.07083  -0.134307  0  3.867476  0
C  C68  1  0.41044022  0.27386587  0.21670329  1  0  -0.197441  0  3.822238  0  0  -0.220443  0  4.078679  0  0  -0.223107  0  4.097005  0  -0.056089  0  -0.118509  -0.218555  0  4.066592  0
C  C69  1  0.58956014  0.72613585  0.78329746  1  0  -0.197354  0  3.822222  0  0  -0.220359  0  4.078643  0  0  -0.223023  0  4.096969  0  -0.055936  0  -0.118488  -0.218472  0  4.066556  0
C  C70  1  0.78408351  0.16059005  0.24001845  1  0  0.635518  0  3.928865  0  0  0.586796  0  4.237127  0  0  0.618677  0  4.231545  0  1.596638  0  0.19555  0.565115  0  4.240419  0
C  C71  1  0.21591525  0.83940861  0.75998064  1  0  0.635522  0  3.928769  0  0  0.586777  0  4.237051  0  0  0.618655  0  4.231471  0  1.596869  0  0.195544  0.565097  0  4.240341  0
C  C72  1  0.93822482  0.46690663  0.02724177  1  0  -0.132791  0  3.691681  0  0  -0.175287  0  3.958958  0  0  -0.176977  0  3.973455  0  -0.042613  0  -0.163482  -0.17399  0  3.949051  0
C  C73  1  0.06177537  0.53309000  0.97275394  1  0  -0.132821  0  3.691816  0  0  -0.175389  0  3.959149  0  0  -0.177084  0  3.973639  0  -0.014136  0  -0.163529  -0.174092  0  3.949245  0
C  C74  1  0.92840696  0.21809989  0.53745421  1  0  -0.013676  0  3.765332  0  0  -0.047073  0  4.031048  0  0  -0.045986  0  4.052276  0  0.363588  0  -0.010202  -0.047808  0  4.017058  0
C  C75  1  0.07159162  0.78189978  0.46254690  1  0  -0.013745  0  3.765272  0  0  -0.04715  0  4.031002  0  0  -0.046065  0  4.052228  0  0.363466  0  -0.010226  -0.047885  0  4.017012  0
C  C76  1  0.00538254  0.29246741  0.82849712  1  0  0.161612  0  3.646666  0  0  0.09972  0  3.906772  0  0  0.113794  0  3.918709  0  0.956129  0  0.143544  0.090767  0  3.898396  0
C  C77  1  0.99461835  0.70753125  0.17150187  1  0  0.161624  0  3.646755  0  0  0.099697  0  3.906853  0  0  0.113778  0  3.918789  0  0.956149  0  0.143491  0.090741  0  3.898479  0
C  C78  1  0.16066215  0.33304224  0.26961659  1  0  -0.085503  0  3.835635  0  0  -0.103813  0  4.100281  0  0  -0.104334  0  4.119873  0  -0.004538  0  -0.110222  -0.102923  0  4.08651  0
C  C79  1  0.83933750  0.66695743  0.73038521  1  0  -0.08548  0  3.835629  0  0  -0.103798  0  4.100261  0  0  -0.10432  0  4.119854  0  -0.004557  0  -0.110255  -0.102902  0  4.08648  0
C  C80  1  0.12493733  0.10705732  0.91365665  1  0  0.003609  0  3.778556  0  0  -0.030967  0  4.044177  0  0  -0.029305  0  4.065213  0  0.364975  0  -0.003599  -0.03207  0  4.030197  0
C  C81  1  0.87506427  0.89294337  0.08634275  1  0  0.00357  0  3.778637  0  0  -0.031004  0  4.044244  0  0  -0.029342  0  4.06528  0  0.364979  0  -0.003618  -0.032106  0  4.030263  0
C  C82  1  0.26229734  0.27932434  0.20380463  1  0  -0.098045  0  3.852984  0  0  -0.113871  0  4.112655  0  0  -0.114524  0  4.131574  0  -0.033061  0  -0.115872  -0.113233  0  4.09923  0
C  C83  1  0.73770231  0.72067534  0.79619645  1  0  -0.097999  0  3.852942  0  0  -0.113825  0  4.112607  0  0  -0.114478  0  4.131527  0  -0.0331  0  -0.115842  -0.113187  0  4.099184  0
C  C84  1  0.04023861  0.17318779  0.97981590  1  0  -0.085086  0  3.665949  0  0  -0.124892  0  3.921139  0  0  -0.125254  0  3.941688  0  0.268144  0  -0.004467  -0.124625  0  3.907524  0
C  C85  1  0.95976193  0.82681291  0.02018283  1  0  -0.085056  0  3.666084  0  0  -0.124848  0  3.921259  0  0  -0.125207  0  3.941804  0  0.2681  0  -0.00447  -0.124582  0  3.907643  0
N  N86  1  0.79382128  0.05669692  0.56560356  1  0  -0.045134  0  3.545081  0  0  0.051824  0  3.757929  0  0  0.037496  0  3.783938  0  -1.234733  0  -0.234176  0.061201  0  3.740042  0
N  N87  1  0.20617925  0.94330378  0.43439733  1  0  -0.045181  0  3.545087  0  0  0.051766  0  3.757947  0  0  0.037436  0  3.783958  0  -1.23473  0  -0.234213  0.061142  0  3.74006  0
N  N88  1  0.96462335  0.28973054  0.92428954  1  0  -0.055996  0  3.574541  0  0  0.041286  0  3.789767  0  0  0.026497  0  3.816717  0  -1.221367  0  -0.242874  0.051002  0  3.771348  0
N  N89  1  0.03537542  0.71026812  0.07570955  1  0  -0.056015  0  3.574643  0  0  0.041277  0  3.789872  0  0  0.026479  0  3.816829  0  -1.221439  0  -0.242848  0.050995  0  3.771453  0
N  N90  1  0.98613011  0.11972831  0.61492099  1  0  -0.398814  0  3.338019  0  0  -0.31718  0  3.640827  0  0  -0.337697  0  3.65392  0  -1.275326  0  -0.365289  -0.303209  0  3.631601  0
N  N91  1  0.01386936  0.88027238  0.38507994  1  0  -0.398775  0  3.337958  0  0  -0.317145  0  3.640782  0  0  -0.337656  0  3.653869  0  -1.275334  0  -0.365308  -0.303173  0  3.631554  0
N  N92  1  0.10243944  0.18217265  0.81984284  1  0  -0.386959  0  3.339339  0  0  -0.307295  0  3.644461  0  0  -0.326638  0  3.654538  0  -1.254335  0  -0.362669  -0.294346  0  3.637395  0
N  N93  1  0.89756341  0.81782703  0.18015737  1  0  -0.386885  0  3.33932  0  0  -0.307226  0  3.644449  0  0  -0.326567  0  3.654521  0  -1.254319  0  -0.362624  -0.294274  0  3.637379  0
O  O94  1  0.59663773  0.32320783  0.31502557  1  0  -0.244684  0  2.399696  0  0  -0.175519  0  2.636465  0  0  -0.191532  0  2.638437  0  -1.078727  0  -0.174576  -0.164097  0  2.634545  0
O  O95  1  0.40336067  0.67679286  0.68497541  1  0  -0.24467  0  2.399814  0  0  -0.175455  0  2.636523  0  0  -0.191471  0  2.638495  0  -1.078749  0  -0.17456  -0.16405  0  2.634612  0
O  O96  1  0.40880372  0.40294429  0.44416815  1  0  -0.233593  0  2.364902  0  0  -0.167214  0  2.59934  0  0  -0.183286  0  2.60118  0  -1.074263  0  -0.172454  -0.156157  0  2.597907  0
O  O97  1  0.59119397  0.59705437  0.55583243  1  0  -0.23359  0  2.364808  0  0  -0.16721  0  2.599256  0  0  -0.183284  0  2.601095  0  -1.074252  0  -0.172435  -0.156151  0  2.597821  0
O  O98  1  0.27505771  0.24551639  0.60030614  1  0  -0.640129  0  2.052555  0  0  -0.559386  0  2.316635  0  0  -0.586851  0  2.300549  0  -1.16972  0  -0.328759  -0.540357  0  2.327323  0
O  O99  1  0.72494033  0.75448634  0.39969384  1  0  -0.640191  0  2.052551  0  0  -0.55944  0  2.316647  0  0  -0.586903  0  2.300561  0  -1.169652  0  -0.328796  -0.540409  0  2.327334  0
O  O100  1  0.90315556  0.14949099  0.19371218  1  0  -0.628958  0  1.935276  0  0  -0.58637  0  2.168948  0  0  -0.609876  0  2.161068  0  -1.200798  0  -0.328126  -0.569478  0  2.173529  0
O  O101  1  0.09684107  0.85050767  0.80628555  1  0  -0.628955  0  1.935175  0  0  -0.586376  0  2.168876  0  0  -0.609877  0  2.16099  0  -1.200831  0  -0.328119  -0.569483  0  2.173455  0
O  O102  1  0.72165922  0.06279128  0.28696737  1  0  -0.624457  0  2.033263  0  0  -0.545853  0  2.293439  0  0  -0.57318  0  2.278716  0  -1.178331  0  -0.323976  -0.52699  0  2.303105  0
O  O103  1  0.27833616  0.93720840  0.71303388  1  0  -0.624491  0  2.033298  0  0  -0.545838  0  2.293436  0  0  -0.573166  0  2.278725  0  -1.178536  0  -0.323988  -0.526977  0  2.303101  0
O  O104  1  0.11303850  0.43120830  0.62378977  1  0  -0.627978  0  1.888041  0  0  -0.582301  0  2.111534  0  0  -0.60638  0  2.103891  0  -1.198432  0  -0.334062  -0.565515  0  2.11642  0
O  O105  1  0.88695759  0.56879341  0.37620972  1  0  -0.627958  0  1.887959  0  0  -0.582287  0  2.11149  0  0  -0.606366  0  2.103846  0  -1.198361  0  -0.334069  -0.565498  0  2.116365  0
