# generated using pymatgen
data_CdH12C12S(N2O)4
_symmetry_space_group_name_H-M   'P 1'
_cell_length_a   6.90423541
_cell_length_b   14.87010913
_cell_length_c   17.30988315
_cell_angle_alpha   89.99902726
_cell_angle_beta   89.99952462
_cell_angle_gamma   92.36600865
_symmetry_Int_Tables_number   1
_chemical_formula_structural   CdH12C12S(N2O)4
_chemical_formula_sum   'Cd4 H48 C48 S4 N32 O16'
_cell_volume   1775.63414343
_cell_formula_units_Z   4
loop_
 _symmetry_equiv_pos_site_id
 _symmetry_equiv_pos_as_xyz
  1  'x, y, z'
loop_
 _atom_site_type_symbol
 _atom_site_label
 _atom_site_symmetry_multiplicity
 _atom_site_fract_x
 _atom_site_fract_y
 _atom_site_fract_z
 _atom_site_occupancy
 _atom_site_pbe_bader_charge
 _atom_site_pbe_bader_spin_density
 _atom_site_pbe_cm5_charge
 _atom_site_pbe_ddec_charge
 _atom_site_pbe_ddec_spin_density
 _atom_site_pbe_ddec_sum_bond_order
 _atom_site_pbe_magmom
Cd  Cd0  1  0.22787187  0.26294826  0.98576751  1  1.282904  0  0.813218  0.865839  0  2.191405  0
Cd  Cd1  1  0.77211628  0.23705342  0.48576285  1  1.282962  0  0.813248  0.865883  0  2.191337  0
Cd  Cd2  1  0.77212596  0.73705292  0.01423667  1  1.283029  0  0.813276  0.865897  0  2.191283  0
Cd  Cd3  1  0.22788431  0.76294641  0.51423555  1  1.282952  0  0.813235  0.865859  0  2.191413  0
H  H4  1  0.19507867  0.91487304  0.93241525  1  0.568138  0  0.30599  0.30196  0  0.993955  0
H  H5  1  0.80492352  0.58513264  0.43241732  1  0.568079  0  0.305954  0.30195  0  0.993926  0
H  H6  1  0.80492671  0.08513150  0.06758545  1  0.568104  0  0.305941  0.301936  0  0.993955  0
H  H7  1  0.19507324  0.41487259  0.56758166  1  0.568145  0  0.305987  0.3019  0  0.993937  0
H  H8  1  0.31737696  0.92964261  0.07775984  1  0.578348  0  0.305509  0.301304  0  0.995163  0
H  H9  1  0.68261996  0.57035208  0.57776523  1  0.578569  0  0.305423  0.301207  0  0.995103  0
H  H10  1  0.68262035  0.07035319  0.92223740  1  0.578522  0  0.305465  0.301182  0  0.995274  0
H  H11  1  0.31737339  0.42964776  0.42223606  1  0.578562  0  0.305407  0.30113  0  0.995224  0
H  H12  1  0.35042979  0.60799689  0.93834853  1  0.586891  0  0.307261  0.299557  0  0.987785  0
H  H13  1  0.64956892  0.89200396  0.43834895  1  0.586872  0  0.307252  0.299559  0  0.987794  0
H  H14  1  0.64956790  0.39200295  0.06165160  1  0.586876  0  0.307261  0.299537  0  0.987817  0
H  H15  1  0.35042424  0.10799386  0.56164772  1  0.586853  0  0.307266  0.299601  0  0.987782  0
H  H16  1  0.16960649  0.59883853  0.07176881  1  0.55719  0  0.306047  0.29776  0  0.989754  0
H  H17  1  0.83039429  0.90116503  0.57176889  1  0.557231  0  0.306032  0.297699  0  0.989833  0
H  H18  1  0.83038975  0.40116131  0.92823075  1  0.557209  0  0.30605  0.29773  0  0.989826  0
H  H19  1  0.16959590  0.09883212  0.42823008  1  0.557259  0  0.306018  0.297639  0  0.989976  0
H  H20  1  0.09049503  0.53293715  0.20345488  1  0.120515  0  0.118728  0.105075  0  1.037062  0
H  H21  1  0.90949849  0.96706442  0.70345375  1  0.120578  0  0.118696  0.105072  0  1.03702  0
H  H22  1  0.90949845  0.46706404  0.79654698  1  0.120562  0  0.118704  0.105013  0  1.037047  0
H  H23  1  0.09049454  0.03293205  0.29654407  1  0.119903  0  0.118699  0.105088  0  1.037014  0
H  H24  1  0.10152202  0.34612393  0.18618632  1  0.101675  0  0.118492  0.110716  0  1.002359  0
H  H25  1  0.89846919  0.15387507  0.68617996  1  0.101575  0  0.118498  0.110705  0  1.002367  0
H  H26  1  0.89847139  0.65387658  0.81381612  1  0.101681  0  0.118505  0.110711  0  1.0024  0
H  H27  1  0.10153398  0.84612139  0.31382190  1  0.101545  0  0.118482  0.110667  0  1.002376  0
H  H28  1  0.35566013  0.18545730  0.18923100  1  0.081935  0  0.118339  0.111991  0  0.99325  0
H  H29  1  0.64433729  0.31453153  0.68923411  1  0.081702  0  0.118333  0.112007  0  0.993311  0
H  H30  1  0.64434094  0.81453243  0.81077087  1  0.081862  0  0.118331  0.111979  0  0.993239  0
H  H31  1  0.35566897  0.68546695  0.31076428  1  0.081693  0  0.11832  0.111999  0  0.993235  0
H  H32  1  0.12224262  0.96077556  0.79511024  1  0.081516  0  0.117802  0.103385  0  1.04049  0
H  H33  1  0.87776999  0.53923355  0.29511505  1  0.081485  0  0.117848  0.103449  0  1.040435  0
H  H34  1  0.87777599  0.03923098  0.20488931  1  0.081446  0  0.11786  0.103489  0  1.040416  0
H  H35  1  0.12222967  0.46077166  0.70488451  1  0.081581  0  0.117849  0.103439  0  1.040434  0
H  H36  1  0.37453035  0.37683781  0.79324983  1  0.069479  0  0.118311  0.112071  0  0.997945  0
H  H37  1  0.62547350  0.12316507  0.29324731  1  0.069571  0  0.118387  0.112175  0  0.997953  0
H  H38  1  0.62547887  0.62316134  0.20674915  1  0.069671  0  0.11829  0.112041  0  0.997984  0
H  H39  1  0.37452413  0.87683410  0.70675051  1  0.069358  0  0.118331  0.112103  0  0.997957  0
H  H40  1  0.11672551  0.14865834  0.79536054  1  0.090618  0  0.118404  0.110538  0  0.999928  0
H  H41  1  0.88328163  0.35134920  0.29536366  1  0.09095  0  0.118404  0.11052  0  0.999945  0
H  H42  1  0.88329317  0.85134887  0.20463902  1  0.090849  0  0.118448  0.110599  0  0.999876  0
H  H43  1  0.11671777  0.64865333  0.70463704  1  0.090734  0  0.118431  0.110519  0  0.999948  0
H  H44  1  0.38899378  0.00028170  0.20863624  1  0.109371  0  0.117104  0.104337  0  1.045611  0
H  H45  1  0.61099721  0.49970473  0.70863965  1  0.109162  0  0.117098  0.104296  0  1.045747  0
H  H46  1  0.61100887  0.99970938  0.79136101  1  0.109214  0  0.117084  0.10431  0  1.04568  0
H  H47  1  0.38900905  0.50029374  0.29136221  1  0.109355  0  0.11713  0.104353  0  1.045632  0
H  H48  1  0.42346642  0.56420520  0.79842808  1  0.099141  0  0.121295  0.109569  0  1.017216  0
H  H49  1  0.57654271  0.93579847  0.29842637  1  0.099007  0  0.121272  0.109568  0  1.01721  0
H  H50  1  0.57654022  0.43579731  0.20157263  1  0.098946  0  0.121274  0.109526  0  1.017274  0
H  H51  1  0.42345348  0.06420070  0.70157145  1  0.098825  0  0.121215  0.109423  0  1.017196  0
C  C52  1  0.14624658  0.10231419  0.84183196  1  0.383158  0  -0.002175  -0.031144  0  4.013508  0
C  C53  1  0.85376254  0.39769375  0.34183394  1  0.383501  0  -0.002203  -0.031182  0  4.013749  0
C  C54  1  0.85376479  0.89769235  0.15816817  1  0.383413  0  -0.002279  -0.031377  0  4.013623  0
C  C55  1  0.14624134  0.60231012  0.65816677  1  0.383239  0  -0.002145  -0.031008  0  4.01353  0
C  C56  1  0.14757083  0.00947070  0.84078873  1  0.403695  0  0.001586  -0.05145  0  3.975347  0
C  C57  1  0.85243693  0.49053793  0.34079224  1  0.4034  0  0.001582  -0.051586  0  3.975465  0
C  C58  1  0.85243903  0.99053517  0.15921256  1  0.403208  0  0.001508  -0.051605  0  3.975448  0
C  C59  1  0.14756135  0.50946796  0.65920905  1  0.403291  0  0.001551  -0.051606  0  3.975354  0
C  C60  1  0.21635445  0.05820110  0.95794387  1  1.014073  0  0.212734  0.221277  0  4.053607  0
C  C61  1  0.78363981  0.44179777  0.45794543  1  1.014212  0  0.212744  0.221332  0  4.053533  0
C  C62  1  0.78364463  0.94179806  0.04205568  1  1.014055  0  0.212717  0.221251  0  4.053577  0
C  C63  1  0.21636091  0.55820340  0.54205412  1  1.01434  0  0.212719  0.221252  0  4.053689  0
C  C64  1  0.26817140  0.06570456  0.03838120  1  1.009284  0  0.211793  0.219503  0  4.059884  0
C  C65  1  0.73181950  0.43428936  0.53838344  1  1.009596  0  0.211671  0.219385  0  4.060126  0
C  C66  1  0.73182894  0.93429258  0.96161778  1  1.00968  0  0.211727  0.219357  0  4.06  0
C  C67  1  0.26817543  0.56571182  0.46161496  1  1.009709  0  0.211768  0.219482  0  4.060209  0
C  C68  1  0.33368649  0.13093281  0.14812659  1  0.449531  0  -0.002308  -0.03325  0  4.021491  0
C  C69  1  0.66630620  0.36905820  0.64812768  1  0.449733  0  -0.002356  -0.033212  0  4.021523  0
C  C70  1  0.66632524  0.86906229  0.85187585  1  0.450051  0  -0.002391  -0.033357  0  4.021709  0
C  C71  1  0.33368847  0.63094029  0.35187071  1  0.449781  0  -0.002335  -0.033243  0  4.021492  0
C  C72  1  0.35169875  0.03955437  0.15861083  1  0.32965  0  -0.001043  -0.056163  0  3.980536  0
C  C73  1  0.64828633  0.46043510  0.65861354  1  0.329763  0  -0.000972  -0.056111  0  3.980631  0
C  C74  1  0.64830284  0.96044075  0.84138988  1  0.329459  0  -0.000987  -0.056193  0  3.980757  0
C  C75  1  0.35170248  0.53956273  0.34138543  1  0.329544  0  -0.001019  -0.056157  0  3.9805  0
C  C76  1  0.35156478  0.42310203  0.84051386  1  0.396452  0  -0.004777  -0.041975  0  4.026973  0
C  C77  1  0.64843523  0.07690123  0.34051136  1  0.397461  0  -0.004841  -0.042136  0  4.027146  0
C  C78  1  0.64843424  0.57689645  0.15948570  1  0.396261  0  -0.004727  -0.041957  0  4.027004  0
C  C79  1  0.35156234  0.92309725  0.65948646  1  0.397715  0  -0.004868  -0.042112  0  4.027252  0
C  C80  1  0.37728201  0.51576374  0.84208450  1  0.406542  0  0.003081  -0.052069  0  3.982614  0
C  C81  1  0.62272192  0.98424040  0.34208135  1  0.406705  0  0.003091  -0.052019  0  3.98258  0
C  C82  1  0.62271858  0.48423609  0.15791621  1  0.406673  0  0.00313  -0.051974  0  3.982724  0
C  C83  1  0.37727420  0.01575809  0.65791705  1  0.407009  0  0.003241  -0.051791  0  3.98242  0
C  C84  1  0.27745552  0.46736675  0.95597948  1  0.976372  0  0.21053  0.219587  0  4.049718  0
C  C85  1  0.72253916  0.03263620  0.45597854  1  0.976607  0  0.210548  0.219751  0  4.049521  0
C  C86  1  0.72254237  0.53263510  0.04402238  1  0.976234  0  0.210511  0.219547  0  4.049583  0
C  C87  1  0.27745274  0.96736364  0.54402043  1  0.976393  0  0.210559  0.21971  0  4.049489  0
C  C88  1  0.21690426  0.46170152  0.03562102  1  1.059387  0  0.211015  0.216132  0  4.053114  0
C  C89  1  0.78308174  0.03830121  0.53562076  1  1.059822  0  0.210974  0.216018  0  4.053321  0
C  C90  1  0.78309363  0.53830033  0.96437854  1  1.059664  0  0.211064  0.216204  0  4.053022  0
C  C91  1  0.21690575  0.96169797  0.46437879  1  1.059589  0  0.211005  0.216028  0  4.053338  0
C  C92  1  0.12683476  0.49175378  0.15446750  1  0.328521  0  0.002541  -0.048391  0  3.97463  0
C  C93  1  0.87316278  0.00824383  0.65446335  1  0.328192  0  0.002619  -0.048314  0  3.9746  0
C  C94  1  0.87315615  0.50825078  0.84553147  1  0.328177  0  0.002499  -0.048271  0  3.974714  0
C  C95  1  0.12684190  0.99175330  0.34553505  1  0.328919  0  0.002599  -0.048346  0  3.974452  0
C  C96  1  0.13348288  0.39970697  0.14509317  1  0.426912  0  -0.003844  -0.038167  0  4.025514  0
C  C97  1  0.86651197  0.10029084  0.64508885  1  0.426996  0  -0.003902  -0.038251  0  4.025563  0
C  C98  1  0.86651784  0.60029421  0.85490754  1  0.427375  0  -0.003861  -0.038189  0  4.02546  0
C  C99  1  0.13348547  0.89970630  0.35491128  1  0.426923  0  -0.003843  -0.038145  0  4.025294  0
S  S100  1  0.73600113  0.23895935  0.98583790  1  3.808708  0  0.546257  1.409383  0  6.404329  0
S  S101  1  0.26398795  0.26103695  0.48583225  1  3.808608  0  0.546246  1.409574  0  6.404405  0
S  S102  1  0.26400084  0.76103980  0.01416281  1  3.808908  0  0.546303  1.409501  0  6.404239  0
S  S103  1  0.73600817  0.73896154  0.51416672  1  3.808801  0  0.546253  1.409485  0  6.404431  0
N  N104  1  0.18912976  0.13192579  0.91512564  1  -1.158815  0  -0.350746  -0.317502  0  3.473391  0
N  N105  1  0.81087303  0.36807731  0.41512472  1  -1.159296  0  -0.350747  -0.317449  0  3.473482  0
N  N106  1  0.81087721  0.86808009  0.08487737  1  -1.159212  0  -0.350699  -0.317326  0  3.473378  0
N  N107  1  0.18913953  0.63192654  0.58487656  1  -1.159098  0  -0.35076  -0.317552  0  3.473478  0
N  N108  1  0.28122216  0.14632228  0.07306887  1  -1.186644  0  -0.350368  -0.31879  0  3.463923  0
N  N109  1  0.71876782  0.35366959  0.57307001  1  -1.18683  0  -0.350398  -0.318942  0  3.463971  0
N  N110  1  0.71878101  0.85367418  0.92693358  1  -1.186952  0  -0.350324  -0.318683  0  3.464006  0
N  N111  1  0.28122698  0.64633025  0.42692839  1  -1.186927  0  -0.350399  -0.31894  0  3.464102  0
N  N112  1  0.19141008  0.98281410  0.91443198  1  -1.296497  0  -0.368287  -0.228029  0  3.619722  0
N  N113  1  0.80859233  0.51718992  0.41443444  1  -1.296374  0  -0.368245  -0.227926  0  3.619553  0
N  N114  1  0.80859354  0.01718707  0.08556758  1  -1.296051  0  -0.368182  -0.227872  0  3.61955  0
N  N115  1  0.19140726  0.48281463  0.58556627  1  -1.296247  0  -0.368318  -0.227893  0  3.619692  0
N  N116  1  0.31027608  0.99939181  0.08876404  1  -1.291221  0  -0.369212  -0.22971  0  3.618198  0
N  N117  1  0.68971466  0.50060132  0.58876696  1  -1.291555  0  -0.369048  -0.229493  0  3.618131  0
N  N118  1  0.68972136  0.00060533  0.91123378  1  -1.291558  0  -0.369109  -0.229401  0  3.618319  0
N  N119  1  0.31027862  0.49939785  0.41123317  1  -1.291559  0  -0.369058  -0.229402  0  3.618048  0
N  N120  1  0.28932414  0.39360022  0.91176595  1  -1.178988  0  -0.350406  -0.316526  0  3.437902  0
N  N121  1  0.71067142  0.10640228  0.41176282  1  -1.180207  0  -0.350421  -0.31655  0  3.437846  0
N  N122  1  0.71067665  0.60640163  0.08823591  1  -1.178875  0  -0.350431  -0.316486  0  3.437809  0
N  N123  1  0.28932483  0.89359756  0.58823558  1  -1.180451  0  -0.350394  -0.316467  0  3.437968  0
N  N124  1  0.18985094  0.38183809  0.07091882  1  -1.213098  0  -0.353651  -0.318405  0  3.458257  0
N  N125  1  0.81013710  0.11816325  0.57091558  1  -1.212933  0  -0.353618  -0.318338  0  3.458108  0
N  N126  1  0.81014985  0.61816376  0.92908305  1  -1.213229  0  -0.35368  -0.318437  0  3.458085  0
N  N127  1  0.18985764  0.88183591  0.42908339  1  -1.213023  0  -0.353626  -0.318292  0  3.458137  0
N  N128  1  0.33020272  0.54247164  0.91531422  1  -1.30692  0  -0.367929  -0.225852  0  3.621313  0
N  N129  1  0.66979671  0.95753169  0.41531304  1  -1.307109  0  -0.367932  -0.225946  0  3.621068  0
N  N130  1  0.66979353  0.45752820  0.08468764  1  -1.306862  0  -0.367954  -0.225847  0  3.62129  0
N  N131  1  0.33019802  0.04246747  0.58468594  1  -1.306762  0  -0.367994  -0.226047  0  3.621164  0
N  N132  1  0.17943523  0.52983901  0.08492594  1  -1.281212  0  -0.367352  -0.224927  0  3.616139  0
N  N133  1  0.82055499  0.97016295  0.58492332  1  -1.281511  0  -0.367299  -0.224821  0  3.616325  0
N  N134  1  0.82056121  0.47016285  0.91507361  1  -1.281501  0  -0.367322  -0.225008  0  3.616231  0
N  N135  1  0.17943237  0.02983488  0.41507623  1  -1.281205  0  -0.367344  -0.224873  0  3.616591  0
O  O136  1  0.58522856  0.29951087  0.01680228  1  -1.345644  0  -0.368942  -0.673989  0  2.28611  0
O  O137  1  0.41476334  0.20048887  0.51679915  1  -1.345505  0  -0.368939  -0.67407  0  2.286247  0
O  O138  1  0.41477493  0.70048896  0.98319843  1  -1.345667  0  -0.368935  -0.673996  0  2.286061  0
O  O139  1  0.58523732  0.79951163  0.48319983  1  -1.345551  0  -0.368913  -0.673993  0  2.286183  0
O  O140  1  0.83015979  0.19095160  0.05012872  1  -1.358339  0  -0.375616  -0.671246  0  2.193611  0
O  O141  1  0.16983734  0.30904948  0.55012192  1  -1.358251  0  -0.375651  -0.671269  0  2.193492  0
O  O142  1  0.16984659  0.80904823  0.94987084  1  -1.35823  0  -0.375669  -0.671277  0  2.193583  0
O  O143  1  0.83015733  0.69094901  0.44987705  1  -1.358218  0  -0.37565  -0.671279  0  2.193669  0
O  O144  1  0.64192652  0.17549109  0.93005536  1  -1.362063  0  -0.37419  -0.664403  0  2.197319  0
O  O145  1  0.35805627  0.32450298  0.43004443  1  -1.362158  0  -0.374205  -0.664535  0  2.197295  0
O  O146  1  0.35807836  0.82450806  0.06994593  1  -1.362279  0  -0.374181  -0.664466  0  2.197296  0
O  O147  1  0.64193412  0.67549619  0.56995454  1  -1.362155  0  -0.374198  -0.664497  0  2.197249  0
O  O148  1  0.88907268  0.29740360  0.94591725  1  -1.34064  0  -0.375202  -0.67802  0  2.262968  0
O  O149  1  0.11091698  0.20259014  0.44591990  1  -1.340606  0  -0.375153  -0.67798  0  2.26303  0
O  O150  1  0.11092929  0.70259556  0.05408230  1  -1.340658  0  -0.375196  -0.678073  0  2.262976  0
O  O151  1  0.88908052  0.79740767  0.55408081  1  -1.340806  0  -0.375199  -0.678043  0  2.26305  0
