# generated using pymatgen
data_LaH16C15O8
_symmetry_space_group_name_H-M   'P 1'
_cell_length_a   8.86928966
_cell_length_b   10.81597525
_cell_length_c   11.28468291
_cell_angle_alpha   103.76541313
_cell_angle_beta   102.84783975
_cell_angle_gamma   111.72906033
_symmetry_Int_Tables_number   1
_chemical_formula_structural   LaH16C15O8
_chemical_formula_sum   'La2 H32 C30 O16'
_cell_volume   917.09575538
_cell_formula_units_Z   2
loop_
 _symmetry_equiv_pos_site_id
 _symmetry_equiv_pos_as_xyz
  1  'x, y, z'
loop_
 _atom_site_type_symbol
 _atom_site_label
 _atom_site_symmetry_multiplicity
 _atom_site_fract_x
 _atom_site_fract_y
 _atom_site_fract_z
 _atom_site_occupancy
 _atom_site_hle17_bader_spin_density
 _atom_site_hle17_ddec_charge
 _atom_site_hle17_ddec_spin_density
 _atom_site_hle17_ddec_sum_bond_order
 _atom_site_hle17_magmom
 _atom_site_hse06_10hf_bader_spin_density
 _atom_site_hse06_10hf_ddec_charge
 _atom_site_hse06_10hf_ddec_spin_density
 _atom_site_hse06_10hf_ddec_sum_bond_order
 _atom_site_hse06_10hf_magmom
 _atom_site_hse06_bader_spin_density
 _atom_site_hse06_ddec_charge
 _atom_site_hse06_ddec_spin_density
 _atom_site_hse06_ddec_sum_bond_order
 _atom_site_hse06_magmom
 _atom_site_pbe_bader_spin_density
 _atom_site_pbe_cm5_charge
 _atom_site_pbe_ddec_charge
 _atom_site_pbe_ddec_spin_density
 _atom_site_pbe_ddec_sum_bond_order
 _atom_site_pbe_magmom
La  La0  1  0.75128262  0.51619502  0.47688357  1  0  2.076298  0  1.742212  0  0  1.949227  0  2.24663  0  0  2.052098  0  2.150535  0  0  1.382086  1.872501  0  2.313115  0
La  La1  1  0.24872809  0.48381781  0.52311914  1  0  2.076366  0  1.742215  0  0  1.949248  0  2.246622  0  0  2.05211  0  2.150539  0  0  1.382169  1.872521  0  2.313121  0
H  H2  1  0.49027132  0.59309767  0.31152012  1  0  0.436131  0  0.867238  0  0  0.404099  0  0.932323  0  0  0.41569  0  0.915683  0  0  0.30199  0.395813  0  0.944199  0
H  H3  1  0.50972190  0.40690416  0.68847982  1  0  0.435979  0  0.867471  0  0  0.403969  0  0.932521  0  0  0.415559  0  0.915886  0  0  0.301948  0.395683  0  0.944397  0
H  H4  1  0.67990893  0.70006489  0.32215998  1  0  0.42417  0  0.829164  0  0  0.41011  0  0.878819  0  0  0.41849  0  0.866775  0  0  0.32651  0.403995  0  0.885909  0
H  H5  1  0.32007526  0.29993700  0.67783458  1  0  0.424105  0  0.829219  0  0  0.410035  0  0.878915  0  0  0.418424  0  0.86686  0  0  0.326468  0.403917  0  0.885978  0
H  H6  1  0.97249411  0.80699485  0.52597077  1  0  0.425293  0  0.862855  0  0  0.403486  0  0.910912  0  0  0.413862  0  0.895607  0  0  0.307267  0.395967  0  0.922037  0
H  H7  1  0.02751040  0.19301267  0.47402845  1  0  0.425294  0  0.862864  0  0  0.403445  0  0.91099  0  0  0.413825  0  0.895681  0  0  0.307221  0.395924  0  0.92212  0
H  H8  1  0.08395456  0.74557519  0.46020062  1  0  0.42646  0  0.881456  0  0  0.396049  0  0.94446  0  0  0.407979  0  0.927312  0  0  0.292725  0.3875  0  0.956739  0
H  H9  1  0.91604554  0.25443097  0.53980181  1  0  0.426446  0  0.881491  0  0  0.396036  0  0.944491  0  0  0.407967  0  0.927342  0  0  0.292719  0.387488  0  0.956768  0
H  H10  1  0.89603244  0.29873102  0.10018206  1  0  0.121168  0  0.941276  0  0  0.133043  0  1.006372  0  0  0.133779  0  1.008761  0  0  0.10663  0.132306  0  1.005258  0
H  H11  1  0.10401996  0.70128939  0.89983905  1  0  0.121174  0  0.941122  0  0  0.132866  0  1.0064  0  0  0.133595  0  1.008769  0  0  0.106485  0.132124  0  1.005304  0
H  H12  1  0.93050873  0.20343945  0.20137028  1  0  0.127847  0  0.958401  0  0  0.137282  0  1.023909  0  0  0.140175  0  1.022778  0  0  0.106277  0.135163  0  1.024884  0
H  H13  1  0.06953249  0.79659747  0.79865623  1  0  0.127869  0  0.958371  0  0  0.137243  0  1.023847  0  0  0.140128  0  1.022715  0  0  0.106187  0.13512  0  1.024837  0
H  H14  1  0.68951411  0.98589535  0.18927570  1  0  0.082669  0  0.946051  0  0  0.095198  0  1.002488  0  0  0.098437  0  1.000966  0  0  0.094121  0.092816  0  1.003758  0
H  H15  1  0.31054649  0.01413233  0.81075334  1  0  0.082708  0  0.946114  0  0  0.095238  0  1.002536  0  0  0.098484  0  1.001001  0  0  0.094107  0.092802  0  1.003867  0
H  H16  1  0.97727063  0.12817062  0.84714149  1  0  0.073985  0  0.983602  0  0  0.083535  0  1.052107  0  0  0.08594  0  1.050847  0  0  0.090275  0.081784  0  1.053176  0
H  H17  1  0.02274631  0.87181470  0.15285916  1  0  0.073944  0  0.983585  0  0  0.083554  0  1.052031  0  0  0.08596  0  1.050768  0  0  0.090285  0.081797  0  1.0531  0
H  H18  1  0.60023067  0.21664007  0.94269468  1  0  0.074963  0  0.990754  0  0  0.085508  0  1.05669  0  0  0.087516  0  1.056168  0  0  0.091015  0.08411  0  1.057054  0
H  H19  1  0.39982705  0.78338650  0.05733350  1  0  0.075133  0  0.990718  0  0  0.085655  0  1.056685  0  0  0.087668  0  1.056152  0  0  0.090986  0.084258  0  1.057047  0
H  H20  1  0.68578572  0.94758745  0.72196981  1  0  0.113711  0  0.915365  0  0  0.12923  0  0.972314  0  0  0.131356  0  0.971107  0  0  0.105594  0.127892  0  0.972999  0
H  H21  1  0.31422064  0.05242192  0.27803559  1  0  0.113792  0  0.91553  0  0  0.12924  0  0.972487  0  0  0.131352  0  0.97128  0  0  0.105647  0.1279  0  0.973176  0
H  H22  1  0.57701644  0.81916284  0.78441966  1  0  0.136416  0  0.955179  0  0  0.145363  0  1.020281  0  0  0.148565  0  1.018943  0  0  0.111031  0.143092  0  1.021346  0
H  H23  1  0.42298194  0.18083083  0.21557574  1  0  0.136284  0  0.955293  0  0  0.145196  0  1.020385  0  0  0.148388  0  1.019042  0  0  0.111004  0.142931  0  1.021437  0
H  H24  1  0.76561152  0.76061043  0.95257962  1  0  0.096051  0  0.934351  0  0  0.111144  0  0.986079  0  0  0.113927  0  0.985262  0  0  0.103824  0.109252  0  0.986613  0
H  H25  1  0.23440333  0.23937999  0.04742455  1  0  0.096052  0  0.934287  0  0  0.111097  0  0.986075  0  0  0.11388  0  0.985257  0  0  0.10382  0.109208  0  0.986607  0
H  H26  1  0.12842160  0.37788912  0.86902344  1  0  0.097428  0  0.940104  0  0  0.112505  0  0.992457  0  0  0.115434  0  0.991331  0  0  0.10696  0.110586  0  0.993041  0
H  H27  1  0.87153195  0.62209142  0.13095597  1  0  0.09745  0  0.940005  0  0  0.11243  0  0.992492  0  0  0.115357  0  0.991371  0  0  0.106831  0.110511  0  0.993075  0
H  H28  1  0.68744677  0.43533979  0.91659397  1  0  0.094068  0  0.944821  0  0  0.107687  0  1.00042  0  0  0.111157  0  0.997528  0  0  0.104108  0.105172  0  1.002637  0
H  H29  1  0.31250395  0.56464037  0.08339098  1  0  0.094087  0  0.944924  0  0  0.107655  0  1.000571  0  0  0.111118  0  0.997693  0  0  0.104106  0.105146  0  1.002787  0
H  H30  1  0.65894105  0.20435028  0.75129825  1  0  0.116179  0  0.917177  0  0  0.132851  0  0.973653  0  0  0.134968  0  0.972556  0  0  0.109398  0.13146  0  0.97434  0
H  H31  1  0.34099534  0.79565516  0.24868655  1  0  0.116105  0  0.917198  0  0  0.132891  0  0.973531  0  0  0.134988  0  0.972454  0  0  0.109548  0.131489  0  0.974231  0
H  H32  1  0.84559872  0.21017387  0.71622072  1  0  0.11144  0  0.94005  0  0  0.125713  0  1.000792  0  0  0.128656  0  0.997915  0  0  0.104543  0.12355  0  1.002962  0
H  H33  1  0.15430275  0.78976674  0.28376026  1  0  0.111271  0  0.940002  0  0  0.125531  0  1.000828  0  0  0.128495  0  0.997919  0  0  0.104446  0.123372  0  1.002985  0
C  C34  1  0.70370541  0.75449225  0.65905904  1  0  0.741897  0  3.79904  0  0  0.701676  0  4.094  0  0  0.736933  0  4.086858  0  0  0.228757  0.677541  0  4.097724  0
C  C35  1  0.29629225  0.24550317  0.34092333  1  0  0.74197  0  3.800107  0  0  0.701896  0  4.094716  0  0  0.737139  0  4.087563  0  0  0.228686  0.677761  0  4.098452  0
C  C36  1  0.82342032  0.34321278  0.26521466  1  0  0.733405  0  3.800275  0  0  0.692366  0  4.099019  0  0  0.727091  0  4.093622  0  0  0.221734  0.668361  0  4.101717  0
C  C37  1  0.17660909  0.65679755  0.73478414  1  0  0.733203  0  3.799176  0  0  0.691937  0  4.09823  0  0  0.726648  0  4.092847  0  0  0.221576  0.667943  0  4.100907  0
C  C38  1  0.73839612  0.33517635  0.64169821  1  0  0.709694  0  3.82059  0  0  0.665138  0  4.118127  0  0  0.698176  0  4.113546  0  0  0.215851  0.642628  0  4.120286  0
C  C39  1  0.26156825  0.66481101  0.35827889  1  0  0.710134  0  3.820648  0  0  0.665342  0  4.11846  0  0  0.698377  0  4.113857  0  0  0.215794  0.642832  0  4.120635  0
C  C40  1  0.66540060  0.11475646  0.07406196  1  0  0.126449  0  3.758987  0  0  0.145627  0  3.993275  0  0  0.146796  0  4.017263  0  0  -0.010846  0.144804  0  3.977078  0
C  C41  1  0.33466486  0.88526002  0.92595906  1  0  0.126313  0  3.759547  0  0  0.145864  0  3.993225  0  0  0.147029  0  4.017197  0  0  -0.010895  0.145034  0  3.977044  0
C  C42  1  0.83764660  0.23844452  0.15758244  1  0  -0.322288  0  3.690022  0  0  -0.362837  0  3.924808  0  0  -0.368704  0  3.931282  0  0  -0.157264  -0.358726  0  3.920671  0
C  C43  1  0.16241065  0.76161244  0.84245680  1  0  -0.322188  0  3.689162  0  0  -0.362473  0  3.92356  0  0  -0.368346  0  3.930137  0  0  -0.157039  -0.358347  0  3.91936  0
C  C44  1  0.60602668  0.99241147  0.10623295  1  0  -0.122228  0  3.767232  0  0  -0.14128  0  4.01561  0  0  -0.144542  0  4.037546  0  0  -0.094942  -0.138981  0  4.000736  0
C  C45  1  0.39402367  0.00759769  0.89377783  1  0  -0.122368  0  3.767819  0  0  -0.141586  0  4.016086  0  0  -0.144853  0  4.038019  0  0  -0.095039  -0.139239  0  4.001226  0
C  C46  1  0.85294700  0.93700177  0.88574315  1  0  0.122284  0  3.756823  0  0  0.141598  0  3.992456  0  0  0.142338  0  4.017015  0  0  -0.01015  0.141064  0  3.975852  0
C  C47  1  0.14706425  0.06298073  0.11424765  1  0  0.122205  0  3.75571  0  0  0.141365  0  3.99149  0  0  0.142083  0  4.016044  0  0  -0.010089  0.140842  0  3.974885  0
C  C48  1  0.98688292  0.07143987  0.91425522  1  0  -0.121917  0  3.766364  0  0  -0.143863  0  4.02026  0  0  -0.146425  0  4.042417  0  0  -0.096796  -0.142092  0  4.005548  0
C  C49  1  0.01308695  0.92853449  0.08572775  1  0  -0.121955  0  3.766169  0  0  -0.143892  0  4.020117  0  0  -0.146453  0  4.04228  0  0  -0.096848  -0.142115  0  4.005389  0
C  C50  1  0.55675993  0.12060290  0.96690503  1  0  -0.1172  0  3.758637  0  0  -0.137415  0  4.008125  0  0  -0.139527  0  4.029543  0  0  -0.096585  -0.135991  0  3.993588  0
C  C51  1  0.44328784  0.87939893  0.03310161  1  0  -0.117613  0  3.75884  0  0  -0.138005  0  4.008292  0  0  -0.140118  0  4.029697  0  0  -0.096753  -0.136585  0  3.993789  0
C  C52  1  0.69631113  0.86766649  0.76393205  1  0  -0.320112  0  3.687728  0  0  -0.362396  0  3.925643  0  0  -0.368073  0  3.931259  0  0  -0.155414  -0.358573  0  3.921805  0
C  C53  1  0.30371044  0.13235016  0.23610402  1  0  -0.319882  0  3.68789  0  0  -0.362026  0  3.925638  0  0  -0.367644  0  3.931182  0  0  -0.155299  -0.358212  0  3.921825  0
C  C54  1  0.86813632  0.86599384  0.97324197  1  0  -0.114521  0  3.741576  0  0  -0.134872  0  3.991224  0  0  -0.137677  0  4.013053  0  0  -0.090778  -0.132817  0  3.976345  0
C  C55  1  0.13186535  0.13397840  0.02673631  1  0  -0.114703  0  3.74126  0  0  -0.134959  0  3.990939  0  0  -0.137764  0  4.01278  0  0  -0.090964  -0.132902  0  3.976046  0
C  C56  1  0.89383646  0.39093875  0.87802804  1  0  0.109681  0  3.756106  0  0  0.128291  0  3.997293  0  0  0.128772  0  4.021549  0  0  -0.011785  0.128049  0  3.981178  0
C  C57  1  0.10611641  0.60904562  0.12195929  1  0  0.109508  0  3.754959  0  0  0.128046  0  3.996285  0  0  0.128523  0  4.020532  0  0  -0.011857  0.127807  0  3.98017  0
C  C58  1  0.07096205  0.43031039  0.92672352  1  0  -0.117528  0  3.744763  0  0  -0.137593  0  3.994848  0  0  -0.140564  0  4.016298  0  0  -0.088345  -0.13541  0  3.980312  0
C  C59  1  0.92897818  0.56966395  0.07324540  1  0  -0.117476  0  3.744722  0  0  -0.137445  0  3.994852  0  0  -0.140417  0  4.01631  0  0  -0.087988  -0.135259  0  3.980307  0
C  C60  1  0.82458114  0.46274067  0.95271933  1  0  -0.110582  0  3.748416  0  0  -0.132729  0  4.002459  0  0  -0.133653  0  4.020949  0  0  -0.089378  -0.132286  0  3.990081  0
C  C61  1  0.17536694  0.53723934  0.04724729  1  0  -0.110834  0  3.748239  0  0  -0.132901  0  4.002398  0  0  -0.13382  0  4.020884  0  0  -0.089336  -0.132464  0  3.990027  0
C  C62  1  0.78252879  0.27602429  0.74695606  1  0  -0.307509  0  3.695124  0  0  -0.352905  0  3.939474  0  0  -0.357566  0  3.945633  0  0  -0.154056  -0.349849  0  3.935362  0
C  C63  1  0.21744716  0.72396795  0.25307435  1  0  -0.307047  0  3.69434  0  0  -0.352483  0  3.938952  0  0  -0.357143  0  3.945102  0  0  -0.154022  -0.349414  0  3.934854  0
O  O64  1  0.56736851  0.63752428  0.59085976  1  0  -0.741974  0  2.042942  0  0  -0.691704  0  2.304382  0  0  -0.729938  0  2.29779  0  0  -0.39885  -0.663948  0  2.307324  0
O  O65  1  0.43260921  0.36247359  0.40912715  1  0  -0.742095  0  2.043088  0  0  -0.69189  0  2.304419  0  0  -0.730124  0  2.297832  0  0  -0.398907  -0.664137  0  2.307362  0
O  O66  1  0.95594896  0.42449140  0.36951202  1  0  -0.76879  0  2.038393  0  0  -0.719759  0  2.302463  0  0  -0.759241  0  2.29814  0  0  -0.411962  -0.690984  0  2.304071  0
O  O67  1  0.04404302  0.57552245  0.63050222  1  0  -0.768715  0  2.038109  0  0  -0.719618  0  2.302224  0  0  -0.759093  0  2.297903  0  0  -0.411876  -0.690849  0  2.303827  0
O  O68  1  0.74829035  0.28621018  0.53063682  1  0  -0.66015  0  1.959904  0  0  -0.605833  0  2.179877  0  0  -0.635747  0  2.17134  0  0  -0.335988  -0.584632  0  2.185063  0
O  O69  1  0.25170959  0.71377023  0.46934759  1  0  -0.660268  0  1.959863  0  0  -0.605915  0  2.179965  0  0  -0.635831  0  2.171427  0  0  -0.336001  -0.584716  0  2.185167  0
O  O70  1  0.84525378  0.77518176  0.63905785  1  0  -0.695381  0  1.977413  0  0  -0.64612  0  2.211119  0  0  -0.676722  0  2.201294  0  0  -0.355115  -0.624144  0  2.21706  0
O  O71  1  0.15477409  0.22482683  0.36095263  1  0  -0.695399  0  1.977755  0  0  -0.646184  0  2.21137  0  0  -0.67679  0  2.201549  0  0  -0.355064  -0.624209  0  2.217312  0
O  O72  1  0.69415778  0.43562954  0.66695871  1  0  -0.681122  0  2.027199  0  0  -0.624986  0  2.26102  0  0  -0.656797  0  2.254697  0  0  -0.353275  -0.60245  0  2.264481  0
O  O73  1  0.30580684  0.56436861  0.33303625  1  0  -0.681508  0  2.027229  0  0  -0.625166  0  2.261012  0  0  -0.65697  0  2.254675  0  0  -0.353334  -0.602639  0  2.264503  0
O  O74  1  0.68262587  0.35196865  0.25321249  1  0  -0.646249  0  1.955467  0  0  -0.602047  0  2.192448  0  0  -0.633713  0  2.186171  0  0  -0.364007  -0.579403  0  2.195824  0
O  O75  1  0.31741155  0.64803820  0.74677554  1  0  -0.646178  0  1.955404  0  0  -0.601833  0  2.192427  0  0  -0.633492  0  2.186153  0  0  -0.363889  -0.579188  0  2.195787  0
O  O76  1  0.60672116  0.60245573  0.31086498  1  0  -0.852245  0  1.817622  0  0  -0.807465  0  1.992742  0  0  -0.831622  0  1.9614  0  0  -0.614125  -0.789976  0  2.012973  0
O  O77  1  0.39327357  0.39754704  0.68913816  1  0  -0.852055  0  1.817764  0  0  -0.807268  0  1.9929  0  0  -0.831435  0  1.961555  0  0  -0.614056  -0.789777  0  2.013097  0
O  O78  1  0.96688492  0.74378685  0.44502814  1  0  -0.877503  0  1.797336  0  0  -0.832544  0  1.956574  0  0  -0.85723  0  1.923813  0  0  -0.620937  -0.814771  0  1.979648  0
O  O79  1  0.03311423  0.25621943  0.55497146  1  0  -0.877498  0  1.797346  0  0  -0.832511  0  1.956585  0  0  -0.857201  0  1.923816  0  0  -0.620875  -0.814735  0  1.979652  0
