# generated using pymatgen
data_H14PbC17S(NO3)2
_symmetry_space_group_name_H-M   'P 1'
_cell_length_a   7.01007347
_cell_length_b   11.27380572
_cell_length_c   11.59805147
_cell_angle_alpha   98.81235225
_cell_angle_beta   97.40038484
_cell_angle_gamma   102.78789576
_symmetry_Int_Tables_number   1
_chemical_formula_structural   H14PbC17S(NO3)2
_chemical_formula_sum   'H28 Pb2 C34 S2 N4 O12'
_cell_volume   870.62780998
_cell_formula_units_Z   2
loop_
 _symmetry_equiv_pos_site_id
 _symmetry_equiv_pos_as_xyz
  1  'x, y, z'
loop_
 _atom_site_type_symbol
 _atom_site_label
 _atom_site_symmetry_multiplicity
 _atom_site_fract_x
 _atom_site_fract_y
 _atom_site_fract_z
 _atom_site_occupancy
 _atom_site_hle17_bader_spin_density
 _atom_site_hle17_ddec_charge
 _atom_site_hle17_ddec_spin_density
 _atom_site_hle17_ddec_sum_bond_order
 _atom_site_hle17_magmom
 _atom_site_hse06_10hf_bader_spin_density
 _atom_site_hse06_10hf_ddec_charge
 _atom_site_hse06_10hf_ddec_spin_density
 _atom_site_hse06_10hf_ddec_sum_bond_order
 _atom_site_hse06_10hf_magmom
 _atom_site_hse06_bader_spin_density
 _atom_site_hse06_ddec_charge
 _atom_site_hse06_ddec_spin_density
 _atom_site_hse06_ddec_sum_bond_order
 _atom_site_hse06_magmom
 _atom_site_pbe_bader_spin_density
 _atom_site_pbe_cm5_charge
 _atom_site_pbe_ddec_charge
 _atom_site_pbe_ddec_spin_density
 _atom_site_pbe_ddec_sum_bond_order
 _atom_site_pbe_magmom
H  H0  1  0.72912689  0.84464711  0.35531027  1  0  0.109079  0  0.96385  0  0  0.116257  0  1.031291  0  0  0.120386  0  1.027594  0  0  0.107888  0.113215  0  1.034093  0
H  H1  1  0.27087578  0.15535395  0.64469410  1  0  0.109094  0  0.963805  0  0  0.116274  0  1.031244  0  0  0.120395  0  1.027551  0  0  0.107916  0.113225  0  1.034062  0
H  H2  1  0.16447490  0.62709907  0.37047575  1  0  0.112977  0  0.942957  0  0  0.122721  0  1.003762  0  0  0.126012  0  1.00187  0  0  0.112619  0.120307  0  1.005248  0
H  H3  1  0.83553464  0.37290846  0.62952407  1  0  0.112878  0  0.943142  0  0  0.122699  0  1.003852  0  0  0.125992  0  1.00196  0  0  0.112621  0.120287  0  1.005336  0
H  H4  1  0.42775949  0.81440276  0.37346573  1  0  0.10285  0  0.9659  0  0  0.111945  0  1.027231  0  0  0.115486  0  1.02468  0  0  0.104332  0.109311  0  1.029323  0
H  H5  1  0.57224355  0.18560662  0.62653641  1  0  0.102817  0  0.965868  0  0  0.1119  0  1.027193  0  0  0.115467  0  1.024609  0  0  0.104351  0.109268  0  1.029278  0
H  H6  1  0.34436969  0.01640223  0.36261925  1  0  0.104933  0  0.951978  0  0  0.115078  0  1.014116  0  0  0.118993  0  1.01047  0  0  0.107994  0.112229  0  1.016793  0
H  H7  1  0.65562975  0.98360528  0.63738233  1  0  0.105059  0  0.951905  0  0  0.115169  0  1.014059  0  0  0.119082  0  1.010414  0  0  0.108031  0.112318  0  1.016741  0
H  H8  1  0.39166012  0.12498147  0.21834697  1  0  0.08285  0  0.961667  0  0  0.09272  0  1.025998  0  0  0.094594  0  1.023972  0  0  0.121621  0.091266  0  1.027598  0
H  H9  1  0.60834289  0.87502053  0.78165928  1  0  0.082887  0  0.961641  0  0  0.092731  0  1.026009  0  0  0.094607  0  1.023979  0  0  0.121621  0.091278  0  1.027606  0
H  H10  1  0.16072465  0.04190104  0.02736146  1  0  0.097937  0  0.948812  0  0  0.111654  0  1.002291  0  0  0.11474  0  1.001332  0  0  0.107358  0.10941  0  1.003149  0
H  H11  1  0.83927511  0.95810003  0.97264612  1  0  0.097961  0  0.948818  0  0  0.111675  0  1.002284  0  0  0.114768  0  1.001315  0  0  0.107379  0.109432  0  1.003142  0
H  H12  1  0.28382859  0.08764486  0.83869319  1  0  0.099474  0  0.974286  0  0  0.109297  0  1.035427  0  0  0.111467  0  1.034077  0  0  0.106657  0.107672  0  1.03642  0
H  H13  1  0.71616288  0.91236081  0.16131438  1  0  0.099434  0  0.974346  0  0  0.109237  0  1.03551  0  0  0.111404  0  1.03417  0  0  0.106649  0.107612  0  1.036504  0
H  H14  1  0.62533578  0.21273217  0.85221665  1  0  0.104662  0  0.973642  0  0  0.11654  0  1.03293  0  0  0.11887  0  1.03325  0  0  0.107573  0.114855  0  1.032904  0
H  H15  1  0.37465609  0.78727070  0.14778623  1  0  0.104636  0  0.973659  0  0  0.116537  0  1.032926  0  0  0.118868  0  1.033244  0  0  0.107536  0.114848  0  1.032907  0
H  H16  1  0.90771978  0.30804785  0.86984438  1  0  0.100255  0  0.981329  0  0  0.110949  0  1.042688  0  0  0.112783  0  1.044062  0  0  0.103163  0.109604  0  1.041931  0
H  H17  1  0.09226637  0.69194389  0.13015299  1  0  0.100299  0  0.98122  0  0  0.110988  0  1.042607  0  0  0.112823  0  1.043978  0  0  0.103196  0.109642  0  1.041851  0
H  H18  1  0.25660292  0.42358318  0.90259859  1  0  0.101121  0  0.971926  0  0  0.111309  0  1.032291  0  0  0.114344  0  1.029708  0  0  0.103923  0.10905  0  1.034215  0
H  H19  1  0.74338477  0.57640111  0.09738750  1  0  0.101053  0  0.9721  0  0  0.111233  0  1.032466  0  0  0.114266  0  1.029883  0  0  0.103877  0.10898  0  1.034386  0
H  H20  1  0.45338825  0.48030197  0.11342136  1  0  0.109794  0  0.967515  0  0  0.118676  0  1.02871  0  0  0.121909  0  1.027512  0  0  0.106621  0.116327  0  1.029711  0
H  H21  1  0.54660739  0.51969158  0.88656153  1  0  0.109927  0  0.967352  0  0  0.11869  0  1.028696  0  0  0.1219  0  1.02756  0  0  0.10664  0.116375  0  1.029656  0
H  H22  1  0.27982078  0.42052417  0.27642205  1  0  0.095856  0  0.932277  0  0  0.102258  0  0.998594  0  0  0.105176  0  0.995475  0  0  0.122419  0.100021  0  1.001055  0
H  H23  1  0.72018595  0.57948330  0.72356891  1  0  0.095904  0  0.932141  0  0  0.102244  0  0.998558  0  0  0.105162  0  0.995438  0  0  0.122396  0.100004  0  1.001019  0
H  H24  1  0.48678720  0.31893947  0.48488543  1  0  0.420122  0  0.883592  0  0  0.391659  0  0.944267  0  0  0.401439  0  0.92999  0  0  0.287873  0.38473  0  0.954369  0
H  H25  1  0.51321768  0.68105972  0.51511282  1  0  0.420112  0  0.8836  0  0  0.39164  0  0.944292  0  0  0.401422  0  0.930011  0  0  0.287845  0.38471  0  0.954393  0
H  H26  1  0.34561427  0.22473461  0.37796319  1  0  0.427732  0  0.880166  0  0  0.393816  0  0.949948  0  0  0.405288  0  0.933009  0  0  0.283721  0.385675  0  0.961945  0
H  H27  1  0.65438844  0.77526643  0.62203601  1  0  0.427719  0  0.88019  0  0  0.393797  0  0.949982  0  0  0.405269  0  0.933042  0  0  0.283683  0.385655  0  0.96198  0
Pb  Pb28  1  0.83816911  0.29847490  0.34659170  1  0  1.277057  0  1.481993  0  0  1.087677  0  1.885427  0  0  1.141589  0  1.847927  0  0  0.624904  1.048916  0  1.911651  0
Pb  Pb29  1  0.16183395  0.70152707  0.65340852  1  0  1.277068  0  1.482031  0  0  1.087662  0  1.885478  0  0  1.141576  0  1.847977  0  0  0.624897  1.048899  0  1.911702  0
C  C30  1  0.97104272  0.06062123  0.34162161  1  0  0.625469  0  3.946124  0  0  0.576059  0  4.236753  0  0  0.609841  0  4.231913  0  0  0.201417  0.553264  0  4.239004  0
C  C31  1  0.02895818  0.93938258  0.65837784  1  0  0.625489  0  3.946182  0  0  0.576109  0  4.236765  0  0  0.609891  0  4.231925  0  0  0.201464  0.553313  0  4.239013  0
C  C32  1  0.02954813  0.94193552  0.35326440  1  0  -0.060133  0  3.744752  0  0  -0.035981  0  3.982713  0  0  -0.044517  0  4.0053  0  0  -0.018739  -0.03066  0  3.967597  0
C  C33  1  0.97045600  0.05806924  0.64673717  1  0  -0.060167  0  3.744792  0  0  -0.036013  0  3.982716  0  0  -0.044548  0  4.005298  0  0  -0.01876  -0.030692  0  3.967599  0
C  C34  1  0.88128565  0.83685897  0.35678058  1  0  -0.068322  0  3.724898  0  0  -0.10695  0  3.97668  0  0  -0.104319  0  3.995274  0  0  -0.08081  -0.108402  0  3.964181  0
C  C35  1  0.11871483  0.16314395  0.64322646  1  0  -0.068284  0  3.725041  0  0  -0.106914  0  3.976844  0  0  -0.104276  0  3.995432  0  0  -0.080795  -0.108369  0  3.964337  0
C  C36  1  0.92945339  0.72467644  0.36346021  1  0  -0.135044  0  3.769116  0  0  -0.104255  0  4.012228  0  0  -0.112368  0  4.0352  0  0  -0.02208  -0.099129  0  3.996865  0
C  C37  1  0.07055071  0.27532833  0.63654480  1  0  -0.13508  0  3.769129  0  0  -0.104322  0  4.012316  0  0  -0.112433  0  4.035289  0  0  -0.022145  -0.099189  0  3.996939  0
C  C38  1  0.12636122  0.71535984  0.36681578  1  0  -0.092938  0  3.763281  0  0  -0.112131  0  4.007133  0  0  -0.11127  0  4.026863  0  0  -0.080493  -0.112351  0  3.993733  0
C  C39  1  0.87364364  0.28464676  0.63318525  1  0  -0.092993  0  3.763275  0  0  -0.112259  0  4.007158  0  0  -0.111401  0  4.026888  0  0  -0.080545  -0.112481  0  3.993757  0
C  C40  1  0.27448984  0.82107128  0.36669787  1  0  -0.062689  0  3.746274  0  0  -0.075398  0  4.00113  0  0  -0.078351  0  4.019502  0  0  -0.082926  -0.073559  0  3.988769  0
C  C41  1  0.72551571  0.17893718  0.63330521  1  0  -0.062521  0  3.746088  0  0  -0.075199  0  4.000903  0  0  -0.07817  0  4.01927  0  0  -0.082899  -0.073363  0  3.988543  0
C  C42  1  0.22709926  0.93401754  0.36022112  1  0  -0.048449  0  3.684159  0  0  -0.076977  0  3.933383  0  0  -0.073956  0  3.949864  0  0  -0.074343  -0.078693  0  3.922126  0
C  C43  1  0.77289981  0.06598905  0.63978116  1  0  -0.048586  0  3.684103  0  0  -0.077081  0  3.933305  0  0  -0.07406  0  3.949793  0  0  -0.074362  -0.078801  0  3.922058  0
C  C44  1  0.43897472  0.14247737  0.13550400  1  0  0.140657  0  3.707909  0  0  0.108279  0  3.961125  0  0  0.115787  0  3.980011  0  0  0.058375  0.103409  0  3.948235  0
C  C45  1  0.56102936  0.85752741  0.86450360  1  0  0.140756  0  3.708016  0  0  0.108386  0  3.96119  0  0  0.115896  0  3.980079  0  0  0.058429  0.103516  0  3.948295  0
C  C46  1  0.30992152  0.09687484  0.02834114  1  0  -0.113885  0  3.731901  0  0  -0.129029  0  3.986848  0  0  -0.135954  0  4.008226  0  0  -0.080747  -0.124548  0  3.972427  0
C  C47  1  0.69007284  0.90312715  0.97166613  1  0  -0.113976  0  3.732174  0  0  -0.129105  0  3.987105  0  0  -0.136036  0  4.008485  0  0  -0.080807  -0.124625  0  3.972684  0
C  C48  1  0.37736336  0.12285591  0.92498952  1  0  0.005447  0  3.716626  0  0  -0.012376  0  3.964429  0  0  -0.008552  0  3.983337  0  0  -0.063645  -0.014554  0  3.951398  0
C  C49  1  0.62263102  0.87714975  0.07501397  1  0  0.005464  0  3.716904  0  0  -0.012354  0  3.964715  0  0  -0.008538  0  3.983639  0  0  -0.063638  -0.014533  0  3.951685  0
C  C50  1  0.57066796  0.19265556  0.93257006  1  0  -0.145031  0  3.693855  0  0  -0.160877  0  3.934404  0  0  -0.168749  0  3.95642  0  0  -0.078179  -0.155757  0  3.919631  0
C  C51  1  0.42932535  0.80734733  0.06743381  1  0  -0.145005  0  3.693761  0  0  -0.160856  0  3.934306  0  0  -0.168737  0  3.956311  0  0  -0.078138  -0.155736  0  3.919536  0
C  C52  1  0.69378874  0.23418943  0.04330943  1  0  0.179495  0  3.757668  0  0  0.174781  0  3.998084  0  0  0.182503  0  4.017784  0  0  0.126934  0.16959  0  3.984697  0
C  C53  1  0.30620493  0.76581437  0.95669288  1  0  0.179521  0  3.757563  0  0  0.174769  0  3.998034  0  0  0.182523  0  4.017692  0  0  0.126974  0.169579  0  3.984641  0
C  C54  1  0.90395470  0.30366847  0.05642931  1  0  0.174362  0  3.766424  0  0  0.16913  0  4.008542  0  0  0.175859  0  4.028082  0  0  0.124207  0.164665  0  3.995185  0
C  C55  1  0.09604116  0.69632978  0.94357065  1  0  0.174406  0  3.766507  0  0  0.169182  0  4.008668  0  0  0.1759  0  4.028205  0  0  0.12422  0.164717  0  3.995309  0
C  C56  1  0.99187662  0.33360234  0.95938772  1  0  -0.141445  0  3.70239  0  0  -0.158816  0  3.947107  0  0  -0.165994  0  3.969983  0  0  -0.081915  -0.154171  0  3.931722  0
C  C57  1  0.00811820  0.66638942  0.04060692  1  0  -0.14148  0  3.702658  0  0  -0.158925  0  3.947493  0  0  -0.1661  0  3.97037  0  0  -0.081957  -0.15428  0  3.932111  0
C  C58  1  0.19034165  0.39838107  0.97817464  1  0  -0.008723  0  3.724757  0  0  -0.027212  0  3.974447  0  0  -0.024693  0  3.994055  0  0  -0.069575  -0.028526  0  3.960962  0
C  C59  1  0.80964674  0.60160878  0.02181403  1  0  -0.008581  0  3.725162  0  0  -0.027024  0  3.974779  0  0  -0.024501  0  3.994386  0  0  -0.069485  -0.028344  0  3.961309  0
C  C60  1  0.29752192  0.43096981  0.09295887  1  0  -0.106822  0  3.700185  0  0  -0.120839  0  3.951448  0  0  -0.12746  0  3.973241  0  0  -0.080124  -0.116523  0  3.936801  0
C  C61  1  0.70247765  0.56902284  0.90702766  1  0  -0.107009  0  3.700412  0  0  -0.120929  0  3.951709  0  0  -0.127556  0  3.973492  0  0  -0.080154  -0.116642  0  3.937044  0
C  C62  1  0.20091467  0.39762190  0.18528411  1  0  0.143046  0  3.682577  0  0  0.112585  0  3.936522  0  0  0.119362  0  3.95434  0  0  0.059857  0.108193  0  3.92438  0
C  C63  1  0.79908701  0.60238003  0.81470823  1  0  0.143133  0  3.682368  0  0  0.112683  0  3.936316  0  0  0.119465  0  3.954126  0  0  0.059883  0.108291  0  3.924181  0
S  S64  1  0.74149486  0.59136156  0.37203894  1  0  1.292027  0  5.6615  0  0  1.193575  0  6.174866  0  0  1.242525  0  6.151663  0  0  0.512396  1.159766  0  6.18976  0
S  S65  1  0.25851179  0.40863858  0.62796304  1  0  1.292103  0  5.661545  0  0  1.19366  0  6.174885  0  0  1.242606  0  6.151679  0  0  0.51246  1.159849  0  6.189777  0
N  N66  1  0.62526803  0.20897290  0.14292656  1  0  -0.343377  0  3.193707  0  0  -0.270884  0  3.438103  0  0  -0.2905  0  3.458727  0  0  -0.28611  -0.257418  0  3.423834  0
N  N67  1  0.37473644  0.79102909  0.85707723  1  0  -0.343482  0  3.193804  0  0  -0.270936  0  3.438168  0  0  -0.290562  0  3.458779  0  0  -0.286174  -0.257473  0  3.423908  0
N  N68  1  0.00957186  0.33632360  0.16715045  1  0  -0.355197  0  3.216899  0  0  -0.285373  0  3.462947  0  0  -0.304099  0  3.483552  0  0  -0.292909  -0.272461  0  3.448612  0
N  N69  1  0.99043339  0.66368021  0.83284677  1  0  -0.355341  0  3.216623  0  0  -0.285447  0  3.462634  0  0  -0.304175  0  3.48324  0  0  -0.292949  -0.272534  0  3.448298  0
O  O70  1  0.10385427  0.15535588  0.33302192  1  0  -0.666496  0  2.016269  0  0  -0.600878  0  2.246045  0  0  -0.629751  0  2.239018  0  0  -0.309632  -0.58053  0  2.250158  0
O  O71  1  0.89614268  0.84464514  0.66697594  1  0  -0.666519  0  2.016191  0  0  -0.600916  0  2.24598  0  0  -0.629792  0  2.238954  0  0  -0.309627  -0.580567  0  2.250093  0
O  O72  1  0.78881744  0.06121817  0.33808214  1  0  -0.632386  0  1.927362  0  0  -0.571099  0  2.152139  0  0  -0.599759  0  2.14748  0  0  -0.30853  -0.550967  0  2.154566  0
O  O73  1  0.21117771  0.93878561  0.66191511  1  0  -0.632361  0  1.92746  0  0  -0.571113  0  2.152271  0  0  -0.599772  0  2.147608  0  0  -0.308571  -0.55098  0  2.154698  0
O  O74  1  0.80599973  0.55399833  0.48397817  1  0  -0.706684  0  1.975073  0  0  -0.647288  0  2.227737  0  0  -0.672535  0  2.217392  0  0  -0.329089  -0.629354  0  2.234293  0
O  O75  1  0.19401232  0.44600090  0.51602411  1  0  -0.706601  0  1.975067  0  0  -0.647205  0  2.227725  0  0  -0.672459  0  2.217404  0  0  -0.329046  -0.629272  0  2.234282  0
O  O76  1  0.55417728  0.62989910  0.36749474  1  0  -0.657499  0  1.969822  0  0  -0.60071  0  2.211242  0  0  -0.621728  0  2.196677  0  0  -0.332516  -0.585794  0  2.220764  0
O  O77  1  0.44582684  0.37010196  0.63250802  1  0  -0.657567  0  1.96983  0  0  -0.600809  0  2.211275  0  0  -0.621824  0  2.196707  0  0  -0.33257  -0.585895  0  2.220798  0
O  O78  1  0.74159592  0.49770139  0.26770306  1  0  -0.68535  0  1.980638  0  0  -0.630356  0  2.23748  0  0  -0.653568  0  2.225606  0  0  -0.330188  -0.613805  0  2.24503  0
O  O79  1  0.25841363  0.50230245  0.73229710  1  0  -0.685432  0  1.980658  0  0  -0.630406  0  2.237498  0  0  -0.653612  0  2.225625  0  0  -0.330257  -0.613858  0  2.245054  0
O  O80  1  0.48579473  0.27271846  0.40513421  1  0  -0.876741  0  1.82571  0  0  -0.819513  0  2.013891  0  0  -0.840795  0  1.983178  0  0  -0.589275  -0.804236  0  2.035332  0
O  O81  1  0.51420726  0.72728073  0.59486466  1  0  -0.876728  0  1.825689  0  0  -0.819479  0  2.013867  0  0  -0.840763  0  1.983153  0  0  -0.589217  -0.8042  0  2.035308  0
