# generated using pymatgen
data_H8Pb2C12S2Cl2O9
_symmetry_space_group_name_H-M   'P 1'
_cell_length_a   7.21404421
_cell_length_b   10.56688222
_cell_length_c   12.45362493
_cell_angle_alpha   92.90623074
_cell_angle_beta   90.21248636
_cell_angle_gamma   110.18330812
_symmetry_Int_Tables_number   1
_chemical_formula_structural   H8Pb2C12S2Cl2O9
_chemical_formula_sum   'H16 Pb4 C24 S4 Cl4 O18'
_cell_volume   889.67007558
_cell_formula_units_Z   2
loop_
 _symmetry_equiv_pos_site_id
 _symmetry_equiv_pos_as_xyz
  1  'x, y, z'
loop_
 _atom_site_type_symbol
 _atom_site_label
 _atom_site_symmetry_multiplicity
 _atom_site_fract_x
 _atom_site_fract_y
 _atom_site_fract_z
 _atom_site_occupancy
 _atom_site_hle17_bader_spin_density
 _atom_site_hle17_ddec_charge
 _atom_site_hle17_ddec_spin_density
 _atom_site_hle17_ddec_sum_bond_order
 _atom_site_hle17_magmom
 _atom_site_hse06_10hf_bader_spin_density
 _atom_site_hse06_10hf_ddec_charge
 _atom_site_hse06_10hf_ddec_spin_density
 _atom_site_hse06_10hf_ddec_sum_bond_order
 _atom_site_hse06_10hf_magmom
 _atom_site_hse06_bader_spin_density
 _atom_site_hse06_ddec_charge
 _atom_site_hse06_ddec_spin_density
 _atom_site_hse06_ddec_sum_bond_order
 _atom_site_hse06_magmom
 _atom_site_pbe_bader_spin_density
 _atom_site_pbe_cm5_charge
 _atom_site_pbe_ddec_charge
 _atom_site_pbe_ddec_spin_density
 _atom_site_pbe_ddec_sum_bond_order
 _atom_site_pbe_magmom
H  H0  1  0.10179219  0.39901723  0.21842917  1  0  0.434827  0  0.865402  0  0  0.403981  0  0.928157  0  0  0.414545  0  0.912858  0  0  0.29195  0.396506  0  0.938963  0
H  H1  1  0.89821502  0.60098905  0.78157133  1  0  0.434821  0  0.865414  0  0  0.404017  0  0.928122  0  0  0.414583  0  0.912817  0  0  0.291962  0.396541  0  0.93893  0
H  H2  1  0.01081085  0.51391090  0.22817338  1  0  0.401055  0  0.879023  0  0  0.374545  0  0.954424  0  0  0.381845  0  0.946644  0  0  0.292605  0.369327  0  0.959597  0
H  H3  1  0.98919173  0.48609435  0.77182384  1  0  0.401089  0  0.879044  0  0  0.374583  0  0.954435  0  0  0.381885  0  0.946606  0  0  0.292638  0.369364  0  0.95961  0
H  H4  1  0.00479393  0.24019117  0.66298391  1  0  0.126863  0  0.941576  0  0  0.136155  0  1.003097  0  0  0.139643  0  1.000694  0  0  0.108477  0.133639  0  1.00484  0
H  H5  1  0.99519060  0.75980600  0.33702493  1  0  0.126563  0  0.941835  0  0  0.135973  0  1.003231  0  0  0.139463  0  1.000825  0  0  0.108336  0.133455  0  1.004976  0
H  H6  1  0.41787025  0.59548809  0.53131029  1  0  0.101457  0  0.961074  0  0  0.110738  0  1.026078  0  0  0.113519  0  1.024003  0  0  0.099463  0.108727  0  1.02759  0
H  H7  1  0.58210731  0.40451710  0.46868998  1  0  0.101493  0  0.961052  0  0  0.110793  0  1.026044  0  0  0.113572  0  1.02397  0  0  0.099475  0.108781  0  1.027552  0
H  H8  1  0.58762430  0.66483718  0.70915473  1  0  0.114222  0  0.948992  0  0  0.121288  0  1.016011  0  0  0.125262  0  1.013616  0  0  0.101759  0.118478  0  1.017888  0
H  H9  1  0.41237218  0.33515596  0.29084520  1  0  0.114194  0  0.948945  0  0  0.121316  0  1.015903  0  0  0.125292  0  1.013507  0  0  0.101772  0.118502  0  1.01778  0
H  H10  1  0.09951068  0.90511354  0.61651060  1  0  0.10967  0  0.990729  0  0  0.110913  0  1.069011  0  0  0.114848  0  1.065587  0  0  0.093408  0.108027  0  1.071549  0
H  H11  1  0.90049837  0.09489069  0.38348341  1  0  0.109586  0  0.990743  0  0  0.110895  0  1.068935  0  0  0.114838  0  1.065507  0  0  0.093417  0.108009  0  1.071472  0
H  H12  1  0.61539301  0.25769134  0.57570404  1  0  0.107904  0  0.942286  0  0  0.119477  0  1.001931  0  0  0.122653  0  0.999127  0  0  0.104266  0.117181  0  1.003928  0
H  H13  1  0.38461445  0.74230990  0.42429707  1  0  0.107919  0  0.942196  0  0  0.119497  0  1.001843  0  0  0.122657  0  0.999067  0  0  0.104286  0.117205  0  1.003842  0
H  H14  1  0.71268694  0.25607675  0.76419059  1  0  0.09929  0  0.99834  0  0  0.110471  0  1.06203  0  0  0.112947  0  1.061471  0  0  0.101124  0.108745  0  1.062605  0
H  H15  1  0.28731526  0.74391942  0.23580548  1  0  0.099313  0  0.998332  0  0  0.110501  0  1.062026  0  0  0.11298  0  1.061462  0  0  0.10113  0.108773  0  1.062602  0
Pb  Pb16  1  0.32038344  0.59917338  0.04286209  1  0  1.450024  0  1.37115  0  0  1.281492  0  1.763841  0  0  1.336837  0  1.718583  0  0  0.672571  1.241077  0  1.795788  0
Pb  Pb17  1  0.67962353  0.40082684  0.95713738  1  0  1.450027  0  1.371154  0  0  1.28148  0  1.763838  0  0  1.336821  0  1.718597  0  0  0.672566  1.241064  0  1.795779  0
Pb  Pb18  1  0.29801492  0.06353501  0.06903366  1  0  1.427841  0  1.431606  0  0  1.256942  0  1.821374  0  0  1.307453  0  1.780868  0  0  0.679281  1.220229  0  1.849905  0
Pb  Pb19  1  0.70198705  0.93646619  0.93096180  1  0  1.427887  0  1.43161  0  0  1.257004  0  1.821385  0  0  1.307505  0  1.78087  0  0  0.67929  1.220292  0  1.849924  0
C  C20  1  0.22409234  0.37597864  0.77346140  1  0  -0.280232  0  3.76002  0  0  -0.248462  0  4.007438  0  0  -0.261566  0  4.028751  0  0  -0.044216  -0.239886  0  3.993171  0
C  C21  1  0.77591551  0.62402058  0.22653804  1  0  -0.280151  0  3.76005  0  0  -0.248471  0  4.007518  0  0  -0.261551  0  4.028795  0  0  -0.044265  -0.239905  0  3.993275  0
C  C22  1  0.13056946  0.33393739  0.67259020  1  0  -0.117923  0  3.779179  0  0  -0.151011  0  4.025898  0  0  -0.148585  0  4.045229  0  0  -0.097347  -0.152344  0  4.012819  0
C  C23  1  0.86941409  0.66605776  0.32741615  1  0  -0.117549  0  3.779384  0  0  -0.150653  0  4.02606  0  0  -0.14823  0  4.045382  0  0  -0.097054  -0.151987  0  4.012986  0
C  C24  1  0.20107453  0.41388381  0.58601868  1  0  0.103009  0  3.833327  0  0  0.114505  0  4.106201  0  0  0.113395  0  4.129336  0  0  -0.004196  0.114887  0  4.090746  0
C  C25  1  0.79890601  0.58611636  0.41398623  1  0  0.102934  0  3.833425  0  0  0.114352  0  4.106399  0  0  0.11324  0  4.129539  0  0  -0.00431  0.114736  0  4.090945  0
C  C26  1  0.36392958  0.53375613  0.59964148  1  0  -0.099872  0  3.774721  0  0  -0.127317  0  4.032306  0  0  -0.125284  0  4.051382  0  0  -0.094456  -0.128336  0  4.019257  0
C  C27  1  0.63605035  0.46624000  0.40036087  1  0  -0.100042  0  3.774519  0  0  -0.127527  0  4.032185  0  0  -0.125491  0  4.05126  0  0  -0.094459  -0.128546  0  4.019132  0
C  C28  1  0.45839881  0.57307009  0.69942316  1  0  -0.151699  0  3.691658  0  0  -0.169701  0  3.950842  0  0  -0.176056  0  3.968635  0  0  -0.100262  -0.165831  0  3.938987  0
C  C29  1  0.54160179  0.42693109  0.30056988  1  0  -0.151549  0  3.691475  0  0  -0.169603  0  3.950618  0  0  -0.175955  0  3.968403  0  0  -0.10027  -0.165746  0  3.938797  0
C  C30  1  0.39247551  0.49550421  0.78964527  1  0  0.348751  0  3.884552  0  0  0.325569  0  4.142227  0  0  0.341876  0  4.158475  0  0  0.076023  0.314599  0  4.130996  0
C  C31  1  0.60752312  0.50449599  0.21035495  1  0  0.348591  0  3.884877  0  0  0.325487  0  4.142461  0  0  0.341791  0  4.158704  0  0  0.07602  0.31452  0  4.131234  0
C  C32  1  0.28979511  0.98413672  0.75623526  1  0  -0.238049  0  3.72556  0  0  -0.211256  0  3.977081  0  0  -0.223575  0  3.997838  0  0  -0.037268  -0.203342  0  3.963155  0
C  C33  1  0.71020268  0.01586447  0.24376097  1  0  -0.238105  0  3.725626  0  0  -0.211299  0  3.977059  0  0  -0.223611  0  3.997818  0  0  -0.037217  -0.20338  0  3.963131  0
C  C34  1  0.23239662  0.98353521  0.64888787  1  0  -0.103367  0  3.752569  0  0  -0.138967  0  4.003663  0  0  -0.136014  0  4.021952  0  0  -0.095117  -0.140582  0  3.991095  0
C  C35  1  0.76761493  0.01646300  0.35110834  1  0  -0.103259  0  3.752415  0  0  -0.138952  0  4.00364  0  0  -0.135953  0  4.02181  0  0  -0.095201  -0.140571  0  3.991073  0
C  C36  1  0.34876907  0.08323851  0.58436849  1  0  0.117807  0  3.798807  0  0  0.130964  0  4.068942  0  0  0.129983  0  4.091746  0  0  0.001149  0.131318  0  4.053623  0
C  C37  1  0.65124854  0.91676072  0.41562699  1  0  0.117871  0  3.798726  0  0  0.131002  0  4.068899  0  0  0.130033  0  4.091704  0  0  0.00122  0.131358  0  4.053582  0
C  C38  1  0.52088913  0.18186183  0.62662600  1  0  -0.082108  0  3.745579  0  0  -0.110852  0  4.001942  0  0  -0.108357  0  4.020716  0  0  -0.090681  -0.112228  0  3.989128  0
C  C39  1  0.47912444  0.81814041  0.37336957  1  0  -0.082112  0  3.745577  0  0  -0.110879  0  4.001991  0  0  -0.108382  0  4.020766  0  0  -0.090705  -0.112259  0  3.989178  0
C  C40  1  0.57457234  0.18157674  0.73393629  1  0  -0.185447  0  3.73977  0  0  -0.202264  0  3.998428  0  0  -0.210834  0  4.020402  0  0  -0.107518  -0.196722  0  3.983595  0
C  C41  1  0.42543036  0.81842044  0.26606143  1  0  -0.185524  0  3.739756  0  0  -0.202386  0  3.998429  0  0  -0.210957  0  4.020394  0  0  -0.107571  -0.196843  0  3.983598  0
C  C42  1  0.46056368  0.08424361  0.80304319  1  0  0.328185  0  3.908477  0  0  0.304953  0  4.166529  0  0  0.320725  0  4.183997  0  0  0.071543  0.294488  0  4.153934  0
C  C43  1  0.53944279  0.91575560  0.19695543  1  0  0.3282  0  3.908626  0  0  0.305025  0  4.166609  0  0  0.320799  0  4.18407  0  0  0.071522  0.294556  0  4.154013  0
S  S44  1  0.12308151  0.28120679  0.88525367  1  0  1.379122  0  5.549006  0  0  1.270217  0  6.064863  0  0  1.321762  0  6.040169  0  0  0.534672  1.234625  0  6.080845  0
S  S45  1  0.87692585  0.71879141  0.11474492  1  0  1.379381  0  5.5489  0  0  1.270497  0  6.064735  0  0  1.322033  0  6.040034  0  0  0.534866  1.234913  0  6.080718  0
S  S46  1  0.15062214  0.85287067  0.83615637  1  0  1.360667  0  5.542153  0  0  1.25613  0  6.053769  0  0  1.307187  0  6.02839  0  0  0.533089  1.220839  0  6.070327  0
S  S47  1  0.84939532  0.14713663  0.16384264  1  0  1.360866  0  5.542175  0  0  1.256325  0  6.053782  0  0  1.307378  0  6.0284  0  0  0.533159  1.221039  0  6.07034  0
Cl  Cl48  1  0.08605239  0.36471433  0.46118042  1  0  -0.083605  0  1.427166  0  0  -0.066535  0  1.673238  0  0  -0.070538  0  1.669601  0  0  0.006275  -0.063577  0  1.67582  0
Cl  Cl49  1  0.91392092  0.63529087  0.53882706  1  0  -0.083619  0  1.427171  0  0  -0.066526  0  1.673272  0  0  -0.070521  0  1.669632  0  0  0.006261  -0.063566  0  1.675858  0
Cl  Cl50  1  0.28224266  0.08221297  0.45012189  1  0  -0.095201  0  1.334255  0  0  -0.073679  0  1.558978  0  0  -0.078494  0  1.557051  0  0  0.003664  -0.070153  0  1.560316  0
Cl  Cl51  1  0.71776318  0.91779330  0.54987700  1  0  -0.09526  0  1.334191  0  0  -0.073737  0  1.558935  0  0  -0.078553  0  1.557002  0  0  0.003629  -0.070207  0  1.560273  0
O  O52  1  0.05981090  0.37387169  0.95900263  1  0  -0.748689  0  2.01345  0  0  -0.675771  0  2.282817  0  0  -0.70279  0  2.267902  0  0  -0.317886  -0.65667  0  2.292617  0
O  O53  1  0.94019230  0.62612649  0.04099513  1  0  -0.748744  0  2.013363  0  0  -0.675812  0  2.282708  0  0  -0.702828  0  2.267797  0  0  -0.317929  -0.656693  0  2.292459  0
O  O54  1  0.13465593  0.49822847  0.21458690  1  0  -0.839942  0  1.851517  0  0  -0.780686  0  2.039951  0  0  -0.802686  0  2.016181  0  0  -0.568471  -0.764984  0  2.056133  0
O  O55  1  0.86534854  0.50177779  0.78541117  1  0  -0.839971  0  1.851518  0  0  -0.78076  0  2.03986  0  0  -0.802763  0  2.016046  0  0  -0.568531  -0.765055  0  2.056042  0
O  O56  1  0.95742531  0.16373313  0.84457577  1  0  -0.669163  0  1.997888  0  0  -0.60861  0  2.259493  0  0  -0.632872  0  2.247363  0  0  -0.311317  -0.591495  0  2.267286  0
O  O57  1  0.04257252  0.83626002  0.15542819  1  0  -0.669185  0  1.997892  0  0  -0.608611  0  2.259468  0  0  -0.632933  0  2.247463  0  0  -0.31136  -0.591475  0  2.26721  0
O  O58  1  0.28331186  0.24672871  0.93644066  1  0  -0.7415  0  2.126604  0  0  -0.669111  0  2.401264  0  0  -0.696557  0  2.389523  0  0  -0.310212  -0.649683  0  2.408579  0
O  O59  1  0.71668788  0.75326546  0.06356174  1  0  -0.74163  0  2.126454  0  0  -0.669297  0  2.401187  0  0  -0.696737  0  2.389448  0  0  -0.310285  -0.64987  0  2.408505  0
O  O60  1  0.48493804  0.53371354  0.88540653  1  0  -0.720556  0  2.057649  0  0  -0.631362  0  2.303401  0  0  -0.661623  0  2.29871  0  0  -0.323026  -0.609805  0  2.30585  0
O  O61  1  0.51505741  0.46627758  0.11459573  1  0  -0.720569  0  2.057848  0  0  -0.631403  0  2.303584  0  0  -0.661669  0  2.298897  0  0  -0.323065  -0.609823  0  2.305974  0
O  O62  1  0.97502837  0.77040306  0.77287563  1  0  -0.659662  0  1.992087  0  0  -0.600178  0  2.237055  0  0  -0.622708  0  2.222658  0  0  -0.319016  -0.584212  0  2.246446  0
O  O63  1  0.02497214  0.22959816  0.22712624  1  0  -0.659708  0  1.992264  0  0  -0.600188  0  2.237224  0  0  -0.622718  0  2.222831  0  0  -0.319045  -0.584223  0  2.246592  0
O  O64  1  0.08717131  0.92029151  0.93113373  1  0  -0.729934  0  2.091985  0  0  -0.648407  0  2.364205  0  0  -0.675  0  2.348831  0  0  -0.310803  -0.629627  0  2.374362  0
O  O65  1  0.91282814  0.07971573  0.06886114  1  0  -0.729978  0  2.091927  0  0  -0.648449  0  2.364134  0  0  -0.675039  0  2.348753  0  0  -0.31077  -0.629654  0  2.374251  0
O  O66  1  0.28199865  0.78112689  0.86868071  1  0  -0.718766  0  1.985648  0  0  -0.661957  0  2.248166  0  0  -0.687929  0  2.237176  0  0  -0.320586  -0.643459  0  2.255235  0
O  O67  1  0.71800656  0.21887534  0.13131802  1  0  -0.718804  0  1.985627  0  0  -0.661987  0  2.248113  0  0  -0.687985  0  2.237171  0  0  -0.320616  -0.643492  0  2.255179  0
O  O68  1  0.51504182  0.08587295  0.90697389  1  0  -0.744974  0  2.129538  0  0  -0.652184  0  2.3766  0  0  -0.68298  0  2.373006  0  0  -0.31892  -0.629744  0  2.377378  0
O  O69  1  0.48496034  0.91412323  0.09302620  1  0  -0.744977  0  2.129579  0  0  -0.652234  0  2.376667  0  0  -0.683024  0  2.373065  0  0  -0.318919  -0.629825  0  2.377521  0
