# generated using pymatgen
data_Zn2H17C28N8(O2F)3
_symmetry_space_group_name_H-M   'P 1'
_cell_length_a   14.36958315
_cell_length_b   14.85654392
_cell_length_c   14.75845146
_cell_angle_alpha   95.17181495
_cell_angle_beta   114.55135774
_cell_angle_gamma   119.68688044
_symmetry_Int_Tables_number   1
_chemical_formula_structural   Zn2H17C28N8(O2F)3
_chemical_formula_sum   'Zn4 H34 C56 N16 O12 F6'
_cell_volume   2308.48492909
_cell_formula_units_Z   2
loop_
 _symmetry_equiv_pos_site_id
 _symmetry_equiv_pos_as_xyz
  1  'x, y, z'
loop_
 _atom_site_type_symbol
 _atom_site_label
 _atom_site_symmetry_multiplicity
 _atom_site_fract_x
 _atom_site_fract_y
 _atom_site_fract_z
 _atom_site_occupancy
 _atom_site_pbe_bader_charge
 _atom_site_pbe_bader_spin_density
 _atom_site_pbe_cm5_charge
 _atom_site_pbe_ddec_charge
 _atom_site_pbe_ddec_spin_density
 _atom_site_pbe_ddec_sum_bond_order
 _atom_site_pbe_magmom
Zn  Zn0  1  0.84335211  0.49076563  0.35831623  1  1.217206  0  0.749412  0.668027  0  2.329305  0
Zn  Zn1  1  0.16394120  0.66150550  0.50275825  1  1.222874  0  0.741793  0.676772  0  2.31904  0
Zn  Zn2  1  0.14373030  0.49967165  0.64609037  1  1.193679  0  0.743815  0.630617  0  2.466739  0
Zn  Zn3  1  0.83247446  0.33097781  0.50442614  1  1.195871  0  0.753246  0.640002  0  2.461641  0
H  H4  1  0.87144895  0.37584505  0.18825957  1  0.101904  0  0.120572  0.111478  0  0.997257  0
H  H5  1  0.19769113  0.54005525  0.33379183  1  0.106018  0  0.120085  0.113033  0  1.007777  0
H  H6  1  0.86530399  0.44036851  0.01083814  1  0.056739  0  0.094752  0.103231  0  0.981526  0
H  H7  1  0.80929052  0.58858073  0.98818114  1  0.037166  0  0.096376  0.102408  0  0.97985  0
H  H8  1  0.85762714  0.41510606  0.85208660  1  0.059623  0  0.106437  0.097297  0  0.972121  0
H  H9  1  0.78627403  0.51426076  0.82792969  1  0.055117  0  0.105237  0.095738  0  0.96575  0
H  H10  1  0.19007725  0.69391989  0.98710344  1  0.078312  0  0.105293  0.139882  0  0.984435  0
H  H11  1  0.12346668  0.77000697  0.96276190  1  0.092998  0  0.110433  0.151037  0  0.963076  0
H  H12  1  0.37067328  0.38533281  0.20534488  1  0.108673  0  0.103323  0.116125  0  1.025237  0
H  H13  1  0.51185614  0.01710649  0.85310992  1  0.116161  0  0.095573  0.101667  0  1.061604  0
H  H14  1  0.35752210  0.20894116  0.42086264  1  0.050231  0  0.099971  0.098684  0  1.000173  0
H  H15  1  0.67966412  0.86918576  0.03075619  1  0.074939  0  0.104489  0.105364  0  0.987986  0
H  H16  1  0.22946206  0.25480468  0.44998616  1  0.078086  0  0.093733  0.099833  0  1.03937  0
H  H17  1  0.81509026  0.03926781  0.19384243  1  0.085667  0  0.104471  0.109716  0  0.991983  0
H  H18  1  0.93084984  0.85689689  0.72929470  1  0.09608  0  0.095298  0.10024  0  1.057622  0
H  H19  1  0.09842028  0.96270512  0.54095973  1  0.039564  0  0.099848  0.101565  0  0.999229  0
H  H20  1  0.92462854  0.02025132  0.75092656  1  0.058676  0  0.102692  0.105693  0  0.992765  0
H  H21  1  0.09971558  0.12983928  0.56924355  1  0.08593  0  0.096814  0.101248  0  1.018803  0
H  H22  1  0.79472584  0.10579664  0.55842000  1  0.111658  0  0.122967  0.116866  0  0.98371  0
H  H23  1  0.20270568  0.33341411  0.74486962  1  0.056551  0  0.119615  0.11295  0  0.990705  0
H  H24  1  0.20296418  0.73526347  0.31102843  1  0.109827  0  0.114535  0.109713  0  1.007738  0
H  H25  1  0.79395728  0.52018969  0.13016510  1  0.113959  0  0.116785  0.105516  0  1.003127  0
H  H26  1  0.18738722  0.66800895  0.83447944  1  0.111534  0  0.117403  0.109167  0  1.012165  0
H  H27  1  0.77827329  0.43920685  0.65345064  1  0.058683  0  0.114933  0.105369  0  1.008219  0
H  H28  1  0.54489818  0.23973060  0.45945016  1  0.073501  0  0.118184  0.104528  0  0.997704  0
H  H29  1  0.40637411  0.68421975  0.88539035  1  0.094499  0  0.123424  0.116059  0  0.981792  0
H  H30  1  0.02537188  0.49130062  0.08365793  1  0.13178  0  0.094991  0.111993  0  1.037979  0
H  H31  1  0.93595917  0.72499393  0.01852114  1  0.082594  0  0.100715  0.113228  0  0.98511  0
H  H32  1  0.03200548  0.33826213  0.83845189  1  0.621619  0  0.335623  0.372948  0  0.876488  0
H  H33  1  0.76766263  0.66146336  0.67370613  1  0.63514  0  0.318619  0.366951  0  0.930786  0
H  H34  1  0.23848729  0.50410022  0.10507434  1  0.641894  0  0.311198  0.376676  0  0.943162  0
H  H35  1  0.55647597  0.25237429  0.90831677  1  0.587187  0  0.340739  0.37595  0  0.860035  0
H  H36  1  0.64311388  0.64833889  0.48490559  1  0.632384  0  0.358249  0.397402  0  0.828611  0
H  H37  1  0.36658889  0.94192214  0.62156868  1  0.629576  0  0.332995  0.383967  0  0.873624  0
C  C38  1  0.85595570  0.32953721  0.23949941  1  0.498512  0  0.021981  0.012461  0  3.946006  0
C  C39  1  0.18296818  0.49529043  0.38618682  1  0.443126  0  0.017322  -0.012304  0  3.95805  0
C  C40  1  0.56416871  0.28008804  0.40534977  1  0.423443  0  0.010659  -0.035136  0  4.01819  0
C  C41  1  0.40425548  0.71792702  0.82273278  1  0.430053  0  0.011269  -0.038865  0  3.999377  0
C  C42  1  0.43481138  0.81797280  0.72584042  1  0.999689  0  0.192414  0.318252  0  4.105794  0
C  C43  1  0.56433556  0.35367976  0.28412653  1  1.062765  0  0.212263  0.363051  0  4.066732  0
C  C44  1  0.00490804  0.79468629  0.59982989  1  0.064899  0  0.001149  -0.023263  0  3.943952  0
C  C45  1  0.98261300  0.56941677  0.78580665  1  -0.014086  0  -0.04481  -0.07514  0  4.01194  0
C  C46  1  0.49007396  0.30319166  0.32740501  1  0.073893  0  -0.04297  -0.161831  0  4.085539  0
C  C47  1  0.48809910  0.82726985  0.83299061  1  0.031212  0  -0.04313  -0.154499  0  4.106144  0
C  C48  1  0.95864797  0.50294923  0.02484467  1  -0.083515  0  -0.160017  -0.206559  0  3.826446  0
C  C49  1  0.89884462  0.63650049  0.99120820  1  -0.048551  0  -0.155733  -0.206734  0  3.851633  0
C  C50  1  0.95370615  0.48417200  0.91771124  1  -0.002076  0  -0.079638  -0.164335  0  3.792163  0
C  C51  1  0.87525772  0.59826019  0.87794196  1  -0.001756  0  -0.080406  -0.160598  0  3.794472  0
C  C52  1  0.12159026  0.70643276  0.08750072  1  1.020961  0  0.19896  0.495572  0  3.810437  0
C  C53  1  0.99404123  0.62040607  0.07329745  1  0.066  0  -0.013191  0.005186  0  3.858249  0
C  C54  1  0.98387237  0.59036885  0.88808676  1  0.063519  0  0.009671  0.144691  0  3.757231  0
C  C55  1  0.15325973  0.38145297  0.47162692  1  1.017297  0  0.203188  0.33066  0  4.049752  0
C  C56  1  0.81198828  0.20720919  0.31491427  1  1.017189  0  0.202404  0.332134  0  4.085296  0
C  C57  1  0.11217598  0.69599855  0.97975789  1  -0.019947  0  -0.167742  -0.366826  0  3.840373  0
C  C58  1  0.25978322  0.37705199  0.27052234  1  -0.014959  0  -0.021618  -0.093769  0  3.949003  0
C  C59  1  0.65363839  0.11706278  0.01928648  1  -0.019131  0  -0.014077  -0.07795  0  3.922754  0
C  C60  1  0.33998749  0.35576505  0.25925950  1  -0.0234  0  -0.087044  -0.147185  0  3.926645  0
C  C61  1  0.58123262  0.02243141  0.92662331  1  -0.056459  0  -0.08429  -0.136662  0  3.929364  0
C  C62  1  0.38389283  0.30135364  0.31752007  1  -0.0061  0  -0.012133  0.106087  0  4.060978  0
C  C63  1  0.58520943  0.93020693  0.92910089  1  0.020601  0  -0.013018  0.098844  0  4.055639  0
C  C64  1  0.33274848  0.25788934  0.37916383  1  -0.056894  0  -0.093633  -0.123491  0  3.998006  0
C  C65  1  0.67203167  0.93842729  0.02663513  1  0.007517  0  -0.085208  -0.117728  0  3.978505  0
C  C66  1  0.25817539  0.28290289  0.39468336  1  -0.008395  0  -0.101569  -0.146757  0  4.013775  0
C  C67  1  0.74784212  0.03412566  0.11879006  1  -0.061042  0  -0.087693  -0.130808  0  3.979286  0
C  C68  1  0.22619062  0.34950897  0.34720425  1  0.019287  0  -0.001212  0.096286  0  3.989012  0
C  C69  1  0.73837221  0.12392704  0.11873282  1  0.016363  0  0.00818  0.110338  0  3.983144  0
C  C70  1  0.96410881  0.91409131  0.69071576  1  -0.052773  0  -0.090862  -0.111861  0  3.972829  0
C  C71  1  0.06287688  0.97638645  0.58929258  1  -0.036316  0  -0.094157  -0.125799  0  4.005247  0
C  C72  1  0.96282163  0.00769304  0.70470294  1  -0.049916  0  -0.092653  -0.133978  0  3.986082  0
C  C73  1  0.06353500  0.07014986  0.60488169  1  -0.037115  0  -0.095435  -0.13278  0  3.998944  0
C  C74  1  0.01043236  0.08591758  0.66055694  1  0.020024  0  -0.007694  0.09107  0  4.0375  0
C  C75  1  0.89339881  0.17726622  0.60347363  1  0.381691  0  0.009261  -0.05126  0  3.991837  0
C  C76  1  0.10149148  0.29325258  0.69812425  1  0.416706  0  0.000181  -0.075717  0  4.043519  0
C  C77  1  0.01098445  0.89566306  0.63018833  1  0.029395  0  -0.011194  0.076617  0  4.021677  0
C  C78  1  0.10311708  0.68168042  0.28239311  1  0.388352  0  0.002244  -0.055576  0  3.999411  0
C  C79  1  0.89485078  0.57277200  0.18980939  1  0.37152  0  0.002611  -0.06311  0  3.996462  0
C  C80  1  0.80565970  0.21601661  0.21909155  1  0.047823  0  -0.042609  -0.164196  0  4.086226  0
C  C81  1  0.18101816  0.39975444  0.39133067  1  0.0842  0  -0.040236  -0.1564  0  4.066597  0
C  C82  1  0.00192578  0.18072669  0.66184664  1  0.042984  0  -0.037737  -0.046625  0  4.093591  0
C  C83  1  0.99810313  0.63040198  0.17734854  1  0.008294  0  -0.037265  -0.034822  0  4.013543  0
C  C84  1  0.89838122  0.68466777  0.52841033  1  0.409203  0  0.083286  -0.013284  0  3.958866  0
C  C85  1  0.10532340  0.79511313  0.60588679  1  0.448037  0  0.083724  -0.009296  0  3.984514  0
C  C86  1  0.08729544  0.60552772  0.77591856  1  0.398777  0  0.001614  -0.047922  0  3.964174  0
C  C87  1  0.87873505  0.48830978  0.68374104  1  0.423623  0  0.00085  -0.050151  0  3.983622  0
C  C88  1  0.03840078  0.45185256  0.91778651  1  1.498892  0  0.245232  0.621716  0  4.031756  0
C  C89  1  0.86427394  0.67372601  0.81844210  1  1.489254  0  0.232358  0.604909  0  4.061718  0
C  C90  1  0.20643358  0.42217759  0.19457150  1  1.491086  0  0.225567  0.579367  0  4.124372  0
C  C91  1  0.61893449  0.19680710  0.00913587  1  1.482286  0  0.232737  0.584785  0  4.093432  0
C  C92  1  0.76437172  0.63969633  0.47225861  1  1.482029  0  0.238305  0.571839  0  4.121534  0
C  C93  1  0.23676517  0.89140071  0.65311075  1  1.478435  0  0.230831  0.557685  0  4.154065  0
N  N94  1  0.88542852  0.38069087  0.33718381  1  -0.796536  0  -0.283904  -0.200476  0  3.578454  0
N  N95  1  0.16101954  0.52835854  0.45787439  1  -0.772268  0  -0.281171  -0.180656  0  3.651947  0
N  N96  1  0.14252376  0.45752872  0.51201351  1  -0.829024  0  -0.28809  -0.288355  0  3.598657  0
N  N97  1  0.85784253  0.30362724  0.38461840  1  -0.813742  0  -0.298756  -0.304168  0  3.619151  0
N  N98  1  0.92609886  0.27939018  0.60400627  1  -0.777851  0  -0.275491  -0.180867  0  3.565443  0
N  N99  1  0.05598572  0.35207024  0.66351620  1  -0.826375  0  -0.28325  -0.196107  0  3.58408  0
N  N100  1  0.06535696  0.65613130  0.35167727  1  -0.745249  0  -0.275108  -0.183234  0  3.544332  0
N  N101  1  0.93553367  0.58827214  0.29426824  1  -0.841742  0  -0.275714  -0.181447  0  3.544884  0
N  N102  1  0.93536475  0.62597693  0.49570828  1  -0.686615  0  -0.230393  -0.15763  0  3.507076  0
N  N103  1  0.06124294  0.69326546  0.54427329  1  -0.714533  0  -0.239457  -0.161722  0  3.57047  0
N  N104  1  0.04787119  0.54814875  0.67586847  1  -0.789936  0  -0.28878  -0.197127  0  3.621693  0
N  N105  1  0.91972268  0.47626325  0.61949351  1  -0.800457  0  -0.288941  -0.19621  0  3.645551  0
N  N106  1  0.67223034  0.31686014  0.40893506  1  -0.808729  0  -0.277241  -0.176329  0  3.570526  0
N  N107  1  0.31008869  0.65344926  0.71912641  1  -0.805187  0  -0.277615  -0.170209  0  3.560133  0
N  N108  1  0.32778977  0.71728782  0.65715783  1  -0.797793  0  -0.271346  -0.304627  0  3.448953  0
N  N109  1  0.67374840  0.36552470  0.33347803  1  -0.793473  0  -0.277429  -0.28107  0  3.476857  0
O  O110  1  0.15366305  0.50732706  0.97981813  1  -1.167647  0  -0.287812  -0.514855  0  2.182066  0
O  O111  1  0.97228219  0.35284626  0.83847866  1  -1.115391  0  -0.324431  -0.464299  0  2.254349  0
O  O112  1  0.93615175  0.77569933  0.85592793  1  -1.124164  0  -0.280268  -0.472303  0  2.087995  0
O  O113  1  0.76474393  0.61271319  0.71529681  1  -1.145931  0  -0.349746  -0.507164  0  2.267422  0
O  O114  1  0.09944252  0.39796525  0.15815427  1  -1.139982  0  -0.29334  -0.491992  0  2.115435  0
O  O115  1  0.28544227  0.48848207  0.16523633  1  -1.142732  0  -0.345749  -0.493694  0  2.244517  0
O  O116  1  0.60490598  0.24032178  0.07192226  1  -1.135328  0  -0.289994  -0.490063  0  2.107187  0
O  O117  1  0.59568942  0.21305896  0.91418058  1  -1.085581  0  -0.346999  -0.494319  0  2.215188  0
O  O118  1  0.68708429  0.57696093  0.37821776  1  -1.129453  0  -0.268806  -0.473124  0  2.173656  0
O  O119  1  0.73185757  0.67784554  0.53391701  1  -1.13172  0  -0.318963  -0.483159  0  2.265567  0
O  O120  1  0.30388192  0.96935757  0.73864548  1  -1.117322  0  -0.271549  -0.452486  0  2.107717  0
O  O121  1  0.27505582  0.88416992  0.58301929  1  -1.116763  0  -0.340074  -0.505133  0  2.290541  0
F  F122  1  0.21388720  0.69387166  0.15483519  1  -0.633173  0  -0.127201  -0.220258  0  1.2648  0
F  F123  1  0.16605683  0.81442182  0.14133133  1  -0.623609  0  -0.131978  -0.223193  0  1.23963  0
F  F124  1  0.13817890  0.29990059  0.51085046  1  -0.648006  0  -0.076478  -0.132479  0  1.408616  0
F  F125  1  0.77381474  0.11540028  0.33991977  1  -0.641168  0  -0.091463  -0.143758  0  1.347881  0
F  F126  1  0.48463984  0.89844960  0.68852965  1  -0.648412  0  -0.087576  -0.150955  0  1.368862  0
F  F127  1  0.53823979  0.38953596  0.20314726  1  -0.634513  0  -0.078813  -0.123808  0  1.367113  0
