# generated using pymatgen
data_ZnH16C20(N4O3)2
_symmetry_space_group_name_H-M   'P 1'
_cell_length_a   5.13515569
_cell_length_b   12.82207580
_cell_length_c   15.84189240
_cell_angle_alpha   97.87945033
_cell_angle_beta   90.01998961
_cell_angle_gamma   101.49655958
_symmetry_Int_Tables_number   1
_chemical_formula_structural   ZnH16C20(N4O3)2
_chemical_formula_sum   'Zn2 H32 C40 N16 O12'
_cell_volume   1012.09363976
_cell_formula_units_Z   2
loop_
 _symmetry_equiv_pos_site_id
 _symmetry_equiv_pos_as_xyz
  1  'x, y, z'
loop_
 _atom_site_type_symbol
 _atom_site_label
 _atom_site_symmetry_multiplicity
 _atom_site_fract_x
 _atom_site_fract_y
 _atom_site_fract_z
 _atom_site_occupancy
 _atom_site_pbe_bader_spin_density
 _atom_site_pbe_cm5_charge
 _atom_site_pbe_ddec_charge
 _atom_site_pbe_ddec_spin_density
 _atom_site_pbe_ddec_sum_bond_order
 _atom_site_pbe_magmom
Zn  Zn0  1  0.66036598  0.00010231  0.25013392  1  0  0.717975  0.789651  0  2.346942  0
Zn  Zn1  1  0.33962610  0.99989511  0.74986286  1  0  0.718017  0.789722  0  2.346848  0
H  H2  1  0.08274368  0.19854676  0.18540139  1  0  0.13617  0.109487  0  1.024081  0
H  H3  1  0.88586261  0.80159405  0.31473887  1  0  0.136496  0.109401  0  1.024678  0
H  H4  1  0.91722469  0.80145388  0.81459639  1  0  0.136153  0.109563  0  1.024055  0
H  H5  1  0.11416079  0.19841542  0.68526810  1  0  0.136516  0.109435  0  1.024791  0
H  H6  1  0.97489337  0.10468420  0.42979964  1  0  0.14884  0.134212  0  1.014269  0
H  H7  1  0.86913006  0.89537182  0.07031334  1  0  0.148659  0.134526  0  1.014106  0
H  H8  1  0.02512637  0.89531402  0.57019787  1  0  0.148839  0.134201  0  1.014288  0
H  H9  1  0.13084129  0.10461917  0.92968336  1  0  0.14864  0.134397  0  1.014247  0
H  H10  1  0.64788043  0.25009275  0.43147731  1  0  0.112472  0.096003  0  1.018862  0
H  H11  1  0.39740996  0.74980836  0.06823113  1  0  0.112684  0.096314  0  1.018492  0
H  H12  1  0.35212928  0.74991271  0.56851154  1  0  0.112527  0.096059  0  1.01888  0
H  H13  1  0.60259661  0.25019468  0.93176755  1  0  0.112684  0.096315  0  1.018533  0
H  H14  1  0.39151414  0.22347888  0.50289138  1  0  0.116781  0.110093  0  1.03157  0
H  H15  1  0.16694243  0.77645936  0.99699832  1  0  0.116808  0.110524  0  1.031003  0
H  H16  1  0.60851144  0.77651935  0.49709792  1  0  0.11675  0.110158  0  1.031518  0
H  H17  1  0.83304261  0.22353565  0.00300009  1  0  0.116804  0.110577  0  1.030934  0
H  H18  1  0.82160240  0.34126155  0.35038023  1  0  0.093358  0.085183  0  1.065038  0
H  H19  1  0.48028593  0.65865115  0.14950039  1  0  0.093646  0.085133  0  1.064214  0
H  H20  1  0.17837519  0.65873025  0.64961025  1  0  0.09335  0.085183  0  1.065046  0
H  H21  1  0.51971595  0.34135028  0.85050695  1  0  0.093623  0.085105  0  1.064303  0
H  H22  1  0.17300712  0.46875032  0.29400538  1  0  0.098934  0.10003  0  1.01981  0
H  H23  1  0.70485758  0.53110503  0.20580241  1  0  0.098005  0.099547  0  1.021317  0
H  H24  1  0.82700088  0.53124388  0.70599105  1  0  0.09897  0.100077  0  1.019742  0
H  H25  1  0.29516108  0.46889881  0.79420014  1  0  0.098003  0.099566  0  1.021331  0
H  H26  1  0.22974862  0.66568702  0.34399418  1  0  0.099159  0.101156  0  1.006242  0
H  H27  1  0.56506578  0.33416581  0.15590630  1  0  0.09905  0.099959  0  1.006693  0
H  H28  1  0.77027313  0.33431522  0.65600188  1  0  0.099168  0.101188  0  1.006323  0
H  H29  1  0.43494314  0.66583803  0.84410130  1  0  0.099057  0.100002  0  1.006744  0
H  H30  1  0.93507886  0.73279204  0.44951116  1  0  0.094296  0.090276  0  1.062573  0
H  H31  1  0.20310069  0.26713606  0.05055346  1  0  0.094122  0.089415  0  1.063331  0
H  H32  1  0.06491362  0.26720618  0.55048067  1  0  0.094316  0.090398  0  1.062504  0
H  H33  1  0.79690904  0.73286939  0.94945621  1  0  0.094111  0.089376  0  1.063363  0
C  C34  1  0.11198612  0.19410817  0.25233555  1  0  0.145938  0.139375  0  3.985222  0
C  C35  1  0.91901397  0.80603730  0.24777874  1  0  0.146934  0.140875  0  3.983639  0
C  C36  1  0.88799479  0.80589809  0.74766286  1  0  0.145962  0.139291  0  3.985374  0
C  C37  1  0.08100634  0.19397378  0.75222272  1  0  0.146745  0.14059  0  3.983705  0
C  C38  1  0.04912046  0.14508290  0.37618597  1  0  0.167022  0.090972  0  3.879151  0
C  C39  1  0.90367531  0.85496838  0.12390374  1  0  0.168384  0.092251  0  3.877204  0
C  C40  1  0.95087631  0.85491612  0.62381036  1  0  0.167027  0.09106  0  3.879167  0
C  C41  1  0.09630400  0.14503467  0.87609178  1  0  0.168475  0.092339  0  3.877633  0
C  C42  1  0.45483655  0.26849449  0.45002598  1  0  -0.046649  -0.13743  0  3.894628  0
C  C43  1  0.18590397  0.73150153  0.04985733  1  0  -0.047996  -0.140373  0  3.895339  0
C  C44  1  0.54517157  0.73150775  0.54996693  1  0  -0.046697  -0.137588  0  3.89497  0
C  C45  1  0.81410140  0.26849910  0.95014549  1  0  -0.048056  -0.140499  0  3.895572  0
C  C46  1  0.47532210  0.38775665  0.47436298  1  0  -0.00804  -0.001963  0  3.903304  0
C  C47  1  0.08735965  0.61224560  0.02557828  1  0  -0.006865  0.002003  0  3.902665  0
C  C48  1  0.52465257  0.61224881  0.52563534  1  0  -0.008003  -0.001976  0  3.903159  0
C  C49  1  0.91263238  0.38774780  0.97443195  1  0  -0.006719  0.002039  0  3.902495  0
C  C50  1  0.67130387  0.46070145  0.43792531  1  0  -0.001678  0.03798  0  3.960163  0
C  C51  1  0.21060490  0.53926964  0.06204138  1  0  -0.002508  0.037723  0  3.962443  0
C  C52  1  0.32867189  0.53929839  0.56207111  1  0  -0.001743  0.037917  0  3.960415  0
C  C53  1  0.78937980  0.46072858  0.93797191  1  0  -0.002546  0.037737  0  3.962403  0
C  C54  1  0.84642979  0.42624735  0.37468046  1  0  -0.089972  -0.125404  0  3.980318  0
C  C55  1  0.42028812  0.57367096  0.12523434  1  0  -0.090683  -0.124299  0  3.979686  0
C  C56  1  0.15357042  0.57374685  0.62531913  1  0  -0.089967  -0.125388  0  3.980661  0
C  C57  1  0.57971885  0.42633288  0.87477136  1  0  -0.090683  -0.12439  0  3.979802  0
C  C58  1  0.04124187  0.49773518  0.34159282  1  0  -0.09189  -0.073612  0  3.995277  0
C  C59  1  0.54395644  0.50213676  0.15828647  1  0  -0.090449  -0.073886  0  3.997032  0
C  C60  1  0.95876384  0.50226224  0.65840081  1  0  -0.091903  -0.073643  0  3.995495  0
C  C61  1  0.45603891  0.49787110  0.84172978  1  0  -0.090392  -0.073897  0  3.997014  0
C  C62  1  0.07283671  0.60941767  0.36990332  1  0  -0.089789  -0.066947  0  4.00396  0
C  C63  1  0.46414192  0.39045986  0.13002147  1  0  -0.090209  -0.065956  0  4.00604  0
C  C64  1  0.92716591  0.39058135  0.63009743  1  0  -0.089819  -0.066927  0  4.004077  0
C  C65  1  0.53588343  0.60954961  0.86998108  1  0  -0.090268  -0.065927  0  4.006036  0
C  C66  1  0.90505003  0.64654842  0.42900826  1  0  -0.101308  -0.148627  0  3.979608  0
C  C67  1  0.25899972  0.35337095  0.07101883  1  0  -0.100777  -0.146064  0  3.980349  0
C  C68  1  0.09493816  0.35344900  0.57098915  1  0  -0.10129  -0.148796  0  3.979647  0
C  C69  1  0.74099242  0.64663048  0.92899860  1  0  -0.100707  -0.146071  0  3.980427  0
C  C70  1  0.30156582  0.42498306  0.53511708  1  0  -0.004636  0.038112  0  3.969188  0
C  C71  1  0.87634895  0.57503860  0.96486843  1  0  -0.00468  0.033743  0  3.971375  0
C  C72  1  0.69843525  0.57501677  0.46488313  1  0  -0.004717  0.038025  0  3.969001  0
C  C73  1  0.12365756  0.42496042  0.03514368  1  0  -0.004711  0.033656  0  3.971102  0
N  N74  1  0.94357886  0.12546998  0.29658715  1  0  -0.358396  -0.329838  0  3.591675  0
N  N75  1  0.81848565  0.87465167  0.20357882  1  0  -0.358439  -0.330761  0  3.590078  0
N  N76  1  0.05642021  0.87452583  0.70341009  1  0  -0.358486  -0.329951  0  3.591768  0
N  N77  1  0.18150563  0.12534413  0.79642473  1  0  -0.358378  -0.33055  0  3.589812  0
N  N78  1  0.26755973  0.22247271  0.37844252  1  0  -0.125229  0.184137  0  3.706943  0
N  N79  1  0.04513152  0.77758413  0.12155897  1  0  -0.125335  0.184109  0  3.704154  0
N  N80  1  0.73244094  0.77752632  0.62155318  1  0  -0.125082  0.184232  0  3.706851  0
N  N81  1  0.95487196  0.22242052  0.87844178  1  0  -0.12532  0.184214  0  3.704094  0
N  N82  1  0.31153430  0.25443780  0.30018951  1  0  -0.212478  -0.246904  0  3.107471  0
N  N83  1  0.05793548  0.74562554  0.19979856  1  0  -0.213562  -0.247597  0  3.107463  0
N  N84  1  0.68845509  0.74556204  0.69980817  1  0  -0.212504  -0.246922  0  3.107421  0
N  N85  1  0.94208357  0.25437911  0.80020030  1  0  -0.213531  -0.247548  0  3.107573  0
N  N86  1  0.47127716  0.07326414  0.10402700  1  0  0.106709  0.703092  0  4.436524  0
N  N87  1  0.39893138  0.92656906  0.39618255  1  0  0.108649  0.704577  0  4.435555  0
N  N88  1  0.52870346  0.92672202  0.89596916  1  0  0.106868  0.703356  0  4.436352  0
N  N89  1  0.60107370  0.07343881  0.60381603  1  0  0.108496  0.704351  0  4.435499  0
O  O90  1  0.39237717  0.00820303  0.16026735  1  0  -0.215855  -0.460777  0  2.143987  0
O  O91  1  0.38492374  0.99190513  0.34013788  1  0  -0.216298  -0.460826  0  2.144128  0
O  O92  1  0.60760466  0.99178555  0.83973223  1  0  -0.215928  -0.460934  0  2.143933  0
O  O93  1  0.61506416  0.00809952  0.65985971  1  0  -0.216257  -0.46074  0  2.143979  0
O  O94  1  0.70602566  0.12504297  0.10931119  1  0  -0.166616  -0.421416  0  2.001751  0
O  O95  1  0.58213933  0.87481421  0.39081757  1  0  -0.167383  -0.422546  0  2.000643  0
O  O96  1  0.29396304  0.87493597  0.89068228  1  0  -0.166646  -0.421491  0  2.001785  0
O  O97  1  0.41786890  0.12519607  0.60917939  1  0  -0.167359  -0.422562  0  2.000754  0
O  O98  1  0.30578527  0.08006576  0.04875234  1  0  -0.166515  -0.402342  0  1.976198  0
O  O99  1  0.22653453  0.91950944  0.45136959  1  0  -0.166873  -0.402165  0  1.977068  0
O  O100  1  0.69419965  0.91992121  0.95124581  1  0  -0.166557  -0.402447  0  1.976184  0
O  O101  1  0.77348069  0.08049923  0.54863098  1  0  -0.16681  -0.402005  0  1.976975  0
