# generated using pymatgen
data_CoH7C10N2ClO2
_symmetry_space_group_name_H-M   'P 1'
_cell_length_a   8.57012330
_cell_length_b   8.35769917
_cell_length_c   15.00966994
_cell_angle_alpha   90.00018290
_cell_angle_beta   89.99974226
_cell_angle_gamma   109.74339075
_symmetry_Int_Tables_number   1
_chemical_formula_structural   CoH7C10N2ClO2
_chemical_formula_sum   'Co4 H28 C40 N8 Cl4 O8'
_cell_volume   1011.89111395
_cell_formula_units_Z   4
loop_
 _symmetry_equiv_pos_site_id
 _symmetry_equiv_pos_as_xyz
  1  'x, y, z'
loop_
 _atom_site_type_symbol
 _atom_site_label
 _atom_site_symmetry_multiplicity
 _atom_site_fract_x
 _atom_site_fract_y
 _atom_site_fract_z
 _atom_site_occupancy
 _atom_site_hle17_ddec_charge
 _atom_site_hle17_ddec_spin_density
 _atom_site_hle17_ddec_sum_bond_order
 _atom_site_hle17_magmom
 _atom_site_hse06_10hf_ddec_charge
 _atom_site_hse06_10hf_ddec_spin_density
 _atom_site_hse06_10hf_ddec_sum_bond_order
 _atom_site_hse06_10hf_magmom
 _atom_site_hse06_ddec_charge
 _atom_site_hse06_ddec_spin_density
 _atom_site_hse06_ddec_sum_bond_order
 _atom_site_hse06_magmom
 _atom_site_pbe_cm5_charge
 _atom_site_pbe_ddec_charge
 _atom_site_pbe_ddec_spin_density
 _atom_site_pbe_ddec_sum_bond_order
 _atom_site_pbe_magmom
Co  Co0  1  0.52134273  0.42500840  0.40270477  1  0.902892  2.783162  2.148205  2.493  0.853194  2.802512  2.633012  2.556  0.954436  2.854896  2.531732  2.654  0.589947  0.773076  2.753268  2.712457  2.468
Co  Co1  1  0.47865218  0.07499033  0.90270219  1  0.902963  2.783158  2.148117  2.493  0.853257  2.802511  2.632927  2.556  0.954518  2.854896  2.53161  2.654  0.589934  0.773179  2.753269  2.712303  2.468
Co  Co2  1  0.47865521  0.57498686  0.59729885  1  0.902943  2.783209  2.148177  2.493  0.85314  2.802522  2.633019  2.556  0.954389  2.854905  2.531727  2.654  0.589899  0.773014  2.753277  2.712452  2.468
Co  Co3  1  0.52134673  0.92501509  0.09729611  1  0.902977  2.783209  2.148163  2.493  0.853206  2.802523  2.633005  2.556  0.954458  2.854905  2.531695  2.654  0.589897  0.773075  2.753288  2.71243  2.468
H  H4  1  0.92695835  0.30485182  0.47270369  1  0.091461  -1e-06  0.95239  0.0  0.103218  -7.5e-05  1.012681  0.0  0.105942  -0.000109  1.010492  0.0  0.102039  0.101221  -2.7e-05  1.014389  0.0
H  H5  1  0.07304626  0.19514973  0.97270768  1  0.091348  -1e-06  0.952399  0.0  0.103112  -7.5e-05  1.012711  0.0  0.105831  -0.000109  1.010524  0.0  0.101998  0.101115  -2.7e-05  1.014423  0.0
H  H6  1  0.07304840  0.69515618  0.52729527  1  0.091456  -1e-06  0.952402  0.0  0.103222  -7.5e-05  1.012688  0.0  0.105946  -0.000109  1.010499  0.0  0.102019  0.10122  -2.7e-05  1.014402  0.0
H  H7  1  0.92694598  0.80485312  0.02729261  1  0.091461  -2e-06  0.952367  0.0  0.103208  -7.5e-05  1.012666  0.0  0.105928  -0.000109  1.01048  0.0  0.102061  0.101213  -2.7e-05  1.014373  0.0
H  H8  1  0.13530010  0.18776282  0.52867584  1  0.105129  2.8e-05  1.006914  0.0  0.112901  0.000202  1.075447  0.0  0.116581  7.2e-05  1.074142  0.0  0.092178  0.110065  0.000341  1.076605  0.0
H  H9  1  0.86470039  0.31222960  0.02868002  1  0.10513  2.7e-05  1.006888  0.0  0.112882  0.000202  1.075415  0.0  0.116561  7.2e-05  1.07411  0.0  0.092177  0.11005  0.000341  1.076568  0.0
H  H10  1  0.86470575  0.81223882  0.47132178  1  0.105135  3e-05  1.006891  0.0  0.112869  0.000202  1.075457  0.0  0.116547  7.2e-05  1.074153  0.0  0.092161  0.110032  0.000341  1.076615  0.0
H  H11  1  0.13529136  0.68776817  0.97132360  1  0.105131  2.8e-05  1.006821  0.0  0.112863  0.000202  1.075372  0.0  0.116541  7.2e-05  1.074068  0.0  0.092186  0.109997  0.000341  1.076565  0.0
H  H12  1  0.93162620  0.17017535  0.79459472  1  0.103562  -4.8e-05  0.952067  0.0  0.114264  -9.3e-05  1.013997  0.0  0.117008  -0.000112  1.013316  0.0  0.10457  0.112271  -6.7e-05  1.014652  0.0
H  H13  1  0.06836911  0.32982556  0.29459696  1  0.103599  -4.7e-05  0.951994  0.0  0.114271  -9.3e-05  1.01395  0.0  0.117018  -0.000111  1.013266  0.0  0.104568  0.112296  -6.7e-05  1.01458  0.0
H  H14  1  0.06837476  0.82981485  0.20540224  1  0.103547  -4.8e-05  0.952049  0.0  0.114226  -9.3e-05  1.014006  0.0  0.116973  -0.000112  1.013324  0.0  0.104551  0.112215  -6.7e-05  1.014683  0.0
H  H15  1  0.93162931  0.67017478  0.70540400  1  0.103606  -4.8e-05  0.952025  0.0  0.114287  -9.3e-05  1.013964  0.0  0.117031  -0.000112  1.013285  0.0  0.104566  0.112295  -6.6e-05  1.014614  0.0
H  H16  1  0.73071715  0.29481651  0.73760183  1  0.104794  -0.000151  0.971626  0.0  0.111235  -0.000114  1.040249  0.0  0.114818  -0.000181  1.037561  0.0  0.097645  0.10846  -1.4e-05  1.04234  0.0
H  H17  1  0.26928653  0.20519439  0.23760400  1  0.104791  -0.000151  0.971579  0.0  0.111217  -0.000114  1.040236  0.0  0.114783  -0.000181  1.037564  0.0  0.097618  0.108447  -1.4e-05  1.04231  0.0
H  H18  1  0.26928388  0.70517749  0.26239713  1  0.104707  -0.000151  0.971673  0.0  0.111179  -0.000114  1.040271  0.0  0.114746  -0.000181  1.037599  0.0  0.0976  0.108401  -1.4e-05  1.042372  0.0
H  H19  1  0.73071671  0.79481358  0.76239363  1  0.104709  -0.00015  0.971664  0.0  0.111162  -0.000114  1.040279  0.0  0.114721  -0.000181  1.037614  0.0  0.09761  0.108383  -1.4e-05  1.042388  0.0
H  H20  1  0.16311773  0.15014807  0.83973791  1  0.092125  -8.5e-05  0.961685  0.001  0.098875  -4.9e-05  1.031711  0.0  0.101514  -9.5e-05  1.027969  0.0  0.135684  0.096918  8e-06  1.034439  0.0
H  H21  1  0.83687685  0.34985172  0.33974156  1  0.092212  -8.4e-05  0.961635  0.001  0.098954  -4.9e-05  1.031663  0.0  0.101573  -9.5e-05  1.027946  0.0  0.135707  0.096995  8e-06  1.034389  0.0
H  H22  1  0.83688469  0.84985736  0.16025838  1  0.092155  -8.5e-05  0.961603  0.001  0.098908  -4.9e-05  1.031595  0.0  0.101527  -9.5e-05  1.027878  0.0  0.135695  0.096947  8e-06  1.034323  0.0
H  H23  1  0.16311984  0.65013973  0.66026006  1  0.092115  -8.5e-05  0.961712  0.001  0.098841  -4.9e-05  1.031775  0.0  0.101497  -9.5e-05  1.02801  0.0  0.135661  0.096887  8e-06  1.034495  0.0
H  H24  1  0.26861352  0.03866464  0.57461859  1  0.123446  0.000356  0.978935  0.0  0.132316  0.000427  1.041016  0.0  0.135969  0.000269  1.038964  0.0  0.117312  0.129552  0.000579  1.042627  0.001
H  H25  1  0.73138756  0.46133429  0.07462204  1  0.123437  0.000358  0.978925  0.0  0.132221  0.000427  1.041101  0.0  0.135875  0.000269  1.039049  0.0  0.117259  0.129458  0.000579  1.042712  0.001
H  H26  1  0.73138710  0.96132810  0.42537904  1  0.123479  0.000357  0.978915  0.0  0.132275  0.000427  1.041067  0.0  0.135927  0.000269  1.039015  0.0  0.117276  0.12951  0.000579  1.042677  0.001
H  H27  1  0.26860936  0.53866858  0.92538291  1  0.123409  0.000357  0.978934  0.0  0.132317  0.000427  1.040983  0.0  0.13597  0.000269  1.038928  0.0  0.117287  0.129554  0.000579  1.042591  0.001
H  H28  1  0.48638785  0.96871018  0.69091351  1  0.115824  -0.000144  0.962346  0.001  0.122294  9e-06  1.02573  0.001  0.125014  -9.1e-05  1.02479  0.0  0.1144  0.120225  0.000129  1.026606  0.001
H  H29  1  0.51361028  0.53128952  0.19091608  1  0.115766  -0.000142  0.962466  0.001  0.122278  8e-06  1.025791  0.001  0.125001  -9e-05  1.024846  0.0  0.114382  0.120203  0.000129  1.026675  0.001
H  H30  1  0.51361442  0.03128763  0.30908545  1  0.115775  -0.000143  0.962404  0.001  0.122252  8e-06  1.025779  0.001  0.124973  -9e-05  1.024838  0.0  0.114365  0.120189  0.000129  1.026649  0.001
H  H31  1  0.48638814  0.46871082  0.80909021  1  0.115811  -0.000143  0.962256  0.001  0.122295  8e-06  1.025628  0.001  0.125016  -9e-05  1.024686  0.0  0.114394  0.120232  0.000129  1.026501  0.001
C  C32  1  0.81412023  0.30727605  0.60070399  1  -0.091976  0.006816  3.772045  0.01  -0.066587  0.003028  3.99669  0.004  -0.078575  0.001588  4.018749  0.002  -0.023534  -0.058427  0.004655  3.983108  0.006
C  C33  1  0.18588432  0.19273059  0.10070635  1  -0.091932  0.006813  3.772117  0.01  -0.066564  0.003028  3.99674  0.004  -0.07855  0.001588  4.018796  0.002  -0.023535  -0.058405  0.004655  3.983162  0.006
C  C34  1  0.18588604  0.69272686  0.39929564  1  -0.092023  0.006823  3.772169  0.01  -0.06663  0.003028  3.996819  0.004  -0.078622  0.001588  4.018873  0.002  -0.023549  -0.058472  0.004655  3.983236  0.006
C  C35  1  0.81411225  0.80727482  0.89929195  1  -0.091953  0.006816  3.772166  0.01  -0.06658  0.003028  3.99679  0.004  -0.078566  0.001588  4.018841  0.002  -0.023568  -0.058418  0.004655  3.983208  0.006
C  C36  1  0.92828429  0.27417974  0.54306630  1  -0.026219  -0.000613  3.725769  0.0  -0.049336  0.001741  3.970942  0.002  -0.044822  0.001445  3.988329  0.002  -0.077976  -0.052939  0.00163  3.960019  0.002
C  C37  1  0.07171983  0.22582417  0.04306968  1  -0.026044  -0.000614  3.725743  0.0  -0.049194  0.001741  3.970935  0.002  -0.044673  0.001444  3.988314  0.002  -0.077909  -0.052798  0.001629  3.960017  0.002
C  C38  1  0.07172322  0.72582699  0.45693266  1  -0.026193  -0.000632  3.725865  0.0  -0.049322  0.001741  3.971044  0.002  -0.0448  0.001445  3.988421  0.002  -0.077936  -0.052924  0.00163  3.960126  0.002
C  C39  1  0.92827550  0.77417743  0.95693128  1  -0.026272  -0.000615  3.725688  0.0  -0.049391  0.001741  3.97086  0.002  -0.044867  0.001445  3.988233  0.002  -0.077978  -0.052992  0.00163  3.959936  0.002
C  C40  1  0.04490987  0.20691855  0.57473362  1  -0.145456  0.001519  3.716416  0.002  -0.167167  0.00086  3.970733  0.001  -0.173843  0.000131  3.989968  0.0  -0.092969  -0.162819  0.001666  3.958764  0.002
C  C41  1  0.95509087  0.29308292  0.07473820  1  -0.145401  0.001519  3.716433  0.002  -0.167057  0.000859  3.970693  0.001  -0.173731  0.000131  3.989928  0.0  -0.092882  -0.162713  0.001666  3.958724  0.002
C  C42  1  0.95509323  0.79308181  0.42526401  1  -0.145379  0.001525  3.716391  0.002  -0.167052  0.000859  3.970719  0.001  -0.173727  0.00013  3.989952  0.0  -0.092868  -0.162708  0.001666  3.958749  0.002
C  C43  1  0.04490288  0.70691740  0.92526409  1  -0.145364  0.00152  3.716285  0.002  -0.167015  0.000859  3.97056  0.001  -0.17369  0.00013  3.989792  0.0  -0.092905  -0.162647  0.001666  3.958617  0.002
C  C44  1  0.04790725  0.17025747  0.66551639  1  0.20392  0.000323  3.746816  0.0  0.193113  0.001846  3.996134  0.002  0.201988  0.001599  4.016405  0.002  0.104121  0.186579  0.001558  3.983066  0.002
C  C45  1  0.95209128  0.32974301  0.16552038  1  0.203901  0.000328  3.746944  0.0  0.193094  0.001847  3.996235  0.002  0.201969  0.001599  4.01651  0.002  0.104096  0.186555  0.001557  3.983175  0.002
C  C46  1  0.95209619  0.82974035  0.33447990  1  0.203916  0.000313  3.746841  0.0  0.193088  0.001847  3.996193  0.002  0.201965  0.001599  4.016463  0.002  0.104062  0.186556  0.001557  3.983119  0.002
C  C47  1  0.04790356  0.67025350  0.83448258  1  0.203932  0.000325  3.746787  0.0  0.193105  0.001847  3.996111  0.002  0.201981  0.001599  4.016383  0.002  0.10409  0.186572  0.001557  3.983038  0.002
C  C48  1  0.93319813  0.20034755  0.72396961  1  -0.146795  0.00053  3.715766  0.001  -0.169707  -0.000186  3.976935  0.0  -0.17552  -0.000731  3.996465  0.0  -0.090606  -0.166056  0.000399  3.964528  0.0
C  C49  1  0.06680200  0.29965568  0.22397246  1  -0.14696  0.000525  3.715798  0.001  -0.16985  -0.000186  3.976976  0.0  -0.175667  -0.000731  3.996502  0.0  -0.090726  -0.166211  0.000398  3.964561  0.0
C  C50  1  0.06680565  0.79964773  0.27602802  1  -0.146843  0.00054  3.715663  0.001  -0.169709  -0.000187  3.976845  0.0  -0.175528  -0.000731  3.996374  0.0  -0.090626  -0.166042  0.000399  3.964443  0.0
C  C51  1  0.93319450  0.70034592  0.77602849  1  -0.146992  0.000529  3.71575  0.001  -0.169875  -0.000186  3.976934  0.0  -0.175693  -0.000731  3.996462  0.0  -0.090694  -0.166219  0.000399  3.964523  0.0
C  C52  1  0.81792696  0.26952440  0.69161867  1  -0.039108  -0.00079  3.719503  0.0  -0.064619  0.001578  3.970223  0.002  -0.060877  0.001313  3.987995  0.002  -0.078894  -0.067591  0.0015  3.959215  0.002
C  C53  1  0.18207621  0.23048381  0.19162111  1  -0.039076  -0.000786  3.719469  0.0  -0.064563  0.001578  3.970137  0.002  -0.060811  0.001313  3.987931  0.002  -0.078828  -0.067531  0.0015  3.959135  0.002
C  C54  1  0.18207723  0.73047215  0.30837962  1  -0.038941  -0.000805  3.719223  0.0  -0.064493  0.001578  3.969947  0.002  -0.060738  0.001313  3.987738  0.002  -0.078787  -0.067463  0.0015  3.958932  0.002
C  C55  1  0.81792504  0.76952162  0.80837852  1  -0.038917  -0.000793  3.719514  0.0  -0.064432  0.001578  3.970218  0.002  -0.060674  0.001313  3.988014  0.002  -0.078813  -0.067409  0.0015  3.959211  0.002
C  C56  1  0.69280596  0.38205680  0.56518044  1  0.658697  -0.007507  3.861867  -0.007  0.618317  0.007082  4.146802  0.007  0.661117  0.005867  4.140325  0.006  0.222261  0.585494  0.006504  4.15157  0.005
C  C57  1  0.30719725  0.11794844  0.06518103  1  0.658736  -0.007509  3.8618  -0.007  0.618387  0.007082  4.146689  0.007  0.661182  0.005867  4.140222  0.006  0.222368  0.585563  0.006503  4.151462  0.005
C  C58  1  0.30719638  0.61794482  0.43482052  1  0.658696  -0.007511  3.861794  -0.007  0.618306  0.007082  4.146721  0.007  0.661109  0.005866  4.140242  0.006  0.222254  0.585485  0.006503  4.151484  0.005
C  C59  1  0.69280091  0.88205824  0.93481726  1  0.658788  -0.007507  3.861705  -0.007  0.618429  0.007082  4.146618  0.007  0.661225  0.005866  4.140143  0.006  0.222372  0.585598  0.006504  4.151392  0.005
C  C60  1  0.21948898  0.10774408  0.78434751  1  0.177838  -0.009791  3.642868  -0.006  0.118921  0.002049  3.915333  0.003  0.135041  0.00152  3.930185  0.002  0.149276  0.108054  0.002557  3.904412  0.003
C  C61  1  0.78050716  0.39225553  0.28435205  1  0.17748  -0.009794  3.643036  -0.006  0.118569  0.002049  3.915497  0.003  0.134703  0.001519  3.930359  0.002  0.149106  0.107706  0.002558  3.904568  0.003
C  C62  1  0.78051288  0.89225247  0.21564812  1  0.177676  -0.009795  3.642685  -0.006  0.118789  0.002049  3.915134  0.003  0.134922  0.00152  3.929996  0.002  0.149194  0.107929  0.002559  3.9042  0.003
C  C63  1  0.21948920  0.60773845  0.71565158  1  0.177684  -0.009788  3.643216  -0.006  0.118772  0.002049  3.915667  0.003  0.134881  0.00152  3.930508  0.002  0.1492  0.107906  0.002559  3.904741  0.003
C  C64  1  0.27689610  0.04814335  0.64659819  1  -0.047565  0.005105  3.617068  0.007  -0.085889  0.002357  3.868119  0.003  -0.085002  0.001625  3.885018  0.002  0.006583  -0.086268  0.003185  3.856977  0.004
C  C65  1  0.72310056  0.45185452  0.14660098  1  -0.047486  0.005105  3.616971  0.007  -0.085733  0.002357  3.868056  0.003  -0.084847  0.001625  3.884953  0.002  0.00664  -0.086119  0.003186  3.856917  0.004
C  C66  1  0.72310376  0.95185065  0.35339877  1  -0.047672  0.005104  3.61715  0.007  -0.085918  0.002357  3.868208  0.003  -0.085031  0.001625  3.885104  0.002  0.00659  -0.086302  0.003185  3.857069  0.004
C  C67  1  0.27689670  0.54814581  0.85340198  1  -0.047501  0.005103  3.617054  0.007  -0.085871  0.002357  3.868107  0.003  -0.084983  0.001625  3.885003  0.002  0.006624  -0.086256  0.003185  3.856969  0.004
C  C68  1  0.38504260  0.01518789  0.70496639  1  0.02074  -0.004131  3.69689  -0.002  -0.007585  0.000912  3.962276  0.002  -0.004397  0.000235  3.982761  0.001  0.005468  -0.010153  0.001661  3.948321  0.002
C  C69  1  0.61495566  0.48481273  0.20496951  1  0.020664  -0.004141  3.696958  -0.002  -0.007688  0.000912  3.962304  0.002  -0.004501  0.000234  3.98279  0.001  0.005502  -0.01025  0.001661  3.94835  0.002
C  C70  1  0.61495967  0.98480993  0.29503124  1  0.020756  -0.004132  3.696935  -0.002  -0.007558  0.000912  3.96228  0.002  -0.00437  0.000234  3.982765  0.001  0.005539  -0.010135  0.001662  3.948326  0.002
C  C71  1  0.38504318  0.51518888  0.79503544  1  0.020767  -0.004132  3.696862  -0.002  -0.007566  0.000912  3.962231  0.002  -0.004378  0.000234  3.982715  0.001  0.005497  -0.010138  0.001661  3.948278  0.002
N  N72  1  0.34794967  0.05315154  0.79069254  1  -0.358887  0.044243  3.323257  0.071  -0.311623  0.032629  3.635975  0.045  -0.344124  0.025715  3.651492  0.035  -0.362016  -0.287273  0.038758  3.624498  0.052
N  N73  1  0.65204608  0.44685062  0.29069550  1  -0.358626  0.044246  3.32332  0.071  -0.311369  0.032629  3.636034  0.045  -0.343868  0.025716  3.651544  0.035  -0.361949  -0.287011  0.038758  3.624541  0.052
N  N74  1  0.65204992  0.94684880  0.20930509  1  -0.358789  0.044243  3.323208  0.071  -0.311543  0.032629  3.635925  0.045  -0.34404  0.025715  3.651434  0.035  -0.361987  -0.287182  0.038758  3.624431  0.052
N  N75  1  0.34795152  0.55314717  0.70930879  1  -0.358786  0.044243  3.323543  0.071  -0.311481  0.032628  3.636198  0.045  -0.343983  0.025715  3.651721  0.035  -0.361954  -0.287121  0.038757  3.624708  0.052
N  N76  1  0.17204890  0.10760549  0.69770676  1  -0.088178  0.001657  3.578413  0.003  0.001521  0.001939  3.78775  0.003  -0.014103  0.001373  3.81256  0.002  -0.21838  0.012017  0.002566  3.771014  0.004
N  N77  1  0.82794782  0.39239383  0.19771051  1  -0.088111  0.001656  3.578328  0.003  0.001583  0.001939  3.787644  0.003  -0.01404  0.001373  3.812451  0.002  -0.218354  0.012083  0.002566  3.770906  0.004
N  N78  1  0.82795137  0.89238978  0.30229087  1  -0.08808  0.001657  3.578259  0.003  0.001607  0.001939  3.787596  0.003  -0.014016  0.001372  3.812402  0.002  -0.218391  0.012101  0.002566  3.770862  0.004
N  N79  1  0.17204860  0.60760396  0.80229312  1  -0.088158  0.001657  3.578339  0.003  0.00155  0.001939  3.787681  0.003  -0.014076  0.001373  3.812494  0.002  -0.218357  0.012049  0.002566  3.770947  0.004
Cl  Cl80  1  0.32887318  0.16944904  0.41026991  1  -0.530192  0.084791  0.97692  0.125  -0.511978  0.064828  1.253029  0.085  -0.553097  0.046499  1.226991  0.06  -0.275803  -0.476556  0.082557  1.271603  0.108
Cl  Cl81  1  0.67112786  0.33054721  0.91026996  1  -0.530234  0.084793  0.9769  0.125  -0.511999  0.064829  1.252985  0.085  -0.553125  0.046499  1.226947  0.06  -0.275813  -0.476586  0.082557  1.271551  0.108
Cl  Cl82  1  0.67112592  0.83054623  0.58972771  1  -0.530248  0.084793  0.976954  0.125  -0.511997  0.06483  1.253063  0.085  -0.553116  0.0465  1.227018  0.06  -0.275818  -0.476573  0.082558  1.271635  0.108
Cl  Cl83  1  0.32887449  0.66945442  0.08972834  1  -0.530225  0.08479  0.976921  0.125  -0.511994  0.064829  1.253048  0.085  -0.553116  0.046498  1.227004  0.06  -0.275812  -0.47657  0.082557  1.27161  0.108
O  O84  1  0.69590562  0.41114416  0.48130787  1  -0.626823  0.046004  2.197322  0.077  -0.586257  0.037831  2.493504  0.055  -0.631346  0.028452  2.479741  0.04  -0.311857  -0.551178  0.047523  2.503672  0.07
O  O85  1  0.30409466  0.08885867  0.98131041  1  -0.626881  0.046  2.197117  0.077  -0.58631  0.037829  2.493278  0.055  -0.631397  0.02845  2.479518  0.04  -0.31196  -0.551242  0.047521  2.503452  0.07
O  O86  1  0.30409796  0.58886128  0.51869376  1  -0.626762  0.046004  2.197157  0.077  -0.586169  0.037831  2.493309  0.055  -0.631259  0.028451  2.479555  0.04  -0.311821  -0.551089  0.047523  2.503471  0.07
O  O87  1  0.69590391  0.91114929  0.01868788  1  -0.62692  0.045999  2.197115  0.077  -0.586358  0.037829  2.493289  0.055  -0.631441  0.02845  2.479526  0.04  -0.311943  -0.551275  0.04752  2.503452  0.07
O  O88  1  0.59308240  0.41557436  0.61965481  1  -0.599245  0.048711  2.146556  0.081  -0.55943  0.038681  2.435804  0.056  -0.603726  0.028717  2.421221  0.041  -0.309407  -0.524685  0.049055  2.446081  0.072
O  O89  1  0.40692078  0.08442854  0.11965575  1  -0.599258  0.048715  2.146573  0.081  -0.559462  0.038683  2.435803  0.056  -0.60376  0.028718  2.421225  0.041  -0.309411  -0.524717  0.049057  2.446079  0.072
O  O90  1  0.40692104  0.58442347  0.38034681  1  -0.599317  0.048717  2.146519  0.081  -0.559489  0.038684  2.435739  0.056  -0.603798  0.028721  2.421182  0.041  -0.309463  -0.524744  0.049059  2.446015  0.072
O  O91  1  0.59307497  0.91557433  0.88034254  1  -0.599301  0.048717  2.146567  0.081  -0.559479  0.038685  2.435755  0.056  -0.6038  0.028721  2.421224  0.041  -0.309407  -0.524737  0.04906  2.446035  0.072
