# generated using pymatgen
data_AgPH22C25(NO)2
_symmetry_space_group_name_H-M   'P 1'
_cell_length_a   9.33709598
_cell_length_b   9.73531167
_cell_length_c   13.58100000
_cell_angle_alpha   97.23370709
_cell_angle_beta   92.20320765
_cell_angle_gamma   116.86040613
_symmetry_Int_Tables_number   1
_chemical_formula_structural   AgPH22C25(NO)2
_chemical_formula_sum   'Ag2 P2 H44 C50 N4 O4'
_cell_volume   1086.19255853
_cell_formula_units_Z   2
loop_
 _symmetry_equiv_pos_site_id
 _symmetry_equiv_pos_as_xyz
  1  'x, y, z'
loop_
 _atom_site_type_symbol
 _atom_site_label
 _atom_site_symmetry_multiplicity
 _atom_site_fract_x
 _atom_site_fract_y
 _atom_site_fract_z
 _atom_site_occupancy
 _atom_site_hle17_bader_spin_density
 _atom_site_hle17_ddec_charge
 _atom_site_hle17_ddec_spin_density
 _atom_site_hle17_ddec_sum_bond_order
 _atom_site_hle17_magmom
 _atom_site_hse06_10hf_bader_spin_density
 _atom_site_hse06_10hf_ddec_charge
 _atom_site_hse06_10hf_ddec_spin_density
 _atom_site_hse06_10hf_ddec_sum_bond_order
 _atom_site_hse06_10hf_magmom
 _atom_site_hse06_bader_spin_density
 _atom_site_hse06_ddec_charge
 _atom_site_hse06_ddec_spin_density
 _atom_site_hse06_ddec_sum_bond_order
 _atom_site_hse06_magmom
 _atom_site_pbe_bader_charge
 _atom_site_pbe_bader_spin_density
 _atom_site_pbe_cm5_charge
 _atom_site_pbe_ddec_charge
 _atom_site_pbe_ddec_spin_density
 _atom_site_pbe_ddec_sum_bond_order
 _atom_site_pbe_magmom
Ag  Ag0  1  0.45299799  0.63520669  0.42345164  1  0  0.377812  0  1.783195  0  0  0.257553  0  2.262444  0  0  0.277798  0  2.219787  0  0.442867  0  0.462759  0.243663  0  2.290232  0
Ag  Ag1  1  0.54699946  0.36479395  0.57654931  1  0  0.377862  0  1.783183  0  0  0.257595  0  2.262452  0  0  0.277847  0  2.219785  0  0.442854  0  0.4628  0.243707  0  2.290244  0
P  P2  1  0.22455164  0.57100614  0.31607729  1  0  0.265595  0  3.737459  0  0  0.220246  0  4.224588  0  0  0.230318  0  4.216784  0  1.336383  0  -0.033962  0.212426  0  4.229224  0
P  P3  1  0.77544740  0.42899334  0.68392065  1  0  0.265562  0  3.737355  0  0  0.220218  0  4.224503  0  0  0.230289  0  4.2167  0  1.336439  0  -0.033988  0.212391  0  4.229156  0
H  H4  1  0.22297189  0.71847737  0.52533574  1  0  0.270377  0  0.962575  0  0  0.253302  0  1.03342  0  0  0.261333  0  1.026317  0  0.514271  0  0.285794  0.247274  0  1.038877  0
H  H5  1  0.77702711  0.28151977  0.47466493  1  0  0.270409  0  0.962523  0  0  0.253337  0  1.03337  0  0  0.261369  0  1.026263  0  0.514315  0  0.285817  0.247308  0  1.038827  0
H  H6  1  0.97103219  0.58461549  0.34828878  1  0  0.096945  0  0.95392  0  0  0.112716  0  1.015001  0  0  0.112778  0  1.016644  0  0.081928  0  0.111578  0.113021  0  1.012693  0
H  H7  1  0.02896851  0.41538749  0.65171025  1  0  0.096973  0  0.953909  0  0  0.112738  0  1.014994  0  0  0.112809  0  1.016619  0  0.081943  0  0.111586  0.113044  0  1.012684  0
H  H8  1  0.02040524  0.47841796  0.42767899  1  0  0.104433  0  0.95476  0  0  0.120274  0  1.014294  0  0  0.121417  0  1.014836  0  0.090469  0  0.115627  0.11918  0  1.014381  0
H  H9  1  0.97959110  0.52158036  0.57231877  1  0  0.104453  0  0.954735  0  0  0.120281  0  1.01428  0  0  0.121422  0  1.014823  0  0.090375  0  0.115637  0.119188  0  1.014366  0
H  H10  1  0.97627442  0.79467157  0.33496626  1  0  0.095765  0  0.976205  0  0  0.108262  0  1.037229  0  0  0.110297  0  1.037176  0  0.061495  0  0.099744  0.106798  0  1.037129  0
H  H11  1  0.02372625  0.20532908  0.66503698  1  0  0.095786  0  0.976174  0  0  0.108282  0  1.037195  0  0  0.110322  0  1.037132  0  0.061444  0  0.099748  0.106819  0  1.037098  0
H  H12  1  0.02653054  0.06491450  0.32534629  1  0  0.088161  0  0.992638  0  0  0.100577  0  1.050197  0  0  0.101773  0  1.052304  0  0.083498  0  0.096271  0.099855  0  1.048475  0
H  H13  1  0.97346905  0.93508614  0.67465618  1  0  0.088122  0  0.992681  0  0  0.10056  0  1.050225  0  0  0.101755  0  1.052334  0  0.083284  0  0.096273  0.099837  0  1.048504  0
H  H14  1  0.25035994  0.28884125  0.43943234  1  0  0.07694  0  0.965212  0  0  0.079528  0  1.044368  0  0  0.082905  0  1.041198  0  0.087184  0  0.102176  0.077454  0  1.046116  0
H  H15  1  0.74963695  0.71115823  0.56057070  1  0  0.076936  0  0.965211  0  0  0.079537  0  1.044348  0  0  0.082915  0  1.041181  0  0.087151  0  0.102191  0.077491  0  1.046072  0
H  H16  1  0.37118858  0.98663394  0.57056068  1  0  0.083859  0  0.951456  0  0  0.093388  0  1.017429  0  0  0.096233  0  1.015429  0  0.089055  0  0.111069  0.092112  0  1.017195  0
H  H17  1  0.62880836  0.01336787  0.42944330  1  0  0.083946  0  0.951355  0  0  0.093428  0  1.017381  0  0  0.096273  0  1.015379  0  0.089077  0  0.111107  0.092154  0  1.017148  0
H  H18  1  0.87760532  0.30860316  0.28190245  1  0  0.104318  0  0.997851  0  0  0.110702  0  1.066485  0  0  0.11425  0  1.064712  0  0.110459  0  0.100468  0.1082  0  1.067797  0
H  H19  1  0.12239590  0.69139865  0.71809355  1  0  0.104322  0  0.997855  0  0  0.110674  0  1.066512  0  0  0.114214  0  1.064767  0  0.110409  0  0.100475  0.108172  0  1.067825  0
H  H20  1  0.76243432  0.04892998  0.18132232  1  0  0.077304  0  0.968901  0  0  0.090927  0  1.028176  0  0  0.093194  0  1.027261  0  0.038486  0  0.097225  0.088806  0  1.030093  0
H  H21  1  0.23756365  0.95106950  0.81867338  1  0  0.077303  0  0.968903  0  0  0.090925  0  1.028175  0  0  0.093194  0  1.02726  0  0.038464  0  0.097199  0.088802  0  1.030097  0
H  H22  1  0.93651572  0.95980137  0.08490745  1  0  0.081535  0  0.969943  0  0  0.091969  0  1.03536  0  0  0.094037  0  1.035232  0  0.091173  0  0.097962  0.090595  0  1.035017  0
H  H23  1  0.06348487  0.04019461  0.91509169  1  0  0.081498  0  0.970055  0  0  0.091939  0  1.035468  0  0  0.094007  0  1.035339  0  0.091225  0  0.097942  0.090566  0  1.035124  0
H  H24  1  0.23093934  0.13647736  0.09355318  1  0  0.080009  0  0.972306  0  0  0.092062  0  1.032506  0  0  0.094217  0  1.032394  0  0.062858  0  0.09722  0.09072  0  1.032517  0
H  H25  1  0.76906073  0.86351979  0.90644605  1  0  0.079976  0  0.972406  0  0  0.092057  0  1.032567  0  0  0.094212  0  1.032454  0  0.062897  0  0.097207  0.09071  0  1.032584  0
H  H26  1  0.35075018  0.39943680  0.19520201  1  0  0.087251  0  0.979837  0  0  0.096162  0  1.047086  0  0  0.097615  0  1.048501  0  0.072298  0  0.09794  0.095253  0  1.045795  0
H  H27  1  0.64925053  0.60056618  0.80479335  1  0  0.087279  0  0.979802  0  0  0.096171  0  1.047072  0  0  0.097638  0  1.048473  0  0.072191  0  0.097917  0.095246  0  1.045795  0
H  H28  1  0.48695295  0.85787353  0.27606869  1  0  0.080475  0  0.971416  0  0  0.088238  0  1.04401  0  0  0.091588  0  1.041338  0  0.073906  0  0.0962  0.085697  0  1.045978  0
H  H29  1  0.51304609  0.14212595  0.72392998  1  0  0.080478  0  0.971425  0  0  0.088252  0  1.044007  0  0  0.091603  0  1.041337  0  0.073891  0  0.096182  0.085717  0  1.045968  0
H  H30  1  0.51592775  0.02589697  0.14633454  1  0  0.079342  0  0.9827  0  0  0.091896  0  1.042875  0  0  0.094234  0  1.041798  0  0.066651  0  0.096843  0.089759  0  1.044761  0
H  H31  1  0.48407451  0.97410251  0.85366496  1  0  0.079311  0  0.982761  0  0  0.091871  0  1.042928  0  0  0.094207  0  1.041854  0  0.066661  0  0.096834  0.089748  0  1.044799  0
H  H32  1  0.28881211  0.95016773  0.01488577  1  0  0.075732  0  0.964637  0  0  0.088036  0  1.025512  0  0  0.090042  0  1.025242  0  0.053764  0  0.096725  0.086392  0  1.025973  0
H  H33  1  0.71118967  0.04983525  0.98511330  1  0  0.075644  0  0.964598  0  0  0.087979  0  1.025449  0  0  0.089986  0  1.025175  0  0.053445  0  0.096682  0.086336  0  1.02591  0
H  H34  1  0.02824436  0.71378071  0.01779908  1  0  0.087935  0  0.961406  0  0  0.098219  0  1.023515  0  0  0.100065  0  1.024658  0  0.052887  0  0.098598  0.096987  0  1.022565  0
H  H35  1  0.97175475  0.28622343  0.98220075  1  0  0.087925  0  0.961445  0  0  0.098223  0  1.023533  0  0  0.100075  0  1.02468  0  0.052879  0  0.098599  0.096989  0  1.022585  0
H  H36  1  0.99712826  0.54888423  0.14801166  1  0  0.08836  0  0.968863  0  0  0.098511  0  1.033504  0  0  0.100119  0  1.034707  0  0.076132  0  0.098316  0.09707  0  1.033096  0
H  H37  1  0.00287034  0.45112109  0.85199047  1  0  0.088372  0  0.968807  0  0  0.098509  0  1.033474  0  0  0.100117  0  1.034676  0  0.076142  0  0.09831  0.097069  0  1.033063  0
H  H38  1  0.31057089  0.30101920  0.68022765  1  0  0.086046  0  1.000756  0  0  0.090574  0  1.076349  0  0  0.094722  0  1.072473  0  0.07928  0  0.09074  0.087564  0  1.079061  0
H  H39  1  0.68942978  0.69898144  0.31977191  1  0  0.086064  0  1.000729  0  0  0.090596  0  1.076309  0  0  0.094744  0  1.072435  0  0.079292  0  0.090747  0.087587  0  1.07902  0
H  H40  1  0.29355151  0.20699729  0.84300175  1  0  0.078493  0  0.973641  0  0  0.091699  0  1.031982  0  0  0.093806  0  1.032086  0  0.063181  0  0.094674  0.090061  0  1.032179  0
H  H41  1  0.70644805  0.79300102  0.15699683  1  0  0.078533  0  0.973597  0  0  0.091728  0  1.031952  0  0  0.093837  0  1.032053  0  0.063219  0  0.094699  0.09009  0  1.032149  0
H  H42  1  0.31428302  0.38099546  0.00009736  1  0  0.078652  0  0.979465  0  0  0.088498  0  1.04427  0  0  0.090806  0  1.043982  0  0.067286  0  0.093917  0.086754  0  1.04469  0
H  H43  1  0.68571649  0.61900052  0.99990248  1  0  0.07868  0  0.979452  0  0  0.088528  0  1.044252  0  0  0.090837  0  1.043961  0  0.067316  0  0.093931  0.086783  0  1.044673  0
H  H44  1  0.35003541  0.64827009  0.99302346  1  0  0.083911  0  0.979581  0  0  0.094255  0  1.040634  0  0  0.096059  0  1.042218  0  0.075497  0  0.093494  0.092955  0  1.039677  0
H  H45  1  0.64996522  0.35172823  0.00697809  1  0  0.083918  0  0.97954  0  0  0.094256  0  1.040595  0  0  0.096059  0  1.042178  0  0.075522  0  0.093492  0.092941  0  1.039652  0
H  H46  1  0.36417716  0.74021315  0.82797403  1  0  0.085178  0  0.985444  0  0  0.09396  0  1.051954  0  0  0.096957  0  1.050262  0  0.06444  0  0.096775  0.091454  0  1.0542  0
H  H47  1  0.63582346  0.25978517  0.17202752  1  0  0.085168  0  0.985469  0  0  0.093962  0  1.051968  0  0  0.096955  0  1.05028  0  0.0644  0  0.096778  0.091456  0  1.054212  0
C  C48  1  0.07054731  0.58569925  0.39444273  1  0  -0.115915  0  3.647765  0  0  -0.156541  0  3.901195  0  0  -0.154722  0  3.912212  0  -0.040565  0  -0.065858  -0.158394  0  3.893375  0
C  C49  1  0.92945336  0.41430140  0.60555609  1  0  -0.116024  0  3.647824  0  0  -0.156626  0  3.901242  0  0  -0.154804  0  3.91226  0  -0.040542  0  -0.06591  -0.158478  0  3.893419  0
C  C50  1  0.16718008  0.86662990  0.45639713  1  0  0.206566  0  3.840566  0  0  0.205374  0  4.086003  0  0  0.211686  0  4.109453  0  0.407325  0  0.099789  0.200668  0  4.070089  0
C  C51  1  0.83282166  0.13337075  0.54360393  1  0  0.206616  0  3.840563  0  0  0.205429  0  4.086011  0  0  0.211721  0  4.109493  0  0.407341  0  0.099813  0.200729  0  4.070087  0
C  C52  1  0.07217239  0.89209173  0.38490599  1  0  -0.12721  0  3.704446  0  0  -0.148823  0  3.948303  0  0  -0.151232  0  3.968738  0  -0.026511  0  -0.089295  -0.147074  0  3.934392  0
C  C53  1  0.92782665  0.10790775  0.61509563  1  0  -0.127331  0  3.704444  0  0  -0.148938  0  3.948321  0  0  -0.151343  0  3.968764  0  -0.026502  0  -0.089325  -0.147191  0  3.934408  0
C  C54  1  0.10026405  0.04330472  0.37911308  1  0  -0.093508  0  3.791986  0  0  -0.102422  0  4.035372  0  0  -0.10588  0  4.058424  0  -0.020849  0  -0.089942  -0.099838  0  4.019137  0
C  C55  1  0.89973554  0.95669592  0.62088940  1  0  -0.093311  0  3.791971  0  0  -0.102237  0  4.035341  0  0  -0.105696  0  4.058403  0  -0.020685  0  -0.089891  -0.099655  0  4.019113  0
C  C56  1  0.22382345  0.16842773  0.44199305  1  0  0.083471  0  3.713071  0  0  0.047265  0  3.972693  0  0  0.051723  0  3.990302  0  0.469658  0  0.016437  0.044022  0  3.960866  0
C  C57  1  0.77617507  0.83157292  0.55801088  1  0  0.083338  0  3.713116  0  0  0.047107  0  3.972797  0  0  0.051564  0  3.990401  0  0.469795  0  0.016383  0.04384  0  3.960957  0
C  C58  1  0.29134497  0.00039897  0.51616216  1  0  -0.013556  0  3.690043  0  0  -0.046067  0  3.940932  0  0  -0.045068  0  3.959991  0  0.498415  0  0.025252  -0.046146  0  3.926152  0
C  C59  1  0.70865462  0.99960167  0.48384106  1  0  -0.013725  0  3.69004  0  0  -0.046202  0  3.940942  0  0  -0.045202  0  3.960013  0  0.498397  0  0.025145  -0.046289  0  3.926167  0
C  C60  1  0.12330635  0.37514038  0.24363105  1  0  -0.085304  0  3.752464  0  0  -0.044302  0  3.98507  0  0  -0.049346  0  4.009976  0  -0.553482  0  -0.023214  -0.041495  0  3.968543  0
C  C61  1  0.87669594  0.62486143  0.75636498  1  0  -0.085296  0  3.752476  0  0  -0.044307  0  3.985094  0  0  -0.04935  0  4.010002  0  -0.553654  0  -0.0232  -0.041498  0  3.968562  0
C  C62  1  0.95740973  0.27513740  0.23986816  1  0  -0.076892  0  3.711613  0  0  -0.096595  0  3.951466  0  0  -0.097159  0  3.971767  0  -0.021605  0  -0.085821  -0.09576  0  3.938128  0
C  C63  1  0.04259205  0.72486558  0.76012648  1  0  -0.076915  0  3.711664  0  0  -0.096576  0  3.951507  0  0  -0.097145  0  3.971804  0  -0.021633  0  -0.085853  -0.095742  0  3.938168  0
C  C64  1  0.89117246  0.12652524  0.18232742  1  0  -0.080531  0  3.781652  0  0  -0.091088  0  4.029771  0  0  -0.093697  0  4.050369  0  -0.063605  0  -0.092884  -0.089932  0  4.016735  0
C  C65  1  0.10882927  0.87347540  0.81766996  1  0  -0.080525  0  3.781664  0  0  -0.091074  0  4.029756  0  0  -0.093682  0  4.050352  0  -0.063645  0  -0.092847  -0.089916  0  4.016721  0
C  C66  1  0.98800327  0.07655233  0.12847343  1  0  -0.076542  0  3.782665  0  0  -0.091947  0  4.03252  0  0  -0.092513  0  4.053181  0  -0.144982  0  -0.091105  -0.090292  0  4.017443  0
C  C67  1  0.01200005  0.92344715  0.87152462  1  0  -0.076493  0  3.782867  0  0  -0.091916  0  4.032726  0  0  -0.09248  0  4.053385  0  -0.145047  0  -0.091074  -0.090261  0  4.017646  0
C  C68  1  0.15340872  0.17589386  0.13290658  1  0  -0.072228  0  3.783677  0  0  -0.082439  0  4.02801  0  0  -0.085161  0  4.049392  0  -0.054682  0  -0.091256  -0.081497  0  4.01348  0
C  C69  1  0.84659358  0.82410795  0.86709092  1  0  -0.072197  0  3.783877  0  0  -0.082417  0  4.028196  0  0  -0.08514  0  4.049583  0  -0.054636  0  -0.091251  -0.081472  0  4.013663  0
C  C70  1  0.22090802  0.32376990  0.19034796  1  0  -0.075932  0  3.740415  0  0  -0.093161  0  3.977536  0  0  -0.093911  0  3.999367  0  0.036142  0  -0.083924  -0.092089  0  3.962169  0
C  C71  1  0.77909321  0.67623191  0.80964730  1  0  -0.075975  0  3.740503  0  0  -0.093195  0  3.977641  0  0  -0.093958  0  3.999467  0  0.036352  0  -0.083919  -0.092107  0  3.962276  0
C  C72  1  0.24102621  0.69280205  0.22057960  1  0  -0.086679  0  3.753187  0  0  -0.046904  0  3.986567  0  0  -0.052846  0  4.013858  0  -0.518343  0  -0.025765  -0.042757  0  3.967614  0
C  C73  1  0.75897771  0.30720093  0.77942173  1  0  -0.086567  0  3.753047  0  0  -0.046813  0  3.986444  0  0  -0.052753  0  4.013736  0  -0.518441  0  -0.025733  -0.042666  0  3.967491  0
C  C74  1  0.38661839  0.82746654  0.21949558  1  0  -0.075272  0  3.766007  0  0  -0.093952  0  4.006538  0  0  -0.095337  0  4.029368  0  -0.045443  0  -0.085132  -0.092796  0  3.990974  0
C  C75  1  0.61338228  0.17253410  0.78050398  1  0  -0.075381  0  3.765892  0  0  -0.094071  0  4.006443  0  0  -0.09546  0  4.029276  0  -0.045454  0  -0.085155  -0.09292  0  3.990882  0
C  C76  1  0.40292455  0.92069401  0.14632829  1  0  -0.073078  0  3.776537  0  0  -0.084577  0  4.018491  0  0  -0.087351  0  4.040722  0  -0.083242  0  -0.092343  -0.082955  0  4.00378  0
C  C77  1  0.59707397  0.07930663  0.85367121  1  0  -0.07301  0  3.776553  0  0  -0.084512  0  4.018526  0  0  -0.087286  0  4.040759  0  -0.083298  0  -0.09233  -0.082902  0  4.003808  0
C  C78  1  0.27481447  0.87938998  0.07343693  1  0  -0.066663  0  3.777574  0  0  -0.079252  0  4.022571  0  0  -0.080332  0  4.044196  0  -0.019935  0  -0.088579  -0.077436  0  4.006843  0
C  C79  1  0.72518461  0.12061183  0.92656196  1  0  -0.066591  0  3.777531  0  0  -0.079205  0  4.022529  0  0  -0.080285  0  4.044153  0  -0.01952  0  -0.088534  -0.077389  0  4.006801  0
C  C80  1  0.12847328  0.74608572  0.07467326  1  0  -0.069398  0  3.76236  0  0  -0.079697  0  4.007786  0  0  -0.082554  0  4.029902  0  -0.064288  0  -0.088705  -0.078416  0  3.992202  0
C  C81  1  0.87152691  0.25391842  0.92532734  1  0  -0.069387  0  3.762451  0  0  -0.079692  0  4.00786  0  0  -0.08256  0  4.029984  0  -0.064256  0  -0.088718  -0.078411  0  3.992274  0
C  C82  1  0.11140464  0.65320123  0.14797358  1  0  -0.067243  0  3.727649  0  0  -0.085486  0  3.965374  0  0  -0.086171  0  3.987644  0  0.005614  0  -0.082793  -0.084541  0  3.949651  0
C  C83  1  0.88859551  0.34680058  0.85202533  1  0  -0.067257  0  3.72774  0  0  -0.085483  0  3.965465  0  0  -0.086169  0  3.987737  0  0.005787  0  -0.082762  -0.084537  0  3.949741  0
C  C84  1  0.35675369  0.58932499  0.64569369  1  0  0.624862  0  3.937782  0  0  0.575561  0  4.228454  0  0  0.608391  0  4.223372  0  1.568315  0  0.194006  0.554359  0  4.228621  0
C  C85  1  0.64324642  0.41067449  0.35430796  1  0  0.624883  0  3.937809  0  0  0.575594  0  4.228492  0  0  0.608422  0  4.223411  0  1.568414  0  0.193995  0.554387  0  4.228657  0
C  C86  1  0.34098298  0.52837570  0.74397989  1  0  -0.073486  0  3.768764  0  0  -0.049844  0  3.99964  0  0  -0.056163  0  4.021423  0  0.013682  0  -0.024256  -0.046279  0  3.98448  0
C  C87  1  0.65901713  0.47162378  0.25602102  1  0  -0.07343  0  3.768778  0  0  -0.049859  0  3.999741  0  0  -0.056176  0  4.021522  0  0.013803  0  -0.024243  -0.046271  0  3.984552  0
C  C88  1  0.31953029  0.37720990  0.74886277  1  0  -0.101532  0  3.78044  0  0  -0.120842  0  4.029517  0  0  -0.120803  0  4.047644  0  -0.080674  0  -0.095957  -0.119933  0  4.015725  0
C  C89  1  0.68046875  0.62278958  0.25113664  1  0  -0.101553  0  3.780362  0  0  -0.12084  0  4.029454  0  0  -0.120801  0  4.047579  0  -0.080811  0  -0.095962  -0.119939  0  4.015659  0
C  C90  1  0.30938668  0.32440219  0.84049042  1  0  -0.079132  0  3.784785  0  0  -0.089718  0  4.028483  0  0  -0.093167  0  4.051309  0  -0.070938  0  -0.096965  -0.086862  0  4.011496  0
C  C91  1  0.69061069  0.67559379  0.15950789  1  0  -0.07913  0  3.78478  0  0  -0.08971  0  4.028478  0  0  -0.093159  0  4.051306  0  -0.07087  0  -0.096947  -0.086854  0  4.011493  0
C  C92  1  0.32086823  0.42162054  0.92845195  1  0  -0.063364  0  3.777425  0  0  -0.076202  0  4.0221  0  0  -0.076496  0  4.042388  0  -0.067997  0  -0.091873  -0.075768  0  4.007634  0
C  C93  1  0.67913398  0.57837661  0.07154734  1  0  -0.063409  0  3.777551  0  0  -0.07625  0  4.022216  0  0  -0.076545  0  4.042505  0  -0.068265  0  -0.091915  -0.075815  0  4.007746  0
C  C94  1  0.34128259  0.57209456  0.92449016  1  0  -0.08067  0  3.775271  0  0  -0.089503  0  4.017692  0  0  -0.092081  0  4.038836  0  -0.081445  0  -0.096324  -0.087645  0  4.003902  0
C  C95  1  0.65871640  0.42790259  0.07551052  1  0  -0.080664  0  3.775304  0  0  -0.089491  0  4.017719  0  0  -0.092068  0  4.038861  0  -0.081685  0  -0.096322  -0.087621  0  4.003934  0
C  C96  1  0.34968137  0.62401450  0.83271269  1  0  -0.083382  0  3.752796  0  0  -0.104625  0  3.99683  0  0  -0.105176  0  4.017146  0  -0.070403  0  -0.090293  -0.104757  0  3.985106  0
C  C97  1  0.65031982  0.37598498  0.16728898  1  0  -0.083458  0  3.752879  0  0  -0.104693  0  3.996943  0  0  -0.10524  0  4.017259  0  -0.069963  0  -0.090341  -0.104832  0  3.985208  0
N  N98  1  0.14194181  0.72049440  0.47200142  1  0  -0.391135  0  3.352994  0  0  -0.335308  0  3.596383  0  0  -0.355344  0  3.610421  0  -1.248444  0  -0.443544  -0.321404  0  3.587111  0
N  N99  1  0.85805937  0.27950508  0.52799952  1  0  -0.391109  0  3.353019  0  0  -0.335298  0  3.596417  0  0  -0.355328  0  3.610464  0  -1.248486  0  -0.443546  -0.321395  0  3.587142  0
N  N100  1  0.31881762  0.14614950  0.50858821  1  0  -0.267564  0  3.353179  0  0  -0.190206  0  3.631217  0  0  -0.203648  0  3.647938  0  -1.215699  0  -0.346444  -0.18114  0  3.620184  0
N  N101  1  0.68118035  0.85384998  0.49141559  1  0  -0.267461  0  3.353191  0  0  -0.190091  0  3.631199  0  0  -0.203531  0  3.647922  0  -1.21576  0  -0.346381  -0.181026  0  3.620176  0
O  O102  1  0.39785156  0.51993897  0.57426714  1  0  -0.605529  0  2.09421  0  0  -0.522901  0  2.364414  0  0  -0.551235  0  2.351981  0  -1.156687  0  -0.339975  -0.503647  0  2.370726  0
O  O103  1  0.60214585  0.48005934  0.42573286  1  0  -0.605542  0  2.094233  0  0  -0.522916  0  2.364432  0  0  -0.551247  0  2.351998  0  -1.156796  0  -0.339978  -0.503666  0  2.370751  0
O  O104  1  0.32741044  0.70296649  0.63973267  1  0  -0.627586  0  1.937224  0  0  -0.577355  0  2.161359  0  0  -0.60097  0  2.15292  0  -1.18477  0  -0.331388  -0.560245  0  2.165422  0
O  O105  1  0.67258967  0.29703299  0.36026824  1  0  -0.627609  0  1.93724  0  0  -0.577362  0  2.161347  0  0  -0.600983  0  2.152914  0  -1.184788  0  -0.331369  -0.560254  0  2.165413  0
