# generated using pymatgen
data_HgH12C13(IN2)2
_symmetry_space_group_name_H-M   'P 1'
_cell_length_a   9.69238701
_cell_length_b   13.58769071
_cell_length_c   15.24614138
_cell_angle_alpha   100.85634498
_cell_angle_beta   90.03801393
_cell_angle_gamma   110.89790636
_symmetry_Int_Tables_number   1
_chemical_formula_structural   HgH12C13(IN2)2
_chemical_formula_sum   'Hg4 H48 C52 I8 N16'
_cell_volume   1837.17470728
_cell_formula_units_Z   4
loop_
 _symmetry_equiv_pos_site_id
 _symmetry_equiv_pos_as_xyz
  1  'x, y, z'
loop_
 _atom_site_type_symbol
 _atom_site_label
 _atom_site_symmetry_multiplicity
 _atom_site_fract_x
 _atom_site_fract_y
 _atom_site_fract_z
 _atom_site_occupancy
 _atom_site_hle17_bader_spin_density
 _atom_site_hle17_ddec_charge
 _atom_site_hle17_ddec_spin_density
 _atom_site_hle17_ddec_sum_bond_order
 _atom_site_hle17_magmom
 _atom_site_hse06_10hf_bader_spin_density
 _atom_site_hse06_10hf_ddec_charge
 _atom_site_hse06_10hf_ddec_spin_density
 _atom_site_hse06_10hf_ddec_sum_bond_order
 _atom_site_hse06_10hf_magmom
 _atom_site_hse06_bader_spin_density
 _atom_site_hse06_ddec_charge
 _atom_site_hse06_ddec_spin_density
 _atom_site_hse06_ddec_sum_bond_order
 _atom_site_hse06_magmom
 _atom_site_pbe_bader_spin_density
 _atom_site_pbe_cm5_charge
 _atom_site_pbe_ddec_charge
 _atom_site_pbe_ddec_spin_density
 _atom_site_pbe_ddec_sum_bond_order
 _atom_site_pbe_magmom
Hg  Hg0  1  0.44418684  0.66584412  0.77294124  1  0  0.545588  0  2.262065  0  0  0.416298  0  2.757563  0  0  0.458126  0  2.730441  0  0  0.398809  0.388489  0  2.775234  0
Hg  Hg1  1  0.77822631  0.33368428  0.72689435  1  0  0.545983  0  2.260197  0  0  0.416628  0  2.755494  0  0  0.458465  0  2.728413  0  0  0.398827  0.388825  0  2.773136  0
Hg  Hg2  1  0.55581387  0.33415861  0.22705666  1  0  0.545656  0  2.26203  0  0  0.416406  0  2.757511  0  0  0.458247  0  2.73037  0  0  0.398843  0.388597  0  2.775181  0
Hg  Hg3  1  0.22178004  0.66631530  0.27309970  1  0  0.545912  0  2.260222  0  0  0.416554  0  2.755499  0  0  0.458391  0  2.728421  0  0  0.398783  0.388758  0  2.773129  0
H  H4  1  0.70426235  0.91146356  0.85762580  1  0  0.08504  0  0.958412  0  0  0.092604  0  1.026879  0  0  0.095381  0  1.023162  0  0  0.125535  0.090566  0  1.029534  0
H  H5  1  0.79248399  0.08779293  0.64241211  1  0  0.083858  0  0.960024  0  0  0.09169  0  1.028318  0  0  0.09438  0  1.024694  0  0  0.125169  0.08971  0  1.030917  0
H  H6  1  0.29573043  0.08853981  0.14238205  1  0  0.084923  0  0.958482  0  0  0.092468  0  1.026972  0  0  0.095242  0  1.023262  0  0  0.125539  0.090433  0  1.029621  0
H  H7  1  0.20751861  0.91220327  0.35759052  1  0  0.083862  0  0.959927  0  0  0.091681  0  1.028245  0  0  0.094372  0  1.024618  0  0  0.125183  0.089701  0  1.030843  0
H  H8  1  0.81281812  0.63638880  0.77251315  1  0  0.106053  0  0.959774  0  0  0.114339  0  1.022232  0  0  0.116218  0  1.022331  0  0  0.112662  0.112936  0  1.022335  0
H  H9  1  0.17595991  0.36321143  0.72731569  1  0  0.105667  0  0.95954  0  0  0.114127  0  1.021943  0  0  0.116077  0  1.02196  0  0  0.112676  0.112703  0  1.022045  0
H  H10  1  0.18717398  0.36361941  0.22749426  1  0  0.10617  0  0.959832  0  0  0.114475  0  1.022213  0  0  0.116354  0  1.022312  0  0  0.112702  0.113072  0  1.022314  0
H  H11  1  0.82404586  0.63678492  0.27267844  1  0  0.105625  0  0.959444  0  0  0.114091  0  1.021851  0  0  0.116042  0  1.021864  0  0  0.112643  0.112667  0  1.021955  0
H  H12  1  0.07322358  0.81255954  0.81900764  1  0  0.107496  0  0.993398  0  0  0.115077  0  1.060801  0  0  0.118089  0  1.05874  0  0  0.10846  0.112886  0  1.062363  0
H  H13  1  0.26057566  0.18724149  0.68070616  1  0  0.107146  0  0.993295  0  0  0.114573  0  1.06096  0  0  0.11757  0  1.058927  0  0  0.108448  0.112377  0  1.062511  0
H  H14  1  0.92676851  0.18744865  0.18100108  1  0  0.107557  0  0.993214  0  0  0.115071  0  1.06069  0  0  0.118081  0  1.05863  0  0  0.10852  0.112883  0  1.062244  0
H  H15  1  0.73942884  0.81275647  0.31928826  1  0  0.107138  0  0.993171  0  0  0.114573  0  1.060844  0  0  0.117573  0  1.058816  0  0  0.108437  0.112377  0  1.062393  0
H  H16  1  0.85369436  0.07238389  0.84816554  1  0  0.09705  0  0.950141  0  0  0.111773  0  1.005496  0  0  0.114272  0  1.004365  0  0  0.104477  0.109896  0  1.006474  0
H  H17  1  0.78096586  0.92711974  0.65126251  1  0  0.098029  0  0.9497  0  0  0.112299  0  1.005347  0  0  0.114869  0  1.00414  0  0  0.104728  0.110415  0  1.006349  0
H  H18  1  0.14629865  0.92762817  0.15185240  1  0  0.097063  0  0.950038  0  0  0.111783  0  1.005392  0  0  0.114293  0  1.004256  0  0  0.104466  0.109933  0  1.006355  0
H  H19  1  0.21903800  0.07287485  0.34873984  1  0  0.09801  0  0.949564  0  0  0.112261  0  1.005252  0  0  0.114827  0  1.004042  0  0  0.104714  0.110376  0  1.006254  0
H  H20  1  0.01206923  0.25843372  0.91471676  1  0  0.093557  0  0.979953  0  0  0.100841  0  1.049769  0  0  0.104147  0  1.047594  0  0  0.087748  0.098442  0  1.051387  0
H  H21  1  0.75330727  0.74111867  0.58470616  1  0  0.093456  0  0.979088  0  0  0.100975  0  1.048606  0  0  0.104271  0  1.046419  0  0  0.087678  0.098588  0  1.050209  0
H  H22  1  0.98792756  0.74158181  0.08528803  1  0  0.09345  0  0.979796  0  0  0.100685  0  1.049721  0  0  0.103984  0  1.047541  0  0  0.087665  0.098291  0  1.051332  0
H  H23  1  0.24669127  0.25887767  0.41528862  1  0  0.093455  0  0.979101  0  0  0.10098  0  1.048627  0  0  0.104278  0  1.046442  0  0  0.087675  0.098594  0  1.050226  0
H  H24  1  0.35939012  0.14939015  0.97967965  1  0  0.086484  0  0.981246  0  0  0.094361  0  1.049653  0  0  0.0973  0  1.047848  0  0  0.088147  0.092214  0  1.05102  0
H  H25  1  0.21003032  0.85027850  0.52065690  1  0  0.085985  0  0.981444  0  0  0.094125  0  1.049729  0  0  0.09707  0  1.04791  0  0  0.087918  0.09197  0  1.051118  0
H  H26  1  0.64060345  0.85061893  0.02032464  1  0  0.086499  0  0.981044  0  0  0.094341  0  1.049497  0  0  0.097279  0  1.047693  0  0  0.088171  0.092197  0  1.05086  0
H  H27  1  0.78996533  0.14971617  0.47934086  1  0  0.085906  0  0.981511  0  0  0.094049  0  1.049793  0  0  0.096994  0  1.047974  0  0  0.087904  0.091898  0  1.051179  0
H  H28  1  0.19766473  0.96131017  0.91740178  1  0  0.101907  0  0.975586  0  0  0.113246  0  1.037681  0  0  0.116271  0  1.036039  0  0  0.0936  0.111028  0  1.039022  0
H  H29  1  0.23655914  0.03826803  0.58312858  1  0  0.101832  0  0.976162  0  0  0.112646  0  1.038873  0  0  0.115755  0  1.037105  0  0  0.093494  0.110428  0  1.040205  0
H  H30  1  0.80232940  0.03869796  0.08261086  1  0  0.102002  0  0.975678  0  0  0.113321  0  1.037768  0  0  0.116343  0  1.036126  0  0  0.093673  0.111042  0  1.039171  0
H  H31  1  0.76343877  0.96172499  0.41687152  1  0  0.101763  0  0.976217  0  0  0.112638  0  1.03887  0  0  0.115745  0  1.037102  0  0  0.093492  0.11042  0  1.040201  0
H  H32  1  0.38570641  0.33281357  0.03568302  1  0  0.08543  0  0.939413  0  0  0.094296  0  1.012015  0  0  0.094903  0  1.011921  0  0  0.104664  0.093761  0  1.012191  0
H  H33  1  0.05311432  0.66689873  0.46457134  1  0  0.085545  0  0.939489  0  0  0.094627  0  1.011629  0  0  0.095194  0  1.011555  0  0  0.10472  0.094135  0  1.011802  0
H  H34  1  0.61430908  0.66718365  0.96430733  1  0  0.085518  0  0.939321  0  0  0.094242  0  1.012019  0  0  0.094859  0  1.011898  0  0  0.104609  0.093701  0  1.012203  0
H  H35  1  0.94687191  0.33309364  0.53541946  1  0  0.085585  0  0.939486  0  0  0.094601  0  1.011695  0  0  0.095158  0  1.011614  0  0  0.104723  0.094111  0  1.011863  0
H  H36  1  0.23378042  0.37592282  0.03018473  1  0  0.090517  0  0.930805  0  0  0.103316  0  0.997278  0  0  0.104818  0  0.996094  0  0  0.108988  0.102157  0  0.998228  0
H  H37  1  0.85803797  0.62371277  0.46958008  1  0  0.090673  0  0.931212  0  0  0.103461  0  0.997494  0  0  0.104969  0  0.996299  0  0  0.108714  0.102314  0  0.998454  0
H  H38  1  0.76625169  0.62409113  0.96981782  1  0  0.090494  0  0.930793  0  0  0.103293  0  0.99718  0  0  0.104792  0  0.996003  0  0  0.108973  0.102133  0  0.998128  0
H  H39  1  0.14195727  0.37628109  0.53041820  1  0  0.09061  0  0.931221  0  0  0.103401  0  0.997521  0  0  0.104897  0  0.996322  0  0  0.108652  0.102242  0  0.998507  0
H  H40  1  0.28449378  0.52298054  0.94911384  1  0  0.089651  0  0.986546  0  0  0.092788  0  1.066657  0  0  0.09636  0  1.061986  0  0  0.110797  0.090143  0  1.070032  0
H  H41  1  0.76137084  0.47662096  0.55054406  1  0  0.089116  0  0.987706  0  0  0.092624  0  1.067315  0  0  0.096176  0  1.062617  0  0  0.110623  0.089978  0  1.070728  0
H  H42  1  0.71554568  0.47703572  0.05089568  1  0  0.08975  0  0.986619  0  0  0.092802  0  1.066737  0  0  0.096426  0  1.062017  0  0  0.110842  0.090156  0  1.070113  0
H  H43  1  0.23863437  0.52336808  0.44945270  1  0  0.089063  0  0.987688  0  0  0.092554  0  1.067345  0  0  0.096119  0  1.062636  0  0  0.110603  0.08991  0  1.070758  0
H  H44  1  0.53613865  0.43933207  0.74175254  1  0  0.091829  0  0.980488  0  0  0.096838  0  1.052874  0  0  0.099537  0  1.050971  0  0  0.097769  0.09485  0  1.054347  0
H  H45  1  0.09571424  0.56065394  0.75886516  1  0  0.092219  0  0.981201  0  0  0.096787  0  1.054114  0  0  0.099524  0  1.052171  0  0  0.097594  0.094789  0  1.055589  0
H  H46  1  0.46385521  0.56066109  0.25823906  1  0  0.091942  0  0.980334  0  0  0.096936  0  1.052732  0  0  0.099644  0  1.050814  0  0  0.097796  0.094947  0  1.054216  0
H  H47  1  0.90430582  0.43935449  0.24113049  1  0  0.092234  0  0.981237  0  0  0.096795  0  1.054164  0  0  0.099533  0  1.052218  0  0  0.097614  0.094794  0  1.055638  0
H  H48  1  0.47117644  0.28853194  0.85170536  1  0  0.110406  0  0.958373  0  0  0.120892  0  1.018852  0  0  0.12349  0  1.017586  0  0  0.116553  0.119016  0  1.019841  0
H  H49  1  0.18185462  0.71164517  0.64906582  1  0  0.110281  0  0.958828  0  0  0.120707  0  1.019315  0  0  0.123371  0  1.017974  0  0  0.11648  0.118785  0  1.020355  0
H  H50  1  0.52881601  0.71146049  0.14828216  1  0  0.110369  0  0.958346  0  0  0.120866  0  1.018834  0  0  0.123464  0  1.017569  0  0  0.116568  0.118993  0  1.019816  0
H  H51  1  0.81814465  0.28836087  0.35092743  1  0  0.110356  0  0.958844  0  0  0.120753  0  1.019368  0  0  0.12342  0  1.018024  0  0  0.11649  0.118831  0  1.020405  0
C  C52  1  0.76791913  0.86048386  0.83844629  1  0  0.142462  0  3.692214  0  0  0.084154  0  3.960729  0  0  0.096918  0  3.974832  0  0  0.131638  0.076019  0  3.950798  0
C  C53  1  0.90716185  0.13888999  0.66149491  1  0  0.144288  0  3.691543  0  0  0.085728  0  3.960071  0  0  0.098589  0  3.974219  0  0  0.132368  0.077525  0  3.950118  0
C  C54  1  0.23207257  0.13951943  0.16156614  1  0  0.142693  0  3.692218  0  0  0.084449  0  3.960698  0  0  0.097209  0  3.974803  0  0  0.131751  0.076315  0  3.950771  0
C  C55  1  0.09283401  0.86110304  0.33850388  1  0  0.144212  0  3.691531  0  0  0.085648  0  3.960069  0  0  0.098515  0  3.974215  0  0  0.132259  0.077446  0  3.950114  0
C  C56  1  0.82868953  0.72028444  0.79670054  1  0  0.006016  0  3.727953  0  0  -0.024627  0  3.992598  0  0  -0.023208  0  4.013626  0  0  -0.002335  -0.025565  0  3.978343  0
C  C57  1  0.10808058  0.27928053  0.70314463  1  0  0.006556  0  3.727648  0  0  -0.024228  0  3.992043  0  0  -0.022829  0  4.012998  0  0  -0.002448  -0.025161  0  3.977848  0
C  C58  1  0.17130644  0.27972944  0.20330592  1  0  0.005778  0  3.728029  0  0  -0.02485  0  3.992646  0  0  -0.023433  0  4.013673  0  0  -0.002311  -0.025788  0  3.978394  0
C  C59  1  0.89192821  0.72071979  0.29685285  1  0  0.006564  0  3.727787  0  0  -0.024222  0  3.992182  0  0  -0.022822  0  4.013135  0  0  -0.002445  -0.025158  0  3.977989  0
C  C60  1  0.95884273  0.80696576  0.81948243  1  0  -0.04861  0  3.649448  0  0  -0.087547  0  3.903583  0  0  -0.085775  0  3.922199  0  0  0.002585  -0.088574  0  3.89096  0
C  C61  1  0.15173585  0.19267951  0.68028795  1  0  -0.047852  0  3.646854  0  0  -0.086584  0  3.900791  0  0  -0.084836  0  3.919461  0  0  0.002971  -0.08759  0  3.88815  0
C  C62  1  0.04114192  0.19303992  0.18053174  1  0  -0.048652  0  3.649039  0  0  -0.087458  0  3.903178  0  0  -0.085684  0  3.921797  0  0  0.002534  -0.088486  0  3.890554  0
C  C63  1  0.84827834  0.80731923  0.31970793  1  0  -0.047945  0  3.646845  0  0  -0.086699  0  3.900826  0  0  -0.084952  0  3.919502  0  0  0.002885  -0.087705  0  3.888186  0
C  C64  1  0.01472585  0.00423886  0.87908677  1  0  0.184126  0  3.779011  0  0  0.17577  0  4.028322  0  0  0.18214  0  4.050458  0  0  0.094645  0.171534  0  4.01328  0
C  C65  1  0.01040307  0.99532629  0.62083810  1  0  0.184221  0  3.776461  0  0  0.174303  0  4.027721  0  0  0.180722  0  4.049836  0  0  0.094591  0.170028  0  4.012724  0
C  C66  1  0.98526351  0.99577419  0.12092086  1  0  0.183834  0  3.778562  0  0  0.175545  0  4.027828  0  0  0.181914  0  4.049965  0  0  0.094581  0.171313  0  4.012778  0
C  C67  1  0.98959928  0.00467147  0.37916744  1  0  0.183981  0  3.776977  0  0  0.174132  0  4.028141  0  0  0.180559  0  4.050248  0  0  0.094493  0.169858  0  4.013141  0
C  C68  1  0.96352945  0.08834044  0.87809258  1  0  -0.145541  0  3.747605  0  0  -0.169898  0  4.004286  0  0  -0.174211  0  4.025502  0  0  -0.094689  -0.166977  0  3.989924  0
C  C69  1  0.87494544  0.91121672  0.62155335  1  0  -0.146637  0  3.74648  0  0  -0.170064  0  4.003543  0  0  -0.174465  0  4.024722  0  0  -0.095289  -0.167134  0  3.989223  0
C  C70  1  0.03645841  0.91166134  0.12191367  1  0  -0.145581  0  3.747966  0  0  -0.169951  0  4.004641  0  0  -0.174279  0  4.025873  0  0  -0.094645  -0.167062  0  3.990273  0
C  C71  1  0.12505261  0.08878277  0.37844594  1  0  -0.146592  0  3.746451  0  0  -0.170038  0  4.003511  0  0  -0.174427  0  4.024674  0  0  -0.095306  -0.167108  0  3.98919  0
C  C72  1  0.05370732  0.19365707  0.91532524  1  0  -0.082559  0  3.726702  0  0  -0.101541  0  3.97366  0  0  -0.102532  0  3.994826  0  0  -0.087217  -0.100699  0  3.959306  0
C  C73  1  0.85980334  0.80595770  0.58432790  1  0  -0.082648  0  3.728287  0  0  -0.10172  0  3.975075  0  0  -0.10267  0  3.996231  0  0  -0.086378  -0.100898  0  3.960726  0
C  C74  1  0.94629360  0.80635845  0.08467955  1  0  -0.082286  0  3.727088  0  0  -0.101341  0  3.974061  0  0  -0.10232  0  3.995226  0  0  -0.087216  -0.100502  0  3.959715  0
C  C75  1  0.14018792  0.19403852  0.41567342  1  0  -0.082652  0  3.728427  0  0  -0.101713  0  3.975164  0  0  -0.10267  0  3.996334  0  0  -0.086407  -0.100889  0  3.960809  0
C  C76  1  0.19669677  0.21677117  0.95246130  1  0  0.063166  0  3.743096  0  0  0.081666  0  3.982056  0  0  0.079493  0  4.007203  0  0  -0.015814  0.083004  0  3.965072  0
C  C77  1  0.97978118  0.78285378  0.54744768  1  0  0.06333  0  3.743588  0  0  0.081345  0  3.983143  0  0  0.079161  0  4.008306  0  0  -0.015932  0.08271  0  3.966161  0
C  C78  1  0.80330306  0.78323393  0.04753965  1  0  0.063004  0  3.743649  0  0  0.081731  0  3.982154  0  0  0.079558  0  4.007297  0  0  -0.01574  0.083064  0  3.965171  0
C  C79  1  0.02021527  0.21714251  0.45254972  1  0  0.063267  0  3.743309  0  0  0.081296  0  3.982889  0  0  0.079093  0  4.008045  0  0  -0.015943  0.082663  0  3.965908  0
C  C80  1  0.24796198  0.13242940  0.95098893  1  0  -0.10226  0  3.75746  0  0  -0.117578  0  3.998231  0  0  -0.119286  0  4.020018  0  0  -0.091475  -0.11626  0  3.983426  0
C  C81  1  0.11548418  0.86721627  0.54917216  1  0  -0.102128  0  3.758438  0  0  -0.117783  0  3.999447  0  0  -0.119464  0  4.021218  0  0  -0.091562  -0.11649  0  3.984677  0
C  C82  1  0.75204081  0.86758369  0.04901674  1  0  -0.102215  0  3.757824  0  0  -0.117591  0  3.998552  0  0  -0.119299  0  4.020345  0  0  -0.091499  -0.116271  0  3.983728  0
C  C83  1  0.88450595  0.13277356  0.45082539  1  0  -0.102042  0  3.757953  0  0  -0.117695  0  3.998997  0  0  -0.119377  0  4.020776  0  0  -0.091582  -0.116407  0  3.984228  0
C  C84  1  0.15754918  0.02631185  0.91531700  1  0  -0.143646  0  3.738671  0  0  -0.162851  0  3.983702  0  0  -0.167206  0  4.004532  0  0  -0.095284  -0.159901  0  3.969622  0
C  C85  1  0.13129032  0.97326837  0.58495723  1  0  -0.143286  0  3.738472  0  0  -0.161453  0  3.983849  0  0  -0.165868  0  4.004588  0  0  -0.095119  -0.158491  0  3.969818  0
C  C86  1  0.84243541  0.97368753  0.08468817  1  0  -0.143686  0  3.738984  0  0  -0.16288  0  3.983996  0  0  -0.167233  0  4.004821  0  0  -0.095328  -0.15988  0  3.969942  0
C  C87  1  0.86870728  0.02671991  0.41503677  1  0  -0.143139  0  3.738542  0  0  -0.161387  0  3.983902  0  0  -0.165803  0  4.00464  0  0  -0.095097  -0.158427  0  3.969875  0
C  C88  1  0.29549993  0.33111485  0.99120147  1  0  -0.037706  0  3.63288  0  0  -0.102713  0  3.876647  0  0  -0.097877  0  3.886938  0  0  -0.049218  -0.105828  0  3.869724  0
C  C89  1  0.96441032  0.66857768  0.50879272  1  0  -0.037602  0  3.634841  0  0  -0.102078  0  3.877554  0  0  -0.097254  0  3.887957  0  0  -0.049291  -0.105279  0  3.870689  0
C  C90  1  0.70451765  0.66889272  0.00879665  1  0  -0.037791  0  3.633132  0  0  -0.102603  0  3.87656  0  0  -0.097772  0  3.886872  0  0  -0.049136  -0.105711  0  3.86963  0
C  C91  1  0.03557978  0.33141622  0.49120294  1  0  -0.037512  0  3.634723  0  0  -0.101942  0  3.877411  0  0  -0.097062  0  3.887742  0  0  -0.049184  -0.105143  0  3.870546  0
C  C92  1  0.34468758  0.48118608  0.90656352  1  0  0.146535  0  3.662245  0  0  0.085326  0  3.930345  0  0  0.099306  0  3.942574  0  0  0.129983  0.076396  0  3.921786  0
C  C93  1  0.86325204  0.51847576  0.59332319  1  0  0.148233  0  3.66142  0  0  0.086764  0  3.929721  0  0  0.100822  0  3.941884  0  0  0.130455  0.077791  0  3.9212  0
C  C94  1  0.65533829  0.51881746  0.09343453  1  0  0.146564  0  3.662109  0  0  0.085486  0  3.930214  0  0  0.099413  0  3.942418  0  0  0.129937  0.076555  0  3.921654  0
C  C95  1  0.13675662  0.48151812  0.40667378  1  0  0.148436  0  3.66118  0  0  0.086956  0  3.92949  0  0  0.100998  0  3.941645  0  0  0.13055  0.077981  0  3.920971  0
C  C96  1  0.47580606  0.43499411  0.80168121  1  0  -0.018635  0  3.787819  0  0  -0.048212  0  4.050761  0  0  -0.046874  0  4.071865  0  0  -0.01624  -0.049091  0  4.036555  0
C  C97  1  0.04002945  0.56493322  0.69873984  1  0  -0.019632  0  3.785667  0  0  -0.048821  0  4.048563  0  0  -0.047506  0  4.06971  0  0  -0.016362  -0.049692  0  4.034333  0
C  C98  1  0.52420707  0.56500870  0.19831212  1  0  -0.018829  0  3.787979  0  0  -0.048402  0  4.050938  0  0  -0.047065  0  4.072037  0  0  -0.016282  -0.049288  0  4.036739  0
C  C99  1  0.95998609  0.43507443  0.30125436  1  0  -0.01963  0  3.785653  0  0  -0.048846  0  4.048542  0  0  -0.047531  0  4.069685  0  0  -0.016404  -0.049715  0  4.03431  0
C  C100  1  0.44314115  0.35935552  0.85462063  1  0  -0.069445  0  3.701738  0  0  -0.109154  0  3.957208  0  0  -0.108037  0  3.977612  0  0  -0.005084  -0.109813  0  3.94346  0
C  C101  1  0.08313049  0.64064007  0.64586863  1  0  -0.068425  0  3.701888  0  0  -0.107991  0  3.957194  0  0  -0.106975  0  3.977654  0  0  -0.004956  -0.108574  0  3.943392  0
C  C102  1  0.55685525  0.64063450  0.14536647  1  0  -0.069368  0  3.702149  0  0  -0.109103  0  3.957694  0  0  -0.107993  0  3.978109  0  0  -0.005075  -0.109761  0  3.94394  0
C  C103  1  0.91687049  0.35936115  0.35412375  1  0  -0.068512  0  3.701831  0  0  -0.108056  0  3.95713  0  0  -0.107043  0  3.977596  0  0  -0.004914  -0.108639  0  3.943324  0
I  I104  1  0.35037276  0.79430756  0.89771198  1  0  -0.398532  0  1.025482  0  0  -0.356947  0  1.310848  0  0  -0.371746  0  1.290558  0  0  -0.215885  -0.346998  0  1.324653  0
I  I105  1  0.55585561  0.20469152  0.60214729  1  0  -0.398783  0  1.024427  0  0  -0.357336  0  1.309599  0  0  -0.372175  0  1.289278  0  0  -0.215971  -0.347366  0  1.323428  0
I  I106  1  0.64957627  0.20567850  0.10227045  1  0  -0.398531  0  1.025461  0  0  -0.356976  0  1.310851  0  0  -0.371769  0  1.290555  0  0  -0.215895  -0.347027  0  1.324643  0
I  I107  1  0.44415433  0.79529665  0.39785325  1  0  -0.398779  0  1.024338  0  0  -0.357343  0  1.309514  0  0  -0.372187  0  1.289195  0  0  -0.215982  -0.347373  0  1.323338  0
I  I108  1  0.45218724  0.57757998  0.59936823  1  0  -0.371293  0  1.204945  0  0  -0.331767  0  1.555507  0  0  -0.349239  0  1.534534  0  0  -0.19439  -0.31993  0  1.569719  0
I  I109  1  0.87501516  0.42166315  0.90053304  1  0  -0.37116  0  1.203678  0  0  -0.331125  0  1.553934  0  0  -0.348702  0  1.533016  0  0  -0.193962  -0.319227  0  1.56814  0
I  I110  1  0.54776149  0.42235798  0.40064296  1  0  -0.3713  0  1.204927  0  0  -0.331781  0  1.555477  0  0  -0.349283  0  1.53454  0  0  -0.194396  -0.319948  0  1.569689  0
I  I111  1  0.12498024  0.57833310  0.09946633  1  0  -0.371101  0  1.203709  0  0  -0.331077  0  1.554004  0  0  -0.348647  0  1.533077  0  0  -0.193931  -0.319181  0  1.568206  0
N  N112  1  0.71110385  0.75498261  0.80930274  1  0  -0.33329  0  3.252647  0  0  -0.2615  0  3.530027  0  0  -0.281093  0  3.550767  0  0  -0.340168  -0.24818  0  3.515491  0
N  N113  1  0.95570454  0.24439925  0.69064868  1  0  -0.334762  0  3.253759  0  0  -0.262999  0  3.531556  0  0  -0.282585  0  3.552245  0  0  -0.340194  -0.249679  0  3.517042  0
N  N114  1  0.28888915  0.24501914  0.19070548  1  0  -0.333381  0  3.252777  0  0  -0.261686  0  3.53031  0  0  -0.281277  0  3.551048  0  0  -0.340247  -0.248365  0  3.515773  0
N  N115  1  0.04429272  0.75559866  0.30934836  1  0  -0.334667  0  3.253856  0  0  -0.262886  0  3.53163  0  0  -0.282476  0  3.552324  0  0  -0.340123  -0.249567  0  3.517118  0
N  N116  1  0.91920298  0.89622910  0.84574471  1  0  -0.089713  0  3.601817  0  0  -0.000143  0  3.810689  0  0  -0.015325  0  3.837233  0  0  -0.222863  0.009937  0  3.792543  0
N  N117  1  0.02284119  0.10330452  0.65411888  1  0  -0.089468  0  3.602117  0  0  0.000655  0  3.811236  0  0  -0.014542  0  3.837769  0  0  -0.223649  0.010743  0  3.793095  0
N  N118  1  0.08079017  0.10377914  0.15426139  1  0  -0.089431  0  3.601349  0  0  4.7e-05  0  3.810251  0  0  -0.01513  0  3.836786  0  0  -0.222907  0.010123  0  3.792111  0
N  N119  1  0.97716763  0.89669173  0.34588048  1  0  -0.089253  0  3.602157  0  0  0.000887  0  3.811191  0  0  -0.01432  0  3.837725  0  0  -0.223417  0.010973  0  3.793049  0
N  N120  1  0.41421777  0.51032744  0.83499952  1  0  -0.340355  0  3.278523  0  0  -0.264328  0  3.554452  0  0  -0.284703  0  3.574233  0  0  -0.346876  -0.250514  0  3.540527  0
N  N121  1  0.90333464  0.48940426  0.66505959  1  0  -0.340378  0  3.276015  0  0  -0.264306  0  3.552195  0  0  -0.284691  0  3.571918  0  0  -0.346749  -0.250497  0  3.538331  0
N  N122  1  0.58580247  0.48967926  0.16500238  1  0  -0.340325  0  3.278571  0  0  -0.264327  0  3.554504  0  0  -0.284706  0  3.574308  0  0  -0.34685  -0.250511  0  3.540581  0
N  N123  1  0.09668068  0.51060086  0.33494006  1  0  -0.340562  0  3.275795  0  0  -0.264448  0  3.551963  0  0  -0.284832  0  3.571688  0  0  -0.346808  -0.250639  0  3.538097  0
N  N124  1  0.36027777  0.38979668  0.92057622  1  0  -0.051597  0  3.554801  0  0  0.044996  0  3.767872  0  0  0.030131  0  3.794256  0  0  -0.239243  0.054828  0  3.749853  0
N  N125  1  0.97018471  0.61000083  0.57956429  1  0  -0.053791  0  3.557232  0  0  0.042652  0  3.770575  0  0  0.027796  0  3.796935  0  0  -0.239861  0.052509  0  3.752575  0
N  N126  1  0.63974066  0.61020848  0.07942147  1  0  -0.051697  0  3.554943  0  0  0.044823  0  3.767996  0  0  0.029959  0  3.794391  0  0  -0.2393  0.054653  0  3.749975  0
N  N127  1  0.02981383  0.38999550  0.42043049  1  0  -0.053781  0  3.556968  0  0  0.042677  0  3.770318  0  0  0.027809  0  3.796667  0  0  -0.23991  0.052535  0  3.752316  0
