# generated using pymatgen
data_ZnH29C33NO22
_symmetry_space_group_name_H-M   'P 1'
_cell_length_a   14.48013782
_cell_length_b   15.14995933
_cell_length_c   15.81994768
_cell_angle_alpha   86.71334499
_cell_angle_beta   82.58020657
_cell_angle_gamma   93.13677107
_symmetry_Int_Tables_number   1
_chemical_formula_structural   ZnH29C33NO22
_chemical_formula_sum   'Zn2 H58 C66 N2 O44'
_cell_volume   3428.98599721
_cell_formula_units_Z   2
loop_
 _symmetry_equiv_pos_site_id
 _symmetry_equiv_pos_as_xyz
  1  'x, y, z'
loop_
 _atom_site_type_symbol
 _atom_site_label
 _atom_site_symmetry_multiplicity
 _atom_site_fract_x
 _atom_site_fract_y
 _atom_site_fract_z
 _atom_site_occupancy
 _atom_site_pbe_bader_charge
 _atom_site_pbe_bader_spin_density
 _atom_site_pbe_cm5_charge
 _atom_site_pbe_ddec_charge
 _atom_site_pbe_ddec_spin_density
 _atom_site_pbe_ddec_sum_bond_order
 _atom_site_pbe_magmom
Zn  Zn0  1  0.60457442  0.50480074  0.49951266  1  1.326229  0  0.691323  0.890438  0  2.2922  0
Zn  Zn1  1  0.39468476  0.49812764  0.50012519  1  1.323757  0  0.694782  0.882343  0  2.312786  0
H  H2  1  0.24612626  0.41356971  0.18574089  1  0.026195  0  0.088415  0.079936  0  1.014585  0
H  H3  1  0.27157364  0.51918000  0.22813434  1  0.095083  0  0.097319  0.106954  0  1.054982  0
H  H4  1  0.25223787  0.42074127  0.29773360  1  0.078001  0  0.097086  0.104291  0  0.990908  0
H  H5  1  0.71174754  0.54346256  0.79246416  1  0.030159  0  0.082469  0.06973  0  1.037036  0
H  H6  1  0.67171870  0.55409117  0.68930508  1  0.087226  0  0.090668  0.098894  0  1.024972  0
H  H7  1  0.72322988  0.45447219  0.72073047  1  0.117531  0  0.09678  0.109984  0  1.007991  0
H  H8  1  0.98929494  0.50493123  0.32677295  1  0.049255  0  0.093083  0.085448  0  1.028738  0
H  H9  1  0.10269710  0.52998907  0.26554668  1  0.054723  0  0.102637  0.105515  0  1.000537  0
H  H10  1  0.01657401  0.61127771  0.27115023  1  0.089249  0  0.116463  0.129267  0  0.956602  0
H  H11  1  0.98423634  0.34237776  0.35873226  1  0.053019  0  0.093984  0.088734  0  1.005067  0
H  H12  1  0.86746358  0.29058556  0.38203384  1  0.095869  0  0.102214  0.115222  0  1.007494  0
H  H13  1  0.96608146  0.23203875  0.40791199  1  0.088619  0  0.118048  0.131892  0  0.954409  0
H  H14  1  0.34458590  0.72003030  0.41920443  1  0.669583  0  0.3169  0.35695  0  0.964087  0
H  H15  1  0.71122442  0.21058693  0.54426519  1  0.651295  0  0.353313  0.397687  0  0.830054  0
H  H16  1  0.31815083  0.28544655  0.63418751  1  0.662184  0  0.318487  0.35748  0  0.951047  0
H  H17  1  0.76425104  0.77103346  0.51837430  1  0.649939  0  0.357759  0.403102  0  0.820572  0
H  H18  1  0.02073745  0.45378341  0.70793212  1  0.032841  0  0.09042  0.082447  0  1.006341  0
H  H19  1  0.12542439  0.39454527  0.70740525  1  0.086987  0  0.101575  0.11194  0  1.017055  0
H  H20  1  0.01296030  0.33717393  0.73728434  1  0.081911  0  0.115562  0.128209  0  0.957911  0
H  H21  1  0.00321310  0.61021234  0.63510161  1  0.036963  0  0.091238  0.081992  0  1.017632  0
H  H22  1  0.90152593  0.67426926  0.63667381  1  0.046243  0  0.09682  0.099742  0  1.004405  0
H  H23  1  0.01535194  0.72434055  0.59573296  1  0.080997  0  0.119676  0.134471  0  0.951656  0
H  H24  1  0.17614643  0.57906277  0.72249545  1  0.576468  0  0.326599  0.358963  0  0.890133  0
H  H25  1  0.76540922  0.62598830  0.30454609  1  0.639783  0  0.31632  0.372627  0  0.928319  0
H  H26  1  0.35249945  0.79091847  0.02595800  1  0.068102  0  0.100368  0.100812  0  1.001727  0
H  H27  1  0.36050649  0.87142534  0.93711454  1  0.057922  0  0.100712  0.105831  0  0.980345  0
H  H28  1  0.43864832  0.88109728  0.01649740  1  0.042187  0  0.090293  0.084947  0  1.018216  0
H  H29  1  0.67226119  0.79006658  0.00792979  1  0.074288  0  0.095036  0.096166  0  1.019306  0
H  H30  1  0.62881672  0.87126685  0.07847420  1  0.058576  0  0.10144  0.106734  0  0.979094  0
H  H31  1  0.58552521  0.86182435  0.97732635  1  0.04096  0  0.08809  0.079636  0  1.046482  0
H  H32  1  0.76782400  0.54270695  0.09084050  1  0.065316  0  0.096304  0.097168  0  1.019268  0
H  H33  1  0.82422537  0.64896140  0.05633074  1  0.062153  0  0.102422  0.106551  0  0.978083  0
H  H34  1  0.75678911  0.59100241  0.98657922  1  0.045745  0  0.092259  0.092611  0  1.012856  0
H  H35  1  0.28329092  0.64644541  0.00183153  1  0.081441  0  0.094487  0.094633  0  1.051005  0
H  H36  1  0.21111527  0.60023824  0.92868303  1  0.040453  0  0.08631  0.083086  0  1.011991  0
H  H37  1  0.20057777  0.71286421  0.95638732  1  0.040424  0  0.101728  0.105295  0  0.977591  0
H  H38  1  0.55385766  0.42054158  0.94387596  1  0.083661  0  0.100989  0.103187  0  1.00257  0
H  H39  1  0.62426948  0.46530057  0.01815792  1  0.056146  0  0.097075  0.098771  0  1.017708  0
H  H40  1  0.67614017  0.44285813  0.91249856  1  0.031147  0  0.096239  0.096853  0  1.000746  0
H  H41  1  0.36190609  0.40677444  0.07206807  1  0.069964  0  0.099435  0.099932  0  1.010396  0
H  H42  1  0.40133358  0.46917863  0.97245897  1  0.055816  0  0.088481  0.082578  0  1.05315  0
H  H43  1  0.28116118  0.46615130  0.01672981  1  0.043041  0  0.102747  0.106905  0  0.984548  0
H  H44  1  0.57005572  0.96148883  0.75931666  1  0.623328  0  0.346745  0.381642  0  0.847911  0
H  H45  1  0.67251869  0.07752395  0.24005209  1  0.611632  0  0.348263  0.382037  0  0.847481  0
H  H46  1  0.68762201  0.76706556  0.71330201  1  0.616135  0  0.348292  0.387645  0  0.843634  0
H  H47  1  0.69480932  0.34156693  0.29207958  1  0.641846  0  0.324117  0.388948  0  0.880477  0
H  H48  1  0.55468504  0.69848695  0.32922691  1  0.087299  0  0.100555  0.114913  0  1.008425  0
H  H49  1  0.54098900  0.79951268  0.26737545  1  0.078696  0  0.10368  0.112221  0  0.979766  0
H  H50  1  0.45696602  0.70690225  0.27026147  1  0.11459  0  0.109392  0.128592  0  0.99154  0
H  H51  1  0.43122312  0.27413326  0.74592317  1  0.060969  0  0.111062  0.12222  0  0.963066  0
H  H52  1  0.52411319  0.30647978  0.66185338  1  0.112121  0  0.105589  0.129107  0  1.015534  0
H  H53  1  0.51743139  0.19698581  0.71335979  1  0.065067  0  0.100244  0.104378  0  0.986744  0
H  H54  1  0.35558685  0.01847128  0.42742213  1  0.035215  0  0.096469  0.095687  0  1.002286  0
H  H55  1  0.32341253  0.91588099  0.38295316  1  0.050877  0  0.099886  0.099803  0  0.989764  0
H  H56  1  0.36124246  0.01318915  0.31395198  1  0.100222  0  0.114307  0.123559  0  0.961027  0
H  H57  1  0.28773883  0.08748433  0.61257357  1  0.043949  0  0.103762  0.106417  0  0.993189  0
H  H58  1  0.32586949  0.08899989  0.71581219  1  0.076381  0  0.098483  0.098605  0  1.000507  0
H  H59  1  0.28810692  0.98554779  0.67687963  1  0.098452  0  0.112035  0.12048  0  0.96486  0
C  C60  1  0.52711867  0.66994447  0.50283486  1  1.638612  0  0.224931  0.619291  0  4.165276  0
C  C61  1  0.50729002  0.33545392  0.49732083  1  1.606631  0  0.223251  0.615038  0  4.179595  0
C  C62  1  0.55894373  0.90949710  0.56720979  1  0.02181  0  0.000367  -0.072667  0  3.897596  0
C  C63  1  0.56985178  0.11000604  0.42603714  1  0.023263  0  -0.007082  -0.089296  0  3.93207  0
C  C64  1  0.55967652  0.81650190  0.56925716  1  0.000325  0  -0.00477  -0.06597  0  3.929516  0
C  C65  1  0.56020053  0.20178063  0.42367961  1  0.058927  0  -0.002056  -0.050283  0  3.904185  0
C  C66  1  0.52516708  0.76935523  0.50449407  1  -0.002529  0  -0.000573  -0.105067  0  3.90108  0
C  C67  1  0.50801307  0.23733007  0.49354338  1  -0.018754  0  -0.010005  -0.129047  0  3.974461  0
C  C68  1  0.48935193  0.81680808  0.43855859  1  0.477664  0  0.091993  0.146911  0  4.000233  0
C  C69  1  0.46153637  0.18314815  0.56188162  1  0.497357  0  0.079507  0.134364  0  4.016248  0
C  C70  1  0.49345306  0.90963643  0.43404273  1  0.573849  0  0.088256  0.122728  0  4.027529  0
C  C71  1  0.46409041  0.09073680  0.56027652  1  0.604866  0  0.083355  0.103464  0  4.064267  0
C  C72  1  0.52771681  0.95686857  0.49833151  1  0.11734  0  0.003347  -0.001835  0  3.979973  0
C  C73  1  0.52269770  0.05449552  0.49471053  1  0.016427  0  -0.00418  -0.018927  0  3.977468  0
C  C74  1  0.11253380  0.53850095  0.43507407  1  0.596232  0  0.098656  0.158043  0  4.035099  0
C  C75  1  0.89231465  0.40717436  0.49826318  1  0.593233  0  0.105756  0.169446  0  4.011427  0
C  C76  1  0.20817714  0.54474495  0.44088493  1  0.500907  0  0.120461  0.026079  0  3.922909  0
C  C77  1  0.79463083  0.41421066  0.51181738  1  0.485193  0  0.122258  0.026206  0  3.871226  0
C  C78  1  0.19381814  0.42089936  0.53682922  1  0.560145  0  0.118512  0.018391  0  3.907179  0
C  C79  1  0.81447371  0.56738102  0.50200267  1  0.516416  0  0.117109  0.009284  0  3.9422  0
C  C80  1  0.09606471  0.42247360  0.54757017  1  0.557674  0  0.097055  0.15963  0  4.042836  0
C  C81  1  0.90995903  0.56440870  0.50897950  1  0.575699  0  0.09814  0.161904  0  4.03182  0
C  C82  1  0.50818413  0.49770039  0.33599869  1  1.510659  0  0.21871  0.614272  0  4.14543  0
C  C83  1  0.45714915  0.50667725  0.66116242  1  1.594117  0  0.218761  0.613671  0  4.135914  0
C  C84  1  0.05363098  0.48025908  0.49409782  1  0.017456  0  -0.001601  -0.072176  0  3.998228  0
C  C85  1  0.95159119  0.48350178  0.50110114  1  0.062517  0  0.002415  -0.063751  0  4.007383  0
C  C86  1  0.52234131  0.50407246  0.24040312  1  0.187874  0  -0.020978  -0.131516  0  3.950674  0
C  C87  1  0.45163906  0.53567148  0.75049727  1  -0.008385  0  -0.016777  -0.115883  0  3.952856  0
C  C88  1  0.44643032  0.49332919  0.19347655  1  0.565729  0  0.089025  0.144648  0  4.036769  0
C  C89  1  0.52318046  0.52228132  0.80119728  1  0.571343  0  0.072077  0.117904  0  4.047447  0
C  C90  1  0.44559400  0.54740418  0.11774341  1  0.484734  0  0.074199  0.111234  0  3.999487  0
C  C91  1  0.52732267  0.56808842  0.87578385  1  0.483149  0  0.0774  0.111393  0  4.032114  0
C  C92  1  0.52130230  0.60894280  0.08856441  1  0.069073  0  -0.014893  -0.11556  0  4.022413  0
C  C93  1  0.46346507  0.63312188  0.89807296  1  0.082498  0  -0.018515  -0.121671  0  4.007346  0
C  C94  1  0.60525292  0.60031644  0.12476141  1  0.506174  0  0.081684  0.185391  0  4.015669  0
C  C95  1  0.38672900  0.63853014  0.85114763  1  0.483202  0  0.088056  0.200991  0  3.983476  0
C  C96  1  0.60621241  0.54810450  0.20022430  1  -0.07523  0  -0.023068  -0.165474  0  3.989182  0
C  C97  1  0.38074304  0.59109542  0.77884167  1  0.074026  0  -0.015871  -0.133811  0  3.950092  0
C  C98  1  0.51440840  0.68997062  0.03434988  1  0.527426  0  0.065736  0.10276  0  4.015826  0
C  C99  1  0.47915997  0.70032171  0.95896632  1  0.489071  0  0.062049  0.094155  0  4.027954  0
C  C100  1  0.28110015  0.44811082  0.23333584  1  0.368992  0  -0.147009  -0.18111  0  3.91733  0
C  C101  1  0.68019229  0.50775440  0.74335759  1  0.306561  0  -0.152024  -0.17545  0  3.908254  0
C  C102  1  0.04500379  0.55701924  0.30631897  1  0.369039  0  -0.129584  -0.164056  0  3.878719  0
C  C103  1  0.93664931  0.29687721  0.40328563  1  0.335506  0  -0.129374  -0.167066  0  3.856252  0
C  C104  1  0.26690829  0.62192281  0.39261276  1  1.58244  0  0.238082  0.571088  0  4.14476  0
C  C105  1  0.73574574  0.33353931  0.55217752  1  1.619116  0  0.241384  0.573118  0  4.14528  0
C  C106  1  0.23708514  0.33594135  0.56271131  1  1.597107  0  0.239729  0.581145  0  4.129322  0
C  C107  1  0.78723344  0.65863652  0.47592870  1  1.623508  0  0.250984  0.59956  0  4.134474  0
C  C108  1  0.05221241  0.39028790  0.69559926  1  0.349366  0  -0.133963  -0.173537  0  3.876973  0
C  C109  1  0.97022803  0.66332902  0.60166240  1  0.396915  0  -0.129898  -0.163449  0  3.882784  0
C  C110  1  0.30152935  0.61206869  0.72958591  1  1.518803  0  0.232849  0.618519  0  4.100961  0
C  C111  1  0.69243145  0.54539324  0.24399330  1  1.572661  0  0.231617  0.631056  0  4.122042  0
C  C112  1  0.40035636  0.83472274  0.98040700  1  0.373053  0  -0.14187  -0.172172  0  3.933541  0
C  C113  1  0.61072146  0.82541347  0.03112089  1  0.367499  0  -0.148698  -0.180648  0  3.943702  0
C  C114  1  0.76202207  0.60512056  0.05340545  1  0.372724  0  -0.140751  -0.174054  0  3.918442  0
C  C115  1  0.24939354  0.66069846  0.94462935  1  0.374901  0  -0.144819  -0.175491  0  3.918879  0
C  C116  1  0.61404417  0.46548727  0.95061077  1  0.37035  0  -0.141239  -0.173695  0  3.905416  0
C  C117  1  0.35281270  0.46669949  0.03218787  1  0.367638  0  -0.141131  -0.174903  0  3.901955  0
C  C118  1  0.58810922  0.96056112  0.63885696  1  1.531333  0  0.229202  0.591561  0  4.12786  0
C  C119  1  0.63205778  0.06923695  0.35832996  1  1.515162  0  0.229896  0.588171  0  4.123912  0
C  C120  1  0.59252697  0.76623657  0.64254542  1  1.527289  0  0.233019  0.582469  0  4.114111  0
C  C121  1  0.59323455  0.26681699  0.34789436  1  1.569414  0  0.229956  0.593826  0  4.120721  0
C  C122  1  0.50440426  0.74295250  0.30657431  1  0.310415  0  -0.134298  -0.161605  0  3.79134  0
C  C123  1  0.47678036  0.25119524  0.69186197  1  0.338186  0  -0.133195  -0.172639  0  3.813819  0
C  C124  1  0.37038917  0.97624115  0.37351417  1  0.377733  0  -0.130356  -0.16045  0  3.882952  0
C  C125  1  0.32389320  0.05087273  0.65909210  1  0.35932  0  -0.131777  -0.169119  0  3.889723  0
N  N126  1  0.24807271  0.48624194  0.49042472  1  -1.187549  0  -0.2884  -0.212328  0  3.464428  0
N  N127  1  0.75661650  0.49405502  0.50731979  1  -1.174655  0  -0.277532  -0.213694  0  3.423847  0
O  O128  1  0.60588178  0.63736279  0.50751296  1  -1.157548  0  -0.311832  -0.551644  0  2.389569  0
O  O129  1  0.42988342  0.36856334  0.51403717  1  -1.160551  0  -0.297577  -0.530529  0  2.415037  0
O  O130  1  0.45188889  0.62821920  0.49403724  1  -1.160695  0  -0.294083  -0.530942  0  2.403493  0
O  O131  1  0.58800215  0.37562673  0.48415233  1  -1.15229  0  -0.303677  -0.541382  0  2.433461  0
O  O132  1  0.57975908  0.51730308  0.37234521  1  -1.174276  0  -0.310277  -0.559902  0  2.384303  0
O  O133  1  0.38110738  0.50551385  0.62836659  1  -1.144808  0  -0.305954  -0.529962  0  2.368432  0
O  O134  1  0.42502879  0.48590371  0.37380658  1  -1.144257  0  -0.310402  -0.531033  0  2.361216  0
O  O135  1  0.53647260  0.49080282  0.62271588  1  -1.174405  0  -0.310907  -0.554262  0  2.392329  0
O  O136  1  0.37826636  0.42999036  0.22337303  1  -1.074102  0  -0.185236  -0.133743  0  2.589193  0
O  O137  1  0.59116684  0.46482267  0.77838668  1  -1.063205  0  -0.206865  -0.171485  0  2.554932  0
O  O138  1  0.07896745  0.59567519  0.37840109  1  -1.064233  0  -0.191009  -0.168186  0  2.587269  0
O  O139  1  0.93052479  0.32778723  0.48871519  1  -1.062177  0  -0.195041  -0.171912  0  2.585115  0
O  O140  1  0.28827681  0.62890428  0.31515147  1  -1.083436  0  -0.271151  -0.459967  0  2.126413  0
O  O141  1  0.28968933  0.68021399  0.44734984  1  -1.158194  0  -0.326442  -0.457799  0  2.308704  0
O  O142  1  0.69350192  0.33595112  0.62391673  1  -1.113873  0  -0.26242  -0.452194  0  2.130049  0
O  O143  1  0.74557846  0.26034627  0.50902019  1  -1.13784  0  -0.307908  -0.451728  0  2.320326  0
O  O144  1  0.23546742  0.27582083  0.51459887  1  -1.081443  0  -0.279269  -0.451462  0  2.02579  0
O  O145  1  0.27364509  0.33413222  0.63572580  1  -1.163814  0  -0.325432  -0.46069  0  2.318439  0
O  O146  1  0.78411106  0.68152186  0.40109048  1  -1.120943  0  -0.256693  -0.45502  0  2.15043  0
O  O147  1  0.78006947  0.71243577  0.53999511  1  -1.138271  0  -0.311028  -0.465357  0  2.343614  0
O  O148  1  0.04318021  0.36783138  0.60924902  1  -1.057322  0  -0.194288  -0.17115  0  2.559748  0
O  O149  1  0.96134989  0.64160188  0.51537670  1  -1.065914  0  -0.195643  -0.175809  0  2.579716  0
O  O150  1  0.30167756  0.67377443  0.67696617  1  -1.110527  0  -0.2914  -0.471215  0  2.065585  0
O  O151  1  0.22301126  0.55760875  0.75690943  1  -1.090371  0  -0.352026  -0.508145  0  2.221202  0
O  O152  1  0.73500345  0.47836563  0.25553527  1  -1.162083  0  -0.316438  -0.542343  0  2.086217  0
O  O153  1  0.72121438  0.62705701  0.26178895  1  -1.13885  0  -0.335721  -0.479565  0  2.304988  0
O  O154  1  0.46304802  0.78447020  0.92717690  1  -1.045526  0  -0.206033  -0.175264  0  2.577665  0
O  O155  1  0.53978357  0.76384447  0.07635336  1  -1.050079  0  -0.198792  -0.172345  0  2.560862  0
O  O156  1  0.68310302  0.65151391  0.08716116  1  -1.072125  0  -0.198573  -0.173132  0  2.582575  0
O  O157  1  0.31599787  0.69413239  0.87302156  1  -1.066589  0  -0.205699  -0.187924  0  2.536267  0
O  O158  1  0.59851284  0.55564217  0.92395260  1  -1.064941  0  -0.196758  -0.179068  0  2.615165  0
O  O159  1  0.36669128  0.54557066  0.07708882  1  -1.071237  0  -0.20198  -0.181639  0  2.580629  0
O  O160  1  0.64099018  0.02717487  0.62990957  1  -1.150595  0  -0.301631  -0.503911  0  2.069585  0
O  O161  1  0.54602321  0.92589921  0.71621896  1  -1.099382  0  -0.326599  -0.470192  0  2.255883  0
O  O162  1  0.68287749  0.00950255  0.37136401  1  -1.124266  0  -0.296915  -0.489008  0  2.06023  0
O  O163  1  0.62751116  0.10686190  0.27892470  1  -1.100437  0  -0.328444  -0.471762  0  2.240765  0
O  O164  1  0.55305792  0.69993308  0.68042287  1  -1.121049  0  -0.250843  -0.43815  0  2.190987  0
O  O165  1  0.67459171  0.80299250  0.66318685  1  -1.107898  0  -0.341452  -0.500996  0  2.263015  0
O  O166  1  0.53613097  0.29937455  0.30712349  1  -1.111994  0  -0.276915  -0.457257  0  2.08817  0
O  O167  1  0.68572693  0.28859743  0.33290868  1  -1.145382  0  -0.337027  -0.493162  0  2.262021  0
O  O168  1  0.44501607  0.77535130  0.37820439  1  -1.090419  0  -0.192308  -0.193628  0  2.636005  0
O  O169  1  0.41488276  0.21867767  0.63330362  1  -1.084741  0  -0.198172  -0.202464  0  2.604144  0
O  O170  1  0.46650119  0.95385279  0.36404528  1  -1.074685  0  -0.198925  -0.181764  0  2.574825  0
O  O171  1  0.41672156  0.03293310  0.62187728  1  -1.087005  0  -0.184948  -0.152428  0  2.625147  0
