# generated using pymatgen
data_CdH8C12S2(N5O)2
_symmetry_space_group_name_H-M   'P 1'
_cell_length_a   10.89462107
_cell_length_b   11.00798948
_cell_length_c   13.84201065
_cell_angle_alpha   90.00021678
_cell_angle_beta   90.00010818
_cell_angle_gamma   89.99991366
_symmetry_Int_Tables_number   1
_chemical_formula_structural   CdH8C12S2(N5O)2
_chemical_formula_sum   'Cd4 H32 C48 S8 N40 O8'
_cell_volume   1660.04291167
_cell_formula_units_Z   4
loop_
 _symmetry_equiv_pos_site_id
 _symmetry_equiv_pos_as_xyz
  1  'x, y, z'
loop_
 _atom_site_type_symbol
 _atom_site_label
 _atom_site_symmetry_multiplicity
 _atom_site_fract_x
 _atom_site_fract_y
 _atom_site_fract_z
 _atom_site_occupancy
 _atom_site_hle17_bader_spin_density
 _atom_site_hle17_ddec_charge
 _atom_site_hle17_ddec_spin_density
 _atom_site_hle17_ddec_sum_bond_order
 _atom_site_hle17_magmom
 _atom_site_hse06_10hf_bader_spin_density
 _atom_site_hse06_10hf_ddec_charge
 _atom_site_hse06_10hf_ddec_spin_density
 _atom_site_hse06_10hf_ddec_sum_bond_order
 _atom_site_hse06_10hf_magmom
 _atom_site_hse06_bader_spin_density
 _atom_site_hse06_ddec_charge
 _atom_site_hse06_ddec_spin_density
 _atom_site_hse06_ddec_sum_bond_order
 _atom_site_hse06_magmom
 _atom_site_pbe_bader_spin_density
 _atom_site_pbe_cm5_charge
 _atom_site_pbe_ddec_charge
 _atom_site_pbe_ddec_spin_density
 _atom_site_pbe_ddec_sum_bond_order
 _atom_site_pbe_magmom
Cd  Cd0  1  0.56360065  0.72666932  0.86646449  1  0  1.061049  0  1.833743  0  0  0.85461  0  2.300962  0  0  0.903786  0  2.254376  0  0  0.835731  0.818691  0  2.334061  0
Cd  Cd1  1  0.93640087  0.27333165  0.36646519  1  0  1.061052  0  1.83368  0  0  0.854595  0  2.300915  0  0  0.903769  0  2.254329  0  0  0.835717  0.81867  0  2.334017  0
Cd  Cd2  1  0.06360161  0.77333041  0.13353382  1  0  1.061078  0  1.833663  0  0  0.85462  0  2.300911  0  0  0.903797  0  2.254327  0  0  0.835747  0.818699  0  2.334013  0
Cd  Cd3  1  0.43640403  0.22666838  0.63353434  1  0  1.061032  0  1.833701  0  0  0.854604  0  2.300933  0  0  0.903785  0  2.254346  0  0  0.835723  0.818688  0  2.334036  0
H  H4  1  0.07330801  0.98526635  0.83830242  1  0  0.104788  0  0.967277  0  0  0.109805  0  1.042059  0  0  0.113081  0  1.038461  0  0  0.103591  0.107408  0  1.044713  0
H  H5  1  0.42669445  0.01473888  0.33830595  1  0  0.104802  0  0.967207  0  0  0.109808  0  1.042011  0  0  0.113083  0  1.038418  0  0  0.103592  0.107413  0  1.044665  0
H  H6  1  0.57330749  0.51473155  0.16169735  1  0  0.104809  0  0.967214  0  0  0.109813  0  1.042016  0  0  0.113097  0  1.038399  0  0  0.103606  0.107417  0  1.044671  0
H  H7  1  0.92669628  0.48526298  0.66169790  1  0  0.104847  0  0.967218  0  0  0.109854  0  1.042011  0  0  0.113128  0  1.038421  0  0  0.10361  0.107459  0  1.044665  0
H  H8  1  0.15651378  0.09765333  0.68563042  1  0  0.107754  0  0.97118  0  0  0.117003  0  1.031608  0  0  0.119827  0  1.031265  0  0  0.098662  0.115  0  1.031917  0
H  H9  1  0.34348373  0.90234843  0.18563648  1  0  0.107794  0  0.971239  0  0  0.117043  0  1.031644  0  0  0.119857  0  1.03133  0  0  0.098707  0.115041  0  1.031947  0
H  H10  1  0.65651672  0.40234621  0.31436870  1  0  0.107797  0  0.971142  0  0  0.11702  0  1.031594  0  0  0.119839  0  1.031266  0  0  0.098665  0.11502  0  1.031897  0
H  H11  1  0.84348375  0.59765088  0.81436730  1  0  0.107771  0  0.971212  0  0  0.117004  0  1.031655  0  0  0.119829  0  1.031311  0  0  0.098673  0.115003  0  1.031963  0
H  H12  1  0.01798746  0.05132217  0.53091646  1  0  0.12594  0  0.962306  0  0  0.127732  0  1.036106  0  0  0.130836  0  1.034138  0  0  0.105473  0.125482  0  1.037578  0
H  H13  1  0.48200415  0.94867249  0.03091996  1  0  0.125888  0  0.96235  0  0  0.127651  0  1.036226  0  0  0.130754  0  1.034262  0  0  0.105447  0.125405  0  1.037693  0
H  H14  1  0.51799163  0.44867395  0.46908174  1  0  0.125863  0  0.9624  0  0  0.127685  0  1.03617  0  0  0.130788  0  1.034204  0  0  0.105435  0.125436  0  1.037646  0
H  H15  1  0.98200646  0.55132388  0.96908402  1  0  0.125989  0  0.962219  0  0  0.127737  0  1.036082  0  0  0.13084  0  1.034116  0  0  0.105462  0.125488  0  1.037554  0
H  H16  1  0.19919950  0.71898382  0.67876894  1  0  0.11057  0  0.94727  0  0  0.118885  0  1.012759  0  0  0.121566  0  1.010303  0  0  0.109165  0.116948  0  1.01439  0
H  H17  1  0.30079890  0.28102427  0.17877741  1  0  0.110511  0  0.947181  0  0  0.118865  0  1.012599  0  0  0.121564  0  1.010162  0  0  0.109156  0.116905  0  1.014272  0
H  H18  1  0.69919805  0.78102207  0.32122885  1  0  0.110564  0  0.947203  0  0  0.118885  0  1.012671  0  0  0.121544  0  1.010277  0  0  0.10916  0.116937  0  1.014329  0
H  H19  1  0.80079417  0.21897869  0.82122481  1  0  0.110529  0  0.94723  0  0  0.118855  0  1.012707  0  0  0.121526  0  1.010281  0  0  0.109151  0.116912  0  1.014362  0
H  H20  1  0.05525041  0.61471026  0.54985388  1  0  0.109831  0  0.960842  0  0  0.118135  0  1.023682  0  0  0.120851  0  1.023354  0  0  0.098582  0.116154  0  1.02419  0
H  H21  1  0.44474585  0.38529448  0.04986215  1  0  0.109887  0  0.960713  0  0  0.118173  0  1.023586  0  0  0.120885  0  1.023259  0  0  0.098634  0.116195  0  1.024092  0
H  H22  1  0.55525279  0.88529221  0.45014731  1  0  0.109812  0  0.960833  0  0  0.118145  0  1.023646  0  0  0.120862  0  1.023314  0  0  0.098576  0.116166  0  1.024152  0
H  H23  1  0.94474251  0.11470190  0.95014028  1  0  0.109928  0  0.960697  0  0  0.118206  0  1.023563  0  0  0.120921  0  1.023237  0  0  0.098667  0.116227  0  1.024067  0
H  H24  1  0.07787596  0.71858711  0.37900170  1  0  0.128965  0  0.960215  0  0  0.135958  0  1.024488  0  0  0.13877  0  1.022393  0  0  0.107949  0.133922  0  1.026011  0
H  H25  1  0.42212293  0.28141376  0.87901031  1  0  0.128968  0  0.960244  0  0  0.135929  0  1.024558  0  0  0.138744  0  1.022445  0  0  0.10793  0.133897  0  1.026077  0
H  H26  1  0.57787708  0.78140805  0.62099518  1  0  0.128908  0  0.960361  0  0  0.135902  0  1.024639  0  0  0.138717  0  1.022542  0  0  0.107916  0.133869  0  1.02616  0
H  H27  1  0.92212384  0.21858447  0.12099209  1  0  0.129017  0  0.96019  0  0  0.135934  0  1.024551  0  0  0.138744  0  1.022452  0  0  0.107941  0.133899  0  1.02607  0
H  H28  1  0.97464383  0.85485331  0.92087976  1  0  0.315646  0  0.88741  0  0  0.291222  0  0.963838  0  0  0.299262  0  0.956807  0  0  0.32203  0.285217  0  0.969369  0
H  H29  1  0.52536057  0.14514792  0.42087949  1  0  0.315623  0  0.887406  0  0  0.291255  0  0.963785  0  0  0.299296  0  0.956751  0  0  0.322037  0.285251  0  0.969316  0
H  H30  1  0.47464301  0.64514489  0.07911915  1  0  0.315694  0  0.887505  0  0  0.291245  0  0.96395  0  0  0.299286  0  0.956919  0  0  0.322039  0.28524  0  0.969481  0
H  H31  1  0.02536066  0.35485091  0.57912306  1  0  0.315442  0  0.887517  0  0  0.291163  0  0.963799  0  0  0.299204  0  0.956765  0  0  0.321989  0.285156  0  0.96933  0
H  H32  1  0.32585190  0.84230068  0.74369114  1  0  0.300353  0  0.932211  0  0  0.266721  0  1.027482  0  0  0.275833  0  1.019224  0  0  0.308293  0.260103  0  1.033667  0
H  H33  1  0.17414942  0.15769864  0.24370267  1  0  0.300275  0  0.932244  0  0  0.266656  0  1.027555  0  0  0.27577  0  1.0193  0  0  0.308222  0.260033  0  1.033732  0
H  H34  1  0.82585139  0.65769684  0.25630178  1  0  0.300276  0  0.932209  0  0  0.26667  0  1.027492  0  0  0.275785  0  1.019234  0  0  0.30826  0.260053  0  1.033664  0
H  H35  1  0.67414894  0.34230451  0.75630153  1  0  0.300351  0  0.932079  0  0  0.266725  0  1.027392  0  0  0.275838  0  1.01914  0  0  0.308244  0.260104  0  1.033569  0
C  C36  1  0.81785006  0.78920672  0.98265309  1  0  0.517986  0  3.797712  0  0  0.467608  0  4.071463  0  0  0.488847  0  4.083527  0  0  0.335676  0.453269  0  4.062969  0
C  C37  1  0.68214990  0.21079482  0.48265468  1  0  0.518092  0  3.797653  0  0  0.467746  0  4.071467  0  0  0.488986  0  4.083531  0  0  0.335728  0.453405  0  4.062977  0
C  C38  1  0.31784808  0.71079263  0.01734487  1  0  0.517951  0  3.79776  0  0  0.467601  0  4.071505  0  0  0.488841  0  4.083568  0  0  0.33569  0.453261  0  4.063011  0
C  C39  1  0.18214810  0.28920651  0.51734520  1  0  0.518052  0  3.797771  0  0  0.467739  0  4.071513  0  0  0.488976  0  4.083574  0  0  0.335682  0.453395  0  4.063024  0
C  C40  1  0.84733960  0.84099685  0.81108852  1  0  0.586959  0  3.841313  0  0  0.53619  0  4.127548  0  0  0.568833  0  4.123905  0  0  0.242762  0.514113  0  4.129393  0
C  C41  1  0.65266270  0.15900477  0.31108775  1  0  0.586761  0  3.841596  0  0  0.536112  0  4.127759  0  0  0.568755  0  4.124116  0  0  0.242692  0.514033  0  4.129606  0
C  C42  1  0.34733352  0.65900337  0.18891093  1  0  0.586883  0  3.841324  0  0  0.536094  0  4.127606  0  0  0.568736  0  4.123962  0  0  0.242654  0.514012  0  4.129451  0
C  C43  1  0.15266032  0.34100114  0.68891137  1  0  0.586883  0  3.841101  0  0  0.536104  0  4.127417  0  0  0.56875  0  4.123774  0  0  0.242734  0.514025  0  4.129264  0
C  C44  1  0.92525315  0.91206138  0.74732771  1  0  -0.185347  0  3.767699  0  0  -0.162192  0  4.028499  0  0  -0.173968  0  4.053069  0  0  -0.033567  -0.154457  0  4.011813  0
C  C45  1  0.57474716  0.08793993  0.24732806  1  0  -0.185231  0  3.767555  0  0  -0.162094  0  4.02831  0  0  -0.173868  0  4.052875  0  0  -0.033523  -0.154365  0  4.011635  0
C  C46  1  0.42525375  0.58793599  0.25267257  1  0  -0.185493  0  3.767656  0  0  -0.162308  0  4.028438  0  0  -0.174083  0  4.053005  0  0  -0.033591  -0.15456  0  4.011736  0
C  C47  1  0.07474942  0.41206065  0.75267600  1  0  -0.185285  0  3.76762  0  0  -0.16209  0  4.028382  0  0  -0.173868  0  4.052952  0  0  -0.033526  -0.154366  0  4.011717  0
C  C48  1  0.03001592  0.97986104  0.76747597  1  0  -0.063128  0  3.728634  0  0  -0.09513  0  3.985525  0  0  -0.090229  0  4.003829  0  0  -0.095163  -0.097904  0  3.972709  0
C  C49  1  0.46998453  0.02014202  0.26747886  1  0  -0.063129  0  3.728575  0  0  -0.095129  0  3.98548  0  0  -0.090227  0  4.003775  0  0  -0.095178  -0.097902  0  3.972666  0
C  C50  1  0.53001832  0.52013692  0.23252302  1  0  -0.063025  0  3.728572  0  0  -0.095016  0  3.985427  0  0  -0.090115  0  4.003729  0  0  -0.095154  -0.097794  0  3.972617  0
C  C51  1  0.96998562  0.47985705  0.73252217  1  0  -0.06317  0  3.728559  0  0  -0.095178  0  3.985464  0  0  -0.090278  0  4.003762  0  0  -0.095173  -0.097949  0  3.97265  0
C  C52  1  0.07522324  0.04042314  0.68515636  1  0  -0.090746  0  3.775532  0  0  -0.105561  0  4.035667  0  0  -0.112518  0  4.058885  0  0  -0.114785  -0.101023  0  4.01983  0
C  C53  1  0.42477334  0.95957681  0.18516270  1  0  -0.090822  0  3.775437  0  0  -0.105623  0  4.035557  0  0  -0.112582  0  4.058763  0  0  -0.114788  -0.101092  0  4.019742  0
C  C54  1  0.57522610  0.45957380  0.31484120  1  0  -0.090858  0  3.775483  0  0  -0.105649  0  4.035625  0  0  -0.112611  0  4.058844  0  0  -0.114802  -0.10111  0  4.019794  0
C  C55  1  0.92477345  0.54042238  0.81484047  1  0  -0.090769  0  3.775351  0  0  -0.105567  0  4.035472  0  0  -0.112524  0  4.058689  0  0  -0.114775  -0.101032  0  4.01965  0
C  C56  1  0.00452314  0.01825183  0.60405100  1  0  -0.134002  0  3.669545  0  0  -0.158841  0  3.958734  0  0  -0.15582  0  3.975806  0  0  -0.09076  -0.160705  0  3.947355  0
C  C57  1  0.49546958  0.98174409  0.10405463  1  0  -0.133988  0  3.669214  0  0  -0.158838  0  3.95838  0  0  -0.155817  0  3.975449  0  0  -0.09081  -0.160702  0  3.946999  0
C  C58  1  0.50452524  0.48174431  0.39594718  1  0  -0.133961  0  3.669452  0  0  -0.15882  0  3.958622  0  0  -0.155799  0  3.975696  0  0  -0.090738  -0.160685  0  3.947251  0
C  C59  1  0.99547360  0.51825408  0.89595082  1  0  -0.134079  0  3.669244  0  0  -0.158889  0  3.958444  0  0  -0.155871  0  3.975518  0  0  -0.090785  -0.160753  0  3.947065  0
C  C60  1  0.45460709  0.97575368  0.75732962  1  0  0.500648  0  3.826374  0  0  0.449515  0  4.101815  0  0  0.470403  0  4.114111  0  0  0.324042  0.435455  0  4.093037  0
C  C61  1  0.04539609  0.02424570  0.25733335  1  0  0.500698  0  3.826405  0  0  0.449432  0  4.102027  0  0  0.47032  0  4.114324  0  0  0.324074  0.435371  0  4.093248  0
C  C62  1  0.95460676  0.52424546  0.24266709  1  0  0.50065  0  3.826351  0  0  0.449516  0  4.101766  0  0  0.470404  0  4.114063  0  0  0.324115  0.435457  0  4.092989  0
C  C63  1  0.54539813  0.47575583  0.74266634  1  0  0.500761  0  3.826418  0  0  0.449578  0  4.1019  0  0  0.470467  0  4.114197  0  0  0.324058  0.435515  0  4.093127  0
C  C64  1  0.34684460  0.92627661  0.60821168  1  0  0.579317  0  3.850784  0  0  0.532613  0  4.131942  0  0  0.564413  0  4.129327  0  0  0.235706  0.511009  0  4.13307  0
C  C65  1  0.15315914  0.07372841  0.10822005  1  0  0.579338  0  3.850706  0  0  0.532603  0  4.131835  0  0  0.564405  0  4.129216  0  0  0.235709  0.510998  0  4.132958  0
C  C66  1  0.84683996  0.57372542  0.39178271  1  0  0.579305  0  3.850659  0  0  0.532591  0  4.131776  0  0  0.564392  0  4.129154  0  0  0.235704  0.510988  0  4.132903  0
C  C67  1  0.65315978  0.42627477  0.89178268  1  0  0.579265  0  3.850875  0  0  0.532555  0  4.132024  0  0  0.564357  0  4.129403  0  0  0.235645  0.510949  0  4.133157  0
C  C68  1  0.25937943  0.84303885  0.56439344  1  0  -0.185309  0  3.78124  0  0  -0.160723  0  4.042546  0  0  -0.172915  0  4.068022  0  0  -0.033152  -0.152739  0  4.025634  0
C  C69  1  0.24062237  0.15696597  0.06440001  1  0  -0.185163  0  3.78124  0  0  -0.160459  0  4.042353  0  0  -0.172651  0  4.06784  0  0  -0.033065  -0.152469  0  4.02543  0
C  C70  1  0.75937661  0.65696150  0.43560227  1  0  -0.18514  0  3.781171  0  0  -0.1605  0  4.042379  0  0  -0.172687  0  4.067847  0  0  -0.033091  -0.152514  0  4.025466  0
C  C71  1  0.74062141  0.34303890  0.93560285  1  0  -0.185018  0  3.781227  0  0  -0.160465  0  4.042576  0  0  -0.172661  0  4.068068  0  0  -0.033106  -0.152472  0  4.025641  0
C  C72  1  0.19232811  0.74784268  0.60376181  1  0  -0.046042  0  3.721986  0  0  -0.078835  0  3.977565  0  0  -0.073195  0  3.994957  0  0  -0.087542  -0.082009  0  3.965256  0
C  C73  1  0.30767379  0.25216505  0.10376804  1  0  -0.045993  0  3.721788  0  0  -0.07882  0  3.977346  0  0  -0.073222  0  3.994712  0  0  -0.087498  -0.081987  0  3.965037  0
C  C74  1  0.69232597  0.75215958  0.39623669  1  0  -0.046154  0  3.721671  0  0  -0.07894  0  3.977234  0  0  -0.073304  0  3.994607  0  0  -0.087589  -0.082113  0  3.964923  0
C  C75  1  0.80766736  0.24784063  0.89623347  1  0  -0.046055  0  3.721762  0  0  -0.0788  0  3.977276  0  0  -0.073162  0  3.994656  0  0  -0.087468  -0.081979  0  3.964968  0
C  C76  1  0.11551493  0.69121825  0.53503321  1  0  -0.091821  0  3.773398  0  0  -0.10728  0  4.036491  0  0  -0.113026  0  4.057445  0  0  -0.109227  -0.103496  0  4.022263  0
C  C77  1  0.38448404  0.30878734  0.03503900  1  0  -0.091739  0  3.77351  0  0  -0.10722  0  4.036661  0  0  -0.112963  0  4.057622  0  0  -0.109253  -0.103434  0  4.022427  0
C  C78  1  0.61551471  0.80878413  0.46497023  1  0  -0.091666  0  3.773266  0  0  -0.107164  0  4.036383  0  0  -0.112905  0  4.05733  0  0  -0.109166  -0.103376  0  4.022152  0
C  C79  1  0.88447970  0.19121277  0.96496262  1  0  -0.091843  0  3.77326  0  0  -0.10729  0  4.036385  0  0  -0.113033  0  4.057332  0  0  -0.109312  -0.103506  0  4.022156  0
C  C80  1  0.12538571  0.74370990  0.44480002  1  0  -0.131955  0  3.67675  0  0  -0.159108  0  3.966587  0  0  -0.155639  0  3.982367  0  0  -0.093214  -0.160881  0  3.955713  0
C  C81  1  0.37461426  0.25629493  0.94481065  1  0  -0.132064  0  3.676801  0  0  -0.159198  0  3.966669  0  0  -0.155718  0  3.982435  0  0  -0.09321  -0.160983  0  3.955825  0
C  C82  1  0.62538211  0.75629247  0.55519694  1  0  -0.131874  0  3.676742  0  0  -0.159042  0  3.966576  0  0  -0.155575  0  3.982357  0  0  -0.093129  -0.160824  0  3.955723  0
C  C83  1  0.87461314  0.24370429  0.05519096  1  0  -0.13204  0  3.676678  0  0  -0.159133  0  3.966535  0  0  -0.155658  0  3.982309  0  0  -0.09319  -0.160914  0  3.955685  0
S  S84  1  0.88420888  0.92407149  0.62692612  1  0  0.216581  0  2.640842  0  0  0.218918  0  2.965183  0  0  0.217522  0  2.976965  0  0  0.118238  0.219065  0  2.957804  0
S  S85  1  0.61578838  0.07592651  0.12692721  1  0  0.216592  0  2.640616  0  0  0.218941  0  2.96495  0  0  0.217542  0  2.976728  0  0  0.118265  0.219091  0  2.957572  0
S  S86  1  0.38421164  0.57592412  0.37307266  1  0  0.216645  0  2.640869  0  0  0.218967  0  2.965221  0  0  0.217569  0  2.977003  0  0  0.118247  0.219111  0  2.957838  0
S  S87  1  0.11579091  0.42407309  0.87307547  1  0  0.216603  0  2.640778  0  0  0.218935  0  2.965101  0  0  0.21754  0  2.976883  0  0  0.118248  0.219086  0  2.957727  0
S  S88  1  0.22663742  0.86170775  0.44297611  1  0  0.180128  0  2.64588  0  0  0.18106  0  2.980461  0  0  0.179146  0  2.990248  0  0  0.093966  0.182057  0  2.974279  0
S  S89  1  0.27336255  0.13829434  0.94298408  1  0  0.180026  0  2.645856  0  0  0.180925  0  2.98038  0  0  0.17901  0  2.990161  0  0  0.093857  0.181923  0  2.974204  0
S  S90  1  0.72663676  0.63828992  0.55701955  1  0  0.179936  0  2.645684  0  0  0.180849  0  2.980249  0  0  0.178932  0  2.990035  0  0  0.093846  0.181849  0  2.974075  0
S  S91  1  0.77336217  0.36170957  0.05701594  1  0  0.179944  0  2.645905  0  0  0.180887  0  2.980466  0  0  0.178972  0  2.990249  0  0  0.09386  0.181885  0  2.974289  0
N  N92  1  0.69924477  0.75553490  0.98424015  1  0  -0.388997  0  3.161692  0  0  -0.318905  0  3.456206  0  0  -0.340046  0  3.468587  0  0  -0.257674  -0.304324  0  3.447723  0
N  N93  1  0.80075887  0.24446573  0.48424274  1  0  -0.389193  0  3.161776  0  0  -0.3191  0  3.456311  0  0  -0.340245  0  3.46869  0  0  -0.257755  -0.304517  0  3.447829  0
N  N94  1  0.19924457  0.74446553  0.01575764  1  0  -0.389044  0  3.161698  0  0  -0.318962  0  3.456223  0  0  -0.340104  0  3.468602  0  0  -0.257709  -0.304381  0  3.447739  0
N  N95  1  0.30075894  0.25553360  0.51575949  1  0  -0.389104  0  3.161514  0  0  -0.319025  0  3.456017  0  0  -0.340166  0  3.468393  0  0  -0.257669  -0.304446  0  3.447542  0
N  N96  1  0.67554760  0.71964426  0.07605555  1  0  -0.076193  0  2.994108  0  0  -0.071361  0  3.294598  0  0  -0.07028  0  3.306874  0  0  -0.091155  -0.071907  0  3.286531  0
N  N97  1  0.82445688  0.28035532  0.57605751  1  0  -0.075916  0  2.993951  0  0  -0.071081  0  3.294432  0  0  -0.069996  0  3.306709  0  0  -0.091013  -0.071628  0  3.286366  0
N  N98  1  0.17554771  0.78035621  0.92394293  1  0  -0.076068  0  2.99403  0  0  -0.07122  0  3.294512  0  0  -0.070139  0  3.306791  0  0  -0.091105  -0.071764  0  3.286445  0
N  N99  1  0.32445496  0.21964306  0.42394403  1  0  -0.075961  0  2.993903  0  0  -0.071122  0  3.294382  0  0  -0.070035  0  3.306656  0  0  -0.091081  -0.07167  0  3.286316  0
N  N100  1  0.77501600  0.73152931  0.12745207  1  0  -0.071301  0  3.029898  0  0  -0.057556  0  3.330069  0  0  -0.057069  0  3.341677  0  0  -0.085992  -0.057632  0  3.322011  0
N  N101  1  0.72498952  0.26847051  0.62745313  1  0  -0.071377  0  3.029675  0  0  -0.057616  0  3.329842  0  0  -0.05713  0  3.34145  0  0  -0.086051  -0.05769  0  3.321787  0
N  N102  1  0.27501510  0.76847101  0.87254727  1  0  -0.071434  0  3.029964  0  0  -0.057707  0  3.330145  0  0  -0.057223  0  3.341753  0  0  -0.086048  -0.057789  0  3.322092  0
N  N103  1  0.22498470  0.23152893  0.37254754  1  0  -0.07152  0  3.029783  0  0  -0.057787  0  3.329973  0  0  -0.057307  0  3.341582  0  0  -0.086073  -0.057859  0  3.321911  0
N  N104  1  0.88479031  0.83457353  0.90635143  1  0  -0.481021  0  3.295987  0  0  -0.419885  0  3.537535  0  0  -0.442796  0  3.540748  0  0  -0.382318  -0.404177  0  3.535392  0
N  N105  1  0.61521222  0.16542854  0.40635062  1  0  -0.481011  0  3.296008  0  0  -0.420064  0  3.537665  0  0  -0.442978  0  3.540875  0  0  -0.382328  -0.404346  0  3.53551  0
N  N106  1  0.38479225  0.66542481  0.09364663  1  0  -0.481114  0  3.295841  0  0  -0.419974  0  3.537457  0  0  -0.442886  0  3.540668  0  0  -0.382342  -0.404264  0  3.535314  0
N  N107  1  0.11521696  0.33457288  0.59365061  1  0  -0.480808  0  3.296153  0  0  -0.419902  0  3.537727  0  0  -0.442813  0  3.540939  0  0  -0.38222  -0.404181  0  3.535565  0
N  N108  1  0.52285007  0.92635786  0.82770377  1  0  -0.407345  0  3.147911  0  0  -0.342811  0  3.446462  0  0  -0.363258  0  3.459292  0  0  -0.255972  -0.328396  0  3.437304  0
N  N109  1  0.97714860  0.07364020  0.32770538  1  0  -0.407381  0  3.148039  0  0  -0.342832  0  3.44666  0  0  -0.363278  0  3.459494  0  0  -0.256026  -0.328418  0  3.437503  0
N  N110  1  0.02285234  0.57364012  0.17229593  1  0  -0.407373  0  3.14807  0  0  -0.342845  0  3.44663  0  0  -0.363292  0  3.459462  0  0  -0.256028  -0.328432  0  3.437473  0
N  N111  1  0.47714972  0.42635886  0.67229277  1  0  -0.407377  0  3.148017  0  0  -0.342833  0  3.446591  0  0  -0.363283  0  3.459426  0  0  -0.256025  -0.328421  0  3.437437  0
N  N112  1  0.36779176  0.91135949  0.70567656  1  0  -0.501173  0  3.333615  0  0  -0.440129  0  3.582356  0  0  -0.463002  0  3.584975  0  0  -0.393792  -0.424256  0  3.580136  0
N  N113  1  0.13220671  0.08863783  0.20568350  1  0  -0.501054  0  3.333692  0  0  -0.44  0  3.582382  0  0  -0.462874  0  3.585001  0  0  -0.393667  -0.424111  0  3.580152  0
N  N114  1  0.86778962  0.58864070  0.29432003  1  0  -0.500942  0  3.333296  0  0  -0.440004  0  3.582075  0  0  -0.462881  0  3.584699  0  0  -0.39374  -0.424126  0  3.579853  0
N  N115  1  0.63220713  0.41136538  0.79431993  1  0  -0.501167  0  3.333652  0  0  -0.440135  0  3.582343  0  0  -0.463017  0  3.58497  0  0  -0.393668  -0.424246  0  3.580113  0
N  N116  1  0.59596669  0.01666861  0.86160867  1  0  -0.063643  0  2.947852  0  0  -0.06234  0  3.249903  0  0  -0.060643  0  3.26253  0  0  -0.099139  -0.063178  0  3.24107  0
N  N117  1  0.90403206  0.98332871  0.36160638  1  0  -0.063652  0  2.948026  0  0  -0.062329  0  3.250048  0  0  -0.060632  0  3.262677  0  0  -0.099141  -0.063168  0  3.241219  0
N  N118  1  0.09596918  0.48332830  0.13839253  1  0  -0.063689  0  2.948027  0  0  -0.062367  0  3.25005  0  0  -0.06067  0  3.262678  0  0  -0.099141  -0.063205  0  3.241217  0
N  N119  1  0.40403463  0.51666960  0.63838881  1  0  -0.063731  0  2.948087  0  0  -0.062442  0  3.250144  0  0  -0.060743  0  3.262772  0  0  -0.099163  -0.06328  0  3.241312  0
N  N120  1  0.57331226  0.11598274  0.81349802  1  0  -0.075744  0  2.987069  0  0  -0.070973  0  3.293119  0  0  -0.070773  0  3.306823  0  0  -0.093949  -0.071033  0  3.283951  0
N  N121  1  0.92668546  0.88401525  0.31349402  1  0  -0.075821  0  2.987161  0  0  -0.071054  0  3.293201  0  0  -0.070854  0  3.306908  0  0  -0.093984  -0.071114  0  3.284031  0
N  N122  1  0.07331318  0.38401420  0.18650315  1  0  -0.075729  0  2.987197  0  0  -0.070969  0  3.293235  0  0  -0.070768  0  3.306944  0  0  -0.093963  -0.071029  0  3.284063  0
N  N123  1  0.42668524  0.61598484  0.68650048  1  0  -0.075486  0  2.986862  0  0  -0.07068  0  3.292858  0  0  -0.070485  0  3.306564  0  0  -0.093803  -0.070738  0  3.283688  0
N  N124  1  0.86659137  0.77502842  0.07088383  1  0  -0.400904  0  3.114821  0  0  -0.340454  0  3.409364  0  0  -0.360549  0  3.421114  0  0  -0.253001  -0.326216  0  3.400947  0
N  N125  1  0.63341218  0.22497113  0.57088390  1  0  -0.400962  0  3.114943  0  0  -0.340534  0  3.409524  0  0  -0.360626  0  3.421262  0  0  -0.253022  -0.326299  0  3.401113  0
N  N126  1  0.36659066  0.72497176  0.92911492  1  0  -0.400775  0  3.114879  0  0  -0.340324  0  3.409392  0  0  -0.360421  0  3.421148  0  0  -0.252956  -0.326086  0  3.400975  0
N  N127  1  0.13341110  0.27502845  0.42911880  1  0  -0.40081  0  3.115034  0  0  -0.340346  0  3.409513  0  0  -0.360448  0  3.421287  0  0  -0.252986  -0.326111  0  3.401098  0
N  N128  1  0.48362482  0.09353804  0.74769389  1  0  -0.397705  0  3.179024  0  0  -0.323995  0  3.472556  0  0  -0.344964  0  3.48463  0  0  -0.262164  -0.309446  0  3.464013  0
N  N129  1  0.01637375  0.90646039  0.24769226  1  0  -0.397709  0  3.179004  0  0  -0.323953  0  3.472582  0  0  -0.34492  0  3.484656  0  0  -0.262174  -0.309403  0  3.464038  0
N  N130  1  0.98362577  0.40646010  0.25230499  1  0  -0.397707  0  3.179166  0  0  -0.323969  0  3.472661  0  0  -0.344932  0  3.484732  0  0  -0.262131  -0.309417  0  3.464115  0
N  N131  1  0.51637272  0.59354123  0.75230526  1  0  -0.397916  0  3.178982  0  0  -0.324212  0  3.47257  0  0  -0.345174  0  3.484635  0  0  -0.262251  -0.309661  0  3.46403  0
O  O132  1  0.75233308  0.78953695  0.78106094  1  0  -0.570972  0  2.013128  0  0  -0.516999  0  2.266064  0  0  -0.538737  0  2.255181  0  0  -0.297117  -0.501679  0  2.27294  0
O  O133  1  0.74766639  0.21046543  0.28106119  1  0  -0.570833  0  2.013335  0  0  -0.516893  0  2.266251  0  0  -0.538618  0  2.255343  0  0  -0.297069  -0.501573  0  2.273128  0
O  O134  1  0.25233802  0.71046159  0.21893692  1  0  -0.570786  0  2.01337  0  0  -0.516815  0  2.266359  0  0  -0.538537  0  2.255449  0  0  -0.296999  -0.501498  0  2.273239  0
O  O135  1  0.24767701  0.28954124  0.71894169  1  0  -0.570996  0  2.012856  0  0  -0.517015  0  2.265797  0  0  -0.538759  0  2.254918  0  0  -0.297166  -0.501691  0  2.272672  0
O  O136  1  0.39991546  0.00735389  0.56014942  1  0  -0.583151  0  1.946139  0  0  -0.532869  0  2.187015  0  0  -0.553514  0  2.176981  0  0  -0.310196  -0.51841  0  2.19368  0
O  O137  1  0.10008541  0.99264637  0.06015249  1  0  -0.583295  0  1.945926  0  0  -0.532973  0  2.18678  0  0  -0.553614  0  2.176736  0  0  -0.310239  -0.518514  0  2.193445  0
O  O138  1  0.89991306  0.49264529  0.43984790  1  0  -0.583328  0  1.946016  0  0  -0.532974  0  2.186847  0  0  -0.553615  0  2.176808  0  0  -0.310241  -0.518514  0  2.193511  0
O  O139  1  0.60008405  0.50735694  0.93984804  1  0  -0.583283  0  1.946109  0  0  -0.532951  0  2.186946  0  0  -0.553595  0  2.176906  0  0  -0.310203  -0.518489  0  2.193611  0
