# generated using pymatgen
data_CdH8C10(SeN3)2
_symmetry_space_group_name_H-M   'P 1'
_cell_length_a   5.75960089
_cell_length_b   8.66179938
_cell_length_c   14.28105188
_cell_angle_alpha   77.50839451
_cell_angle_beta   90.00176665
_cell_angle_gamma   89.99645237
_symmetry_Int_Tables_number   1
_chemical_formula_structural   CdH8C10(SeN3)2
_chemical_formula_sum   'Cd2 H16 C20 Se4 N12'
_cell_volume   695.59478963
_cell_formula_units_Z   2
loop_
 _symmetry_equiv_pos_site_id
 _symmetry_equiv_pos_as_xyz
  1  'x, y, z'
loop_
 _atom_site_type_symbol
 _atom_site_label
 _atom_site_symmetry_multiplicity
 _atom_site_fract_x
 _atom_site_fract_y
 _atom_site_fract_z
 _atom_site_occupancy
 _atom_site_hle17_bader_spin_density
 _atom_site_hle17_ddec_charge
 _atom_site_hle17_ddec_spin_density
 _atom_site_hle17_ddec_sum_bond_order
 _atom_site_hle17_magmom
 _atom_site_hse06_10hf_bader_spin_density
 _atom_site_hse06_10hf_ddec_charge
 _atom_site_hse06_10hf_ddec_spin_density
 _atom_site_hse06_10hf_ddec_sum_bond_order
 _atom_site_hse06_10hf_magmom
 _atom_site_hse06_bader_spin_density
 _atom_site_hse06_ddec_charge
 _atom_site_hse06_ddec_spin_density
 _atom_site_hse06_ddec_sum_bond_order
 _atom_site_hse06_magmom
 _atom_site_pbe_bader_spin_density
 _atom_site_pbe_cm5_charge
 _atom_site_pbe_ddec_charge
 _atom_site_pbe_ddec_spin_density
 _atom_site_pbe_ddec_sum_bond_order
 _atom_site_pbe_magmom
Cd  Cd0  1  0.49999862  0.99999947  0.49999709  1  0  0.908076  0  1.95662  0  0  0.728009  0  2.410365  0  0  0.776406  0  2.375025  0  0  0.685063  0.69463  0  2.43371  0
Cd  Cd1  1  0.99999657  0.99999683  0.99999739  1  0  0.90814  0  1.956325  0  0  0.72809  0  2.410032  0  0  0.776484  0  2.374696  0  0  0.685078  0.694708  0  2.433369  0
H  H2  1  0.04863515  0.17640568  0.37677057  1  0  0.047627  0  0.995486  0  0  0.051444  0  1.071504  0  0  0.052531  0  1.070013  0  0  0.108608  0.050592  0  1.072574  0
H  H3  1  0.54867751  0.82360605  0.12321976  1  0  0.04749  0  0.995497  0  0  0.051296  0  1.071567  0  0  0.052381  0  1.070072  0  0  0.108572  0.050443  0  1.072635  0
H  H4  1  0.95135621  0.82360833  0.62321750  1  0  0.047614  0  0.995479  0  0  0.051378  0  1.071572  0  0  0.052464  0  1.070083  0  0  0.108566  0.050528  0  1.072639  0
H  H5  1  0.45133122  0.17639868  0.87678360  1  0  0.047482  0  0.995501  0  0  0.051299  0  1.071587  0  0  0.052385  0  1.070092  0  0  0.108546  0.050445  0  1.072657  0
H  H6  1  0.12227387  0.66308794  0.30797173  1  0  0.074575  0  0.931812  0  0  0.081021  0  0.999194  0  0  0.083433  0  0.996479  0  0  0.109907  0.079242  0  1.001136  0
H  H7  1  0.62240837  0.33692140  0.19201865  1  0  0.074819  0  0.931582  0  0  0.081317  0  0.998899  0  0  0.083738  0  0.99617  0  0  0.109928  0.079524  0  1.000866  0
H  H8  1  0.87773312  0.33692088  0.69204416  1  0  0.074607  0  0.931683  0  0  0.08103  0  0.999089  0  0  0.083443  0  0.996372  0  0  0.109907  0.079239  0  1.001052  0
H  H9  1  0.37757952  0.66308313  0.80798048  1  0  0.074827  0  0.931576  0  0  0.0813  0  0.998911  0  0  0.083719  0  0.996185  0  0  0.109918  0.079506  0  1.000879  0
H  H10  1  0.53247456  0.63746433  0.37200088  1  0  0.106686  0  0.980887  0  0  0.110792  0  1.051132  0  0  0.114479  0  1.050647  0  0  0.096965  0.108172  0  1.051662  0
H  H11  1  0.03259802  0.36253863  0.12798863  1  0  0.106798  0  0.980717  0  0  0.110869  0  1.050976  0  0  0.11456  0  1.050481  0  0  0.096962  0.10824  0  1.051516  0
H  H12  1  0.46754111  0.36252937  0.62800514  1  0  0.106711  0  0.980865  0  0  0.110801  0  1.051092  0  0  0.11449  0  1.050598  0  0  0.096929  0.108179  0  1.051614  0
H  H13  1  0.96738814  0.63745670  0.87201024  1  0  0.106819  0  0.980668  0  0  0.11085  0  1.050965  0  0  0.11457  0  1.050447  0  0  0.09696  0.108202  0  1.051516  0
H  H14  1  0.67734604  0.36006324  0.44352305  1  0  0.084044  0  0.960989  0  0  0.088721  0  1.031202  0  0  0.091119  0  1.028589  0  0  0.113923  0.08695  0  1.033086  0
H  H15  1  0.17740807  0.63993884  0.05647348  1  0  0.083943  0  0.960913  0  0  0.088726  0  1.031015  0  0  0.091086  0  1.028441  0  0  0.113905  0.086958  0  1.03289  0
H  H16  1  0.32265748  0.63992455  0.55647336  1  0  0.083977  0  0.96106  0  0  0.088704  0  1.031219  0  0  0.091068  0  1.028643  0  0  0.113928  0.086935  0  1.033098  0
H  H17  1  0.82258850  0.36005532  0.94352545  1  0  0.083985  0  0.960839  0  0  0.088704  0  1.031019  0  0  0.091011  0  1.028505  0  0  0.113875  0.086935  0  1.032897  0
C  C18  1  0.99467949  0.10057261  0.59745603  1  0  0.224973  0  3.831226  0  0  0.212899  0  4.136819  0  0  0.235457  0  4.148245  0  0  0.103511  0.197545  0  4.128755  0
C  C19  1  0.49467367  0.89939461  0.90254019  1  0  0.224994  0  3.831481  0  0  0.212914  0  4.137081  0  0  0.235467  0  4.148503  0  0  0.103591  0.197561  0  4.129018  0
C  C20  1  0.00532924  0.89942204  0.40254076  1  0  0.22497  0  3.831808  0  0  0.212881  0  4.137406  0  0  0.235437  0  4.148828  0  0  0.103464  0.197529  0  4.129348  0
C  C21  1  0.50529686  0.10059056  0.09746766  1  0  0.224932  0  3.831955  0  0  0.212839  0  4.137565  0  0  0.235397  0  4.14899  0  0  0.103471  0.197487  0  4.129502  0
C  C22  1  0.15605956  0.27985112  0.37670142  1  0  0.291622  0  3.721681  0  0  0.244159  0  3.990709  0  0  0.257989  0  4.005287  0  0  0.169641  0.235097  0  3.980724  0
C  C23  1  0.65612215  0.72016393  0.12329258  1  0  0.292126  0  3.721799  0  0  0.244678  0  3.990746  0  0  0.258518  0  4.00532  0  0  0.16991  0.235615  0  3.980757  0
C  C24  1  0.84393006  0.72016090  0.62329028  1  0  0.291498  0  3.721808  0  0  0.244075  0  3.99081  0  0  0.257904  0  4.005388  0  0  0.169629  0.235012  0  3.980822  0
C  C25  1  0.34387789  0.27983745  0.87671024  1  0  0.292049  0  3.721745  0  0  0.244556  0  3.990685  0  0  0.258394  0  4.005264  0  0  0.169913  0.235493  0  3.980695  0
C  C26  1  0.19770059  0.54763317  0.33891398  1  0  0.187034  0  3.676794  0  0  0.155339  0  3.935278  0  0  0.166124  0  3.948791  0  0  0.068945  0.1485  0  3.925944  0
C  C27  1  0.69782023  0.45238490  0.16107943  1  0  0.186304  0  3.677124  0  0  0.154512  0  3.935683  0  0  0.165294  0  3.949207  0  0  0.068629  0.147673  0  3.926345  0
C  C28  1  0.80230987  0.45237458  0.66109136  1  0  0.187345  0  3.676534  0  0  0.155633  0  3.935013  0  0  0.166418  0  3.948528  0  0  0.069056  0.148791  0  3.925671  0
C  C29  1  0.30217634  0.54761680  0.83892196  1  0  0.186332  0  3.677095  0  0  0.154565  0  3.935636  0  0  0.165349  0  3.949167  0  0  0.068671  0.147722  0  3.926291  0
C  C30  1  0.42360235  0.53380552  0.37438312  1  0  -0.156447  0  3.71385  0  0  -0.164105  0  3.96166  0  0  -0.175532  0  3.982806  0  0  -0.079234  -0.156932  0  3.947681  0
C  C31  1  0.92369804  0.46620394  0.12559916  1  0  -0.156066  0  3.713728  0  0  -0.163623  0  3.961424  0  0  -0.175051  0  3.982568  0  0  -0.079033  -0.156438  0  3.947451  0
C  C32  1  0.57640464  0.46619602  0.62561899  1  0  -0.156721  0  3.713923  0  0  -0.164308  0  3.961706  0  0  -0.175735  0  3.982848  0  0  -0.079259  -0.157125  0  3.947716  0
C  C33  1  0.07628985  0.53379425  0.87440240  1  0  -0.156133  0  3.713861  0  0  -0.163695  0  3.961619  0  0  -0.175147  0  3.982726  0  0  -0.07911  -0.15649  0  3.947652  0
C  C34  1  0.50429878  0.38229647  0.41284135  1  0  0.169466  0  3.675881  0  0  0.133363  0  3.927872  0  0  0.144022  0  3.944315  0  0  0.060605  0.126571  0  3.916605  0
C  C35  1  0.00437752  0.61771062  0.08716027  1  0  0.1693  0  3.675457  0  0  0.133121  0  3.927356  0  0  0.143809  0  3.943815  0  0  0.060686  0.126328  0  3.916088  0
C  C36  1  0.49570820  0.61770235  0.58715240  1  0  0.169522  0  3.675973  0  0  0.133351  0  3.927949  0  0  0.144035  0  3.944401  0  0  0.06059  0.126559  0  3.91668  0
C  C37  1  0.99562078  0.38229125  0.91284040  1  0  0.169249  0  3.675496  0  0  0.133118  0  3.927389  0  0  0.143844  0  3.94387  0  0  0.060691  0.126325  0  3.916112  0
Se  Se38  1  0.25812381  0.06076437  0.66629639  1  0  -0.256806  0  1.970401  0  0  -0.236768  0  2.325624  0  0  -0.257303  0  2.316336  0  0  -0.071057  -0.22239  0  2.331644  0
Se  Se39  1  0.75809586  0.93925687  0.83369897  1  0  -0.256901  0  1.970441  0  0  -0.23684  0  2.325641  0  0  -0.257374  0  2.31636  0  0  -0.071095  -0.222464  0  2.331655  0
Se  Se40  1  0.74190574  0.93924885  0.33370020  1  0  -0.256885  0  1.970599  0  0  -0.236831  0  2.325811  0  0  -0.257367  0  2.316524  0  0  -0.07107  -0.222453  0  2.331835  0
Se  Se41  1  0.24190244  0.06075548  0.16629130  1  0  -0.256795  0  1.971061  0  0  -0.236757  0  2.326326  0  0  -0.25729  0  2.317039  0  0  -0.071053  -0.222384  0  2.332351  0
N  N42  1  0.82144155  0.12421324  0.55212328  1  0  -0.502039  0  2.907098  0  0  -0.444167  0  3.182161  0  0  -0.46384  0  3.189122  0  0  -0.382174  -0.430812  0  3.177257  0
N  N43  1  0.32147095  0.87573317  0.94787435  1  0  -0.501976  0  2.90722  0  0  -0.444143  0  3.182291  0  0  -0.463801  0  3.189231  0  0  -0.382225  -0.430791  0  3.177384  0
N  N44  1  0.17854461  0.87576853  0.44787413  1  0  -0.501977  0  2.907383  0  0  -0.444111  0  3.182425  0  0  -0.463772  0  3.189361  0  0  -0.382129  -0.430761  0  3.177537  0
N  N45  1  0.67851695  0.12424381  0.05213390  1  0  -0.502029  0  2.906935  0  0  -0.444186  0  3.182003  0  0  -0.463846  0  3.188949  0  0  -0.382167  -0.430828  0  3.177096  0
N  N46  1  0.37073946  0.25420162  0.41392971  1  0  -0.378741  0  3.230224  0  0  -0.296098  0  3.489865  0  0  -0.320418  0  3.510321  0  0  -0.32804  -0.279768  0  3.475578  0
N  N47  1  0.87078450  0.74581329  0.08606063  1  0  -0.378785  0  3.230177  0  0  -0.296162  0  3.489816  0  0  -0.320485  0  3.510263  0  0  -0.32816  -0.27983  0  3.475524  0
N  N48  1  0.62925537  0.74579384  0.58606350  1  0  -0.37863  0  3.230388  0  0  -0.295983  0  3.490012  0  0  -0.320299  0  3.510456  0  0  -0.328023  -0.279655  0  3.475724  0
N  N49  1  0.12922075  0.25418539  0.91393878  1  0  -0.378723  0  3.230115  0  0  -0.296059  0  3.489701  0  0  -0.320379  0  3.510129  0  0  -0.328098  -0.279726  0  3.475406  0
N  N50  1  0.06236132  0.42105581  0.34047719  1  0  -0.346015  0  3.034352  0  0  -0.300583  0  3.297971  0  0  -0.316249  0  3.312374  0  0  -0.314119  -0.290054  0  3.288025  0
N  N51  1  0.56243762  0.57896823  0.15951240  1  0  -0.346113  0  3.034447  0  0  -0.300679  0  3.298078  0  0  -0.316349  0  3.312476  0  0  -0.3142  -0.290147  0  3.288132  0
N  N52  1  0.93764741  0.57896047  0.65952632  1  0  -0.346089  0  3.034124  0  0  -0.300657  0  3.297714  0  0  -0.316321  0  3.312113  0  0  -0.314115  -0.290125  0  3.287764  0
N  N53  1  0.43756590  0.42103516  0.84049174  1  0  -0.346065  0  3.034323  0  0  -0.300599  0  3.29793  0  0  -0.316266  0  3.312325  0  0  -0.314183  -0.290066  0  3.287982  0
