# generated using pymatgen
data_H8PbC6N2(ClO)2
_symmetry_space_group_name_H-M   'P 1'
_cell_length_a   7.77629646
_cell_length_b   7.96163070
_cell_length_c   18.04535356
_cell_angle_alpha   90.00870320
_cell_angle_beta   90.00091335
_cell_angle_gamma   112.16632338
_symmetry_Int_Tables_number   1
_chemical_formula_structural   H8PbC6N2(ClO)2
_chemical_formula_sum   'H32 Pb4 C24 N8 Cl8 O8'
_cell_volume   1034.65270674
_cell_formula_units_Z   4
loop_
 _symmetry_equiv_pos_site_id
 _symmetry_equiv_pos_as_xyz
  1  'x, y, z'
loop_
 _atom_site_type_symbol
 _atom_site_label
 _atom_site_symmetry_multiplicity
 _atom_site_fract_x
 _atom_site_fract_y
 _atom_site_fract_z
 _atom_site_occupancy
 _atom_site_hle17_bader_spin_density
 _atom_site_hle17_ddec_charge
 _atom_site_hle17_ddec_spin_density
 _atom_site_hle17_ddec_sum_bond_order
 _atom_site_hle17_magmom
 _atom_site_hse06_10hf_bader_spin_density
 _atom_site_hse06_10hf_ddec_charge
 _atom_site_hse06_10hf_ddec_spin_density
 _atom_site_hse06_10hf_ddec_sum_bond_order
 _atom_site_hse06_10hf_magmom
 _atom_site_hse06_bader_spin_density
 _atom_site_hse06_ddec_charge
 _atom_site_hse06_ddec_spin_density
 _atom_site_hse06_ddec_sum_bond_order
 _atom_site_hse06_magmom
 _atom_site_pbe_bader_spin_density
 _atom_site_pbe_cm5_charge
 _atom_site_pbe_ddec_charge
 _atom_site_pbe_ddec_spin_density
 _atom_site_pbe_ddec_sum_bond_order
 _atom_site_pbe_magmom
H  H0  1  0.02684202  0.87018297  0.29458206  1  0  0.12652  0  0.964079  0  0  0.133385  0  1.035308  0  0  0.136408  0  1.033497  0  0  0.110325  0.131196  0  1.036645  0
H  H1  1  0.47325451  0.12980472  0.79458472  1  0  0.126873  0  0.963925  0  0  0.133531  0  1.03534  0  0  0.136564  0  1.033519  0  0  0.110361  0.131347  0  1.036675  0
H  H2  1  0.97314650  0.12972044  0.70540682  1  0  0.126709  0  0.963634  0  0  0.133453  0  1.034988  0  0  0.136481  0  1.033173  0  0  0.11034  0.131266  0  1.036324  0
H  H3  1  0.52677487  0.87018682  0.20542245  1  0  0.1267  0  0.964237  0  0  0.133508  0  1.035518  0  0  0.136541  0  1.033702  0  0  0.110369  0.131324  0  1.036856  0
H  H4  1  0.85786866  0.88634019  0.35718869  1  0  0.115428  0  0.943945  0  0  0.123983  0  1.012381  0  0  0.126577  0  1.010805  0  0  0.108729  0.122132  0  1.013498  0
H  H5  1  0.64214702  0.11364313  0.85722233  1  0  0.115651  0  0.943922  0  0  0.124234  0  1.012284  0  0  0.126862  0  1.010681  0  0  0.108856  0.122382  0  1.013399  0
H  H6  1  0.14208490  0.11355931  0.64276971  1  0  0.11556  0  0.943658  0  0  0.12417  0  1.011954  0  0  0.126791  0  1.01036  0  0  0.108824  0.122317  0  1.013076  0
H  H7  1  0.35778564  0.88626871  0.14281033  1  0  0.115516  0  0.944225  0  0  0.124263  0  1.012411  0  0  0.126884  0  1.010815  0  0  0.108872  0.122409  0  1.013531  0
H  H8  1  0.85759602  0.76443716  0.49410121  1  0  0.129642  0  0.958289  0  0  0.140142  0  1.015902  0  0  0.143002  0  1.014707  0  0  0.120411  0.137988  0  1.016966  0
H  H9  1  0.64240567  0.23563968  0.99410495  1  0  0.129403  0  0.958579  0  0  0.139929  0  1.016219  0  0  0.142784  0  1.015032  0  0  0.120349  0.137784  0  1.017255  0
H  H10  1  0.14239472  0.23567278  0.50588933  1  0  0.12957  0  0.958128  0  0  0.140018  0  1.015855  0  0  0.142883  0  1.014679  0  0  0.120388  0.137913  0  1.016836  0
H  H11  1  0.35765140  0.76460718  0.00587563  1  0  0.129665  0  0.958301  0  0  0.140213  0  1.015848  0  0  0.143138  0  1.01458  0  0  0.120445  0.138055  0  1.016929  0
H  H12  1  0.14501464  0.71947428  0.57396105  1  0  0.136191  0  0.975262  0  0  0.138643  0  1.046644  0  0  0.142504  0  1.043293  0  0  0.121149  0.135887  0  1.04905  0
H  H13  1  0.35506631  0.28070600  0.07395641  1  0  0.136331  0  0.975042  0  0  0.138694  0  1.046519  0  0  0.142558  0  1.043159  0  0  0.121158  0.135933  0  1.048939  0
H  H14  1  0.85502791  0.28073868  0.42604502  1  0  0.136423  0  0.974719  0  0  0.138855  0  1.046112  0  0  0.142708  0  1.042795  0  0  0.121187  0.136091  0  1.048531  0
H  H15  1  0.64505908  0.71960710  0.92602694  1  0  0.136187  0  0.975168  0  0  0.138803  0  1.046332  0  0  0.142649  0  1.043016  0  0  0.121026  0.136051  0  1.048738  0
H  H16  1  0.28490366  0.77412885  0.34523626  1  0  0.140071  0  0.949978  0  0  0.141782  0  1.019581  0  0  0.145804  0  1.014781  0  0  0.142334  0.138749  0  1.023109  0
H  H17  1  0.21510216  0.22583816  0.84524247  1  0  0.140134  0  0.94994  0  0  0.14184  0  1.019567  0  0  0.145868  0  1.014766  0  0  0.142392  0.138812  0  1.023098  0
H  H18  1  0.71498299  0.22567178  0.65475650  1  0  0.139811  0  0.95004  0  0  0.141827  0  1.019351  0  0  0.145826  0  1.014587  0  0  0.14234  0.138785  0  1.022871  0
H  H19  1  0.78482887  0.77402341  0.15477633  1  0  0.140221  0  0.949752  0  0  0.141781  0  1.019492  0  0  0.145804  0  1.014706  0  0  0.142459  0.138756  0  1.023027  0
H  H20  1  0.55492100  0.84672327  0.45996648  1  0  0.112976  0  0.938957  0  0  0.130448  0  1.003533  0  0  0.131571  0  1.003216  0  0  0.101274  0.129508  0  1.003912  0
H  H21  1  0.94505278  0.15346048  0.95999276  1  0  0.112762  0  0.939058  0  0  0.130151  0  1.003795  0  0  0.131268  0  1.003483  0  0  0.101196  0.129211  0  1.004179  0
H  H22  1  0.44500713  0.15336794  0.54002573  1  0  0.112895  0  0.938849  0  0  0.130382  0  1.003447  0  0  0.131506  0  1.00312  0  0  0.101248  0.129442  0  1.00383  0
H  H23  1  0.05495461  0.84668878  0.04002938  1  0  0.11294  0  0.938766  0  0  0.130356  0  1.003454  0  0  0.131479  0  1.003132  0  0  0.101198  0.129414  0  1.003835  0
H  H24  1  0.44441998  0.60423344  0.45933891  1  0  0.114837  0  0.947722  0  0  0.131337  0  1.014229  0  0  0.132617  0  1.013587  0  0  0.09963  0.130262  0  1.014849  0
H  H25  1  0.05573043  0.39594596  0.95937365  1  0  0.114715  0  0.947614  0  0  0.131203  0  1.014195  0  0  0.132481  0  1.013554  0  0  0.099624  0.130131  0  1.014811  0
H  H26  1  0.55561605  0.39586405  0.54066715  1  0  0.114738  0  0.947461  0  0  0.131225  0  1.014066  0  0  0.132463  0  1.013464  0  0  0.099609  0.130162  0  1.014676  0
H  H27  1  0.94432141  0.60418543  0.04064960  1  0  0.11457  0  0.948086  0  0  0.131152  0  1.014471  0  0  0.132427  0  1.013833  0  0  0.099683  0.130086  0  1.015078  0
H  H28  1  0.45435900  0.72830614  0.54369176  1  0  0.122499  0  0.955241  0  0  0.135081  0  1.027307  0  0  0.137062  0  1.02594  0  0  0.102575  0.133599  0  1.028292  0
H  H29  1  0.04577924  0.27189258  0.04370819  1  0  0.12235  0  0.955502  0  0  0.135121  0  1.02739  0  0  0.137099  0  1.026023  0  0  0.102581  0.13364  0  1.028381  0
H  H30  1  0.54564358  0.27178472  0.45631320  1  0  0.122552  0  0.955621  0  0  0.135084  0  1.027725  0  0  0.137064  0  1.026354  0  0  0.102563  0.133601  0  1.028712  0
H  H31  1  0.95427590  0.72821433  0.95629622  1  0  0.122563  0  0.955242  0  0  0.135159  0  1.027283  0  0  0.137141  0  1.02591  0  0  0.102554  0.133675  0  1.028273  0
Pb  Pb32  1  0.49845985  0.29299008  0.24858387  1  0  1.162064  0  1.636136  0  0  1.001387  0  2.054707  0  0  1.057083  0  2.013126  0  0  0.485846  0.960028  0  2.08624  0
Pb  Pb33  1  0.00160089  0.70669064  0.74846666  1  0  1.1625  0  1.63605  0  0  1.001783  0  2.054615  0  0  1.057461  0  2.013084  0  0  0.485919  0.960385  0  2.086233  0
Pb  Pb34  1  0.50159425  0.70685734  0.75153745  1  0  1.162422  0  1.635987  0  0  1.001781  0  2.054544  0  0  1.057456  0  2.013023  0  0  0.485889  0.960338  0  2.086244  0
Pb  Pb35  1  0.99844134  0.29300460  0.25138810  1  0  1.162145  0  1.63609  0  0  1.001448  0  2.054682  0  0  1.057153  0  2.013078  0  0  0.48588  0.960105  0  2.08619  0
C  C36  1  0.79415755  0.62246771  0.30949522  1  0  0.687207  0  3.860979  0  0  0.63896  0  4.158141  0  0  0.673411  0  4.151385  0  0  0.210539  0.615652  0  4.161475  0
C  C37  1  0.70584393  0.37749455  0.80954388  1  0  0.687203  0  3.86028  0  0  0.638791  0  4.157706  0  0  0.673255  0  4.150936  0  0  0.210599  0.615476  0  4.161039  0
C  C38  1  0.20580348  0.37743447  0.69047925  1  0  0.687068  0  3.86056  0  0  0.638828  0  4.157733  0  0  0.673287  0  4.15097  0  0  0.210541  0.615518  0  4.161061  0
C  C39  1  0.29415248  0.62244551  0.19048711  1  0  0.687607  0  3.859914  0  0  0.639275  0  4.157238  0  0  0.673737  0  4.150471  0  0  0.210803  0.615959  0  4.160577  0
C  C40  1  0.93316168  0.80050710  0.34016606  1  0  -0.17116  0  3.611429  0  0  -0.227754  0  3.851236  0  0  -0.229506  0  3.857522  0  0  -0.055619  -0.226493  0  3.847044  0
C  C41  1  0.56688537  0.19946630  0.84018855  1  0  -0.171746  0  3.611872  0  0  -0.228053  0  3.851423  0  0  -0.229847  0  3.857682  0  0  -0.055692  -0.226787  0  3.847233  0
C  C42  1  0.06680507  0.19938011  0.65981284  1  0  -0.171136  0  3.6103  0  0  -0.227489  0  3.849681  0  0  -0.229267  0  3.855917  0  0  -0.055644  -0.226231  0  3.845501  0
C  C43  1  0.43312043  0.80050770  0.15983303  1  0  -0.171321  0  3.611289  0  0  -0.227992  0  3.851039  0  0  -0.229783  0  3.857315  0  0  -0.055737  -0.226734  0  3.846855  0
C  C44  1  0.98850039  0.76062576  0.47567175  1  0  -0.045675  0  3.654119  0  0  -0.092524  0  3.92242  0  0  -0.09132  0  3.940862  0  0  0.008941  -0.093385  0  3.91039  0
C  C45  1  0.51151637  0.23943249  0.97567673  1  0  -0.045175  0  3.654277  0  0  -0.092088  0  3.922529  0  0  -0.090877  0  3.940948  0  0  0.009009  -0.092941  0  3.910492  0
C  C46  1  0.01148542  0.23945839  0.52432822  1  0  -0.045694  0  3.653921  0  0  -0.092551  0  3.922279  0  0  -0.091359  0  3.94071  0  0  0.008863  -0.093436  0  3.910206  0
C  C47  1  0.48846718  0.76065574  0.02431992  1  0  -0.045696  0  3.653103  0  0  -0.092642  0  3.921478  0  0  -0.091493  0  3.939839  0  0  0.008763  -0.093505  0  3.90945  0
C  C48  1  0.12835429  0.73869778  0.51536819  1  0  -0.040782  0  3.647965  0  0  -0.08778  0  3.91804  0  0  -0.085785  0  3.935906  0  0  0.014935  -0.089147  0  3.906291  0
C  C49  1  0.37167051  0.26137831  0.01536509  1  0  -0.041111  0  3.648096  0  0  -0.088004  0  3.918126  0  0  -0.086006  0  3.93598  0  0  0.015024  -0.089374  0  3.906388  0
C  C50  1  0.87161657  0.26138100  0.48464009  1  0  -0.040875  0  3.647193  0  0  -0.087841  0  3.917172  0  0  -0.085843  0  3.935031  0  0  0.015076  -0.089218  0  3.905446  0
C  C51  1  0.62842803  0.73887921  0.98461438  1  0  -0.040566  0  3.646981  0  0  -0.087647  0  3.916978  0  0  -0.085648  0  3.934837  0  0  0.015237  -0.089016  0  3.905234  0
C  C52  1  0.20964992  0.76714932  0.39646120  1  0  0.15004  0  3.491024  0  0  0.076385  0  3.752576  0  0  0.092883  0  3.759615  0  0  0.176119  0.065768  0  3.747704  0
C  C53  1  0.29034469  0.23282267  0.89646939  1  0  0.150166  0  3.490497  0  0  0.076407  0  3.752236  0  0  0.092878  0  3.759297  0  0  0.176179  0.06579  0  3.747367  0
C  C54  1  0.79030282  0.23276785  0.60353433  1  0  0.150633  0  3.490361  0  0  0.076594  0  3.75198  0  0  0.093113  0  3.759032  0  0  0.176272  0.065988  0  3.747103  0
C  C55  1  0.70959524  0.76711766  0.10353612  1  0  0.150261  0  3.49089  0  0  0.07673  0  3.752543  0  0  0.093205  0  3.759599  0  0  0.176157  0.066096  0  3.747686  0
C  C56  1  0.44138791  0.72974969  0.48333663  1  0  -0.177083  0  3.59069  0  0  -0.276474  0  3.833734  0  0  -0.273475  0  3.84086  0  0  -0.130962  -0.278233  0  3.82913  0
C  C57  1  0.05869001  0.27038293  0.98335948  1  0  -0.176837  0  3.590948  0  0  -0.276281  0  3.833782  0  0  -0.273275  0  3.840907  0  0  -0.130999  -0.278042  0  3.829174  0
C  C58  1  0.55862076  0.27031396  0.51665614  1  0  -0.177091  0  3.59157  0  0  -0.276479  0  3.834585  0  0  -0.273441  0  3.841756  0  0  -0.130958  -0.278247  0  3.829962  0
C  C59  1  0.94134633  0.72971863  0.01665102  1  0  -0.176915  0  3.591071  0  0  -0.276273  0  3.833848  0  0  -0.273267  0  3.840975  0  0  -0.130946  -0.278031  0  3.829234  0
N  N60  1  0.04237606  0.77862411  0.40206315  1  0  -0.005153  0  3.597883  0  0  0.082287  0  3.821932  0  0  0.069146  0  3.846905  0  0  -0.224903  0.090869  0  3.804987  0
N  N61  1  0.45763649  0.22138002  0.90206699  1  0  -0.005577  0  3.598334  0  0  0.081843  0  3.822469  0  0  0.068713  0  3.847452  0  0  -0.225146  0.090422  0  3.805523  0
N  N62  1  0.95757550  0.22132296  0.59792406  1  0  -0.005498  0  3.598345  0  0  0.081897  0  3.822527  0  0  0.068764  0  3.847509  0  0  -0.225198  0.090469  0  3.805586  0
N  N63  1  0.54238109  0.77867680  0.09793187  1  0  -0.005584  0  3.598237  0  0  0.081864  0  3.822355  0  0  0.068733  0  3.847352  0  0  -0.225062  0.090444  0  3.805412  0
N  N64  1  0.26470040  0.74447799  0.46498735  1  0  0.003547  0  3.573087  0  0  0.101631  0  3.792595  0  0  0.087475  0  3.818733  0  0  -0.228131  0.110855  0  3.774878  0
N  N65  1  0.23531145  0.25556989  0.96499293  1  0  0.003952  0  3.572761  0  0  0.102028  0  3.792283  0  0  0.08789  0  3.818416  0  0  -0.228082  0.111247  0  3.774567  0
N  N66  1  0.73523778  0.25553029  0.53500042  1  0  0.003431  0  3.573495  0  0  0.101596  0  3.793018  0  0  0.087438  0  3.819161  0  0  -0.228085  0.110824  0  3.775286  0
N  N67  1  0.76466984  0.74443682  0.03500372  1  0  0.003318  0  3.57291  0  0  0.101333  0  3.79248  0  0  0.087185  0  3.818607  0  0  -0.22823  0.110555  0  3.774771  0
Cl  Cl68  1  0.62203327  0.04033985  0.32212247  1  0  -0.641507  0  0.856783  0  0  -0.576262  0  1.102004  0  0  -0.59838  0  1.085579  0  0  -0.279692  -0.559718  0  1.113451  0
Cl  Cl69  1  0.87778646  0.95941245  0.82209762  1  0  -0.641743  0  0.856554  0  0  -0.576505  0  1.101633  0  0  -0.598624  0  1.085214  0  0  -0.279843  -0.559941  0  1.113094  0
Cl  Cl70  1  0.37785124  0.95951787  0.67790353  1  0  -0.641729  0  0.85657  0  0  -0.576443  0  1.101553  0  0  -0.598563  0  1.08513  0  0  -0.279837  -0.559879  0  1.113013  0
Cl  Cl71  1  0.12210545  0.04035553  0.17786576  1  0  -0.641518  0  0.856994  0  0  -0.576237  0  1.102148  0  0  -0.598356  0  1.085723  0  0  -0.279693  -0.559692  0  1.113599  0
Cl  Cl72  1  0.27219432  0.31450319  0.36804136  1  0  -0.62192  0  0.83179  0  0  -0.548693  0  1.069319  0  0  -0.570752  0  1.053744  0  0  -0.272973  -0.532265  0  1.080261  0
Cl  Cl73  1  0.22796135  0.68543994  0.86802694  1  0  -0.622038  0  0.832213  0  0  -0.548895  0  1.069844  0  0  -0.570965  0  1.054293  0  0  -0.272994  -0.532443  0  1.080801  0
Cl  Cl74  1  0.72798590  0.68556508  0.63199518  1  0  -0.622046  0  0.832027  0  0  -0.548869  0  1.069594  0  0  -0.570926  0  1.054003  0  0  -0.273018  -0.532417  0  1.080554  0
Cl  Cl75  1  0.77222253  0.31450601  0.13193146  1  0  -0.621823  0  0.831952  0  0  -0.548687  0  1.069616  0  0  -0.570734  0  1.054015  0  0  -0.27288  -0.532256  0  1.080551  0
O  O76  1  0.67962727  0.63705212  0.26247390  1  0  -0.623661  0  1.961914  0  0  -0.561605  0  2.195245  0  0  -0.591327  0  2.189544  0  0  -0.301926  -0.540716  0  2.19832  0
O  O77  1  0.82042455  0.36288633  0.76252050  1  0  -0.623875  0  1.961043  0  0  -0.561534  0  2.194177  0  0  -0.59128  0  2.188455  0  0  -0.301929  -0.540615  0  2.197243  0
O  O78  1  0.32030645  0.36286243  0.73752994  1  0  -0.623591  0  1.961266  0  0  -0.561561  0  2.194554  0  0  -0.591298  0  2.188852  0  0  -0.301759  -0.540653  0  2.19762  0
O  O79  1  0.17957817  0.63702381  0.23751659  1  0  -0.623841  0  1.961087  0  0  -0.561726  0  2.194435  0  0  -0.591456  0  2.188731  0  0  -0.301967  -0.540826  0  2.197504  0
O  O80  1  0.79890719  0.47189819  0.33110175  1  0  -0.674114  0  2.002728  0  0  -0.604357  0  2.236865  0  0  -0.634994  0  2.231376  0  0  -0.30861  -0.582537  0  2.239666  0
O  O81  1  0.70111557  0.52806342  0.83114405  1  0  -0.673922  0  2.003088  0  0  -0.604273  0  2.23742  0  0  -0.634871  0  2.231873  0  0  -0.308602  -0.582469  0  2.240258  0
O  O82  1  0.20109810  0.52801193  0.66887549  1  0  -0.6742  0  2.003119  0  0  -0.604511  0  2.237294  0  0  -0.635126  0  2.231749  0  0  -0.308698  -0.582695  0  2.240121  0
O  O83  1  0.29890128  0.47184666  0.16890025  1  0  -0.674366  0  2.002797  0  0  -0.604573  0  2.236986  0  0  -0.635237  0  2.23154  0  0  -0.30883  -0.582755  0  2.239797  0
