# generated using pymatgen
data_HoH10C9NO9
_symmetry_space_group_name_H-M   'P 1'
_cell_length_a   7.26513509
_cell_length_b   8.52056669
_cell_length_c   10.59292474
_cell_angle_alpha   106.31849064
_cell_angle_beta   101.47514048
_cell_angle_gamma   94.01417322
_symmetry_Int_Tables_number   1
_chemical_formula_structural   HoH10C9NO9
_chemical_formula_sum   'Ho2 H20 C18 N2 O18'
_cell_volume   611.18802064
_cell_formula_units_Z   2
loop_
 _symmetry_equiv_pos_site_id
 _symmetry_equiv_pos_as_xyz
  1  'x, y, z'
loop_
 _atom_site_type_symbol
 _atom_site_label
 _atom_site_symmetry_multiplicity
 _atom_site_fract_x
 _atom_site_fract_y
 _atom_site_fract_z
 _atom_site_occupancy
 _atom_site_hle17_bader_spin_density
 _atom_site_hle17_ddec_charge
 _atom_site_hle17_ddec_spin_density
 _atom_site_hle17_ddec_sum_bond_order
 _atom_site_hle17_magmom
 _atom_site_hse06_10hf_bader_spin_density
 _atom_site_hse06_10hf_ddec_charge
 _atom_site_hse06_10hf_ddec_spin_density
 _atom_site_hse06_10hf_ddec_sum_bond_order
 _atom_site_hse06_10hf_magmom
 _atom_site_hse06_bader_spin_density
 _atom_site_hse06_ddec_charge
 _atom_site_hse06_ddec_spin_density
 _atom_site_hse06_ddec_sum_bond_order
 _atom_site_hse06_magmom
 _atom_site_pbe_bader_spin_density
 _atom_site_pbe_cm5_charge
 _atom_site_pbe_ddec_charge
 _atom_site_pbe_ddec_spin_density
 _atom_site_pbe_ddec_sum_bond_order
 _atom_site_pbe_magmom
Ho  Ho0  1  0.74452315  0.25999825  0.59374557  1  0  2.24744  0  1.632524  0  0  2.096749  0  2.116748  0  0  2.229832  0  1.91442  0  0  1.511133  2.062495  0  2.145605  0
Ho  Ho1  1  0.25546938  0.73999087  0.40624725  1  0  2.247511  0  1.63245  0  0  2.096785  0  2.116706  0  0  2.2299  0  1.914329  0  0  1.51117  2.062553  0  2.145523  0
H  H2  1  0.41623403  0.34719661  0.69516874  1  0  0.450614  0  0.792713  0  0  0.431631  0  0.846283  0  0  0.44119  0  0.836046  0  0  0.333294  0.424972  0  0.85429  0
H  H3  1  0.58377531  0.65280106  0.30482936  1  0  0.450712  0  0.792551  0  0  0.431735  0  0.846109  0  0  0.441295  0  0.835867  0  0  0.333335  0.425078  0  0.854119  0
H  H4  1  0.41906412  0.45322023  0.59741304  1  0  0.449769  0  0.842607  0  0  0.418383  0  0.905593  0  0  0.430826  0  0.887559  0  0  0.307251  0.409926  0  0.917933  0
H  H5  1  0.58093253  0.54677748  0.40258798  1  0  0.449804  0  0.842553  0  0  0.418428  0  0.905524  0  0  0.43087  0  0.887492  0  0  0.307265  0.409968  0  0.917867  0
H  H6  1  0.84628616  0.50035789  0.88308145  1  0  0.441227  0  0.857109  0  0  0.409147  0  0.921262  0  0  0.421182  0  0.904009  0  0  0.29553  0.400911  0  0.933124  0
H  H7  1  0.15371626  0.49964101  0.11692351  1  0  0.441251  0  0.857075  0  0  0.409152  0  0.92124  0  0  0.421186  0  0.903992  0  0  0.295507  0.400924  0  0.933087  0
H  H8  1  0.98752282  0.36345030  0.86989087  1  0  0.444341  0  0.851242  0  0  0.410061  0  0.919681  0  0  0.422145  0  0.902205  0  0  0.297581  0.401645  0  0.931971  0
H  H9  1  0.01246899  0.63655237  0.13011154  1  0  0.444451  0  0.851126  0  0  0.410192  0  0.919539  0  0  0.422276  0  0.90206  0  0  0.297655  0.401772  0  0.931834  0
H  H10  1  0.10444911  0.05615786  0.82322588  1  0  0.320308  0  0.889544  0  0  0.299029  0  0.95318  0  0  0.309117  0  0.944373  0  0  0.314876  0.292177  0  0.958917  0
H  H11  1  0.89555934  0.94384348  0.17677954  1  0  0.320407  0  0.889452  0  0  0.299089  0  0.953166  0  0  0.309177  0  0.944359  0  0  0.314893  0.292234  0  0.958904  0
H  H12  1  0.33345781  0.31679526  0.23234485  1  0  0.145521  0  0.960404  0  0  0.150952  0  1.025794  0  0  0.155817  0  1.022981  0  0  0.11653  0.147536  0  1.027835  0
H  H13  1  0.66653965  0.68320739  0.76765647  1  0  0.145575  0  0.96036  0  0  0.15098  0  1.025782  0  0  0.155845  0  1.022968  0  0  0.116546  0.147566  0  1.027823  0
H  H14  1  0.33137971  0.79023016  0.08425331  1  0  0.131493  0  0.946784  0  0  0.140771  0  1.005884  0  0  0.145438  0  1.003445  0  0  0.113885  0.137377  0  1.007861  0
H  H15  1  0.66861327  0.20977126  0.91575182  1  0  0.131434  0  0.946842  0  0  0.140697  0  1.005961  0  0  0.145363  0  1.003522  0  0  0.113866  0.137304  0  1.007938  0
H  H16  1  0.17710013  0.64588052  0.85191276  1  0  0.136016  0  0.932801  0  0  0.15873  0  0.985474  0  0  0.16144  0  0.983599  0  0  0.102981  0.156804  0  0.986696  0
H  H17  1  0.82291978  0.35412201  0.14809173  1  0  0.136106  0  0.932768  0  0  0.158801  0  0.985463  0  0  0.16151  0  0.983587  0  0  0.103028  0.156876  0  0.986687  0
H  H18  1  0.27510277  0.75631805  0.75527059  1  0  0.138836  0  0.953797  0  0  0.155728  0  1.019278  0  0  0.157366  0  1.01943  0  0  0.103852  0.154553  0  1.019236  0
H  H19  1  0.72490649  0.24368824  0.24473419  1  0  0.138814  0  0.953734  0  0  0.155742  0  1.019169  0  0  0.157382  0  1.019307  0  0  0.103876  0.154567  0  1.019127  0
H  H20  1  0.03120581  0.75031147  0.75529074  1  0  0.125144  0  0.942655  0  0  0.14433  0  1.005453  0  0  0.145639  0  1.00553  0  0  0.099339  0.14339  0  1.005253  0
H  H21  1  0.96880206  0.24968618  0.24471187  1  0  0.125225  0  0.94262  0  0  0.144424  0  1.005398  0  0  0.145732  0  1.005472  0  0  0.099356  0.143483  0  1.005198  0
C  C22  1  0.42614422  0.05328663  0.31492636  1  0  0.729072  0  3.839079  0  0  0.682488  0  4.129236  0  0  0.718377  0  4.120291  0  0  0.238011  0.658263  0  4.138969  0
C  C23  1  0.57384880  0.94671481  0.68507594  1  0  0.729144  0  3.838993  0  0  0.682527  0  4.129188  0  0  0.718414  0  4.120246  0  0  0.238052  0.658305  0  4.13892  0
C  C24  1  0.34069667  0.05463537  0.17329090  1  0  0.03098  0  3.734883  0  0  0.044597  0  3.976768  0  0  0.048698  0  3.992201  0  0  0.002272  0.042576  0  3.964771  0
C  C25  1  0.65929978  0.94536976  0.82671084  1  0  0.031093  0  3.734789  0  0  0.044753  0  3.976627  0  0  0.048855  0  3.992056  0  0  0.002317  0.042728  0  3.964639  0
C  C26  1  0.29945475  0.20138552  0.15041963  1  0  -0.256266  0  3.648808  0  0  -0.285272  0  3.904644  0  0  -0.296183  0  3.919812  0  0  -0.09405  -0.27803  0  3.893721  0
C  C27  1  0.70054306  0.79861958  0.84958513  1  0  -0.256425  0  3.648903  0  0  -0.285475  0  3.904701  0  0  -0.296381  0  3.919875  0  0  -0.094137  -0.278235  0  3.89378  0
C  C28  1  0.21090165  0.20412782  0.01872025  1  0  0.556221  0  3.850522  0  0  0.514949  0  4.131628  0  0  0.541723  0  4.135659  0  0  0.220687  0.497153  0  4.128037  0
C  C29  1  0.78909236  0.79587113  0.98128257  1  0  0.556001  0  3.850791  0  0  0.514941  0  4.131668  0  0  0.541696  0  4.135726  0  0  0.220746  0.497143  0  4.128072  0
C  C30  1  0.21737491  0.90763753  0.93763787  1  0  0.343058  0  3.709088  0  0  0.338252  0  3.969987  0  0  0.350017  0  3.989557  0  0  0.126616  0.330612  0  3.956392  0
C  C31  1  0.78262830  0.09236631  0.06236832  1  0  0.343074  0  3.709097  0  0  0.338406  0  3.969883  0  0  0.350173  0  3.989452  0  0  0.126638  0.330763  0  3.95629  0
C  C32  1  0.30080937  0.90596698  0.06594986  1  0  -0.22926  0  3.699007  0  0  -0.265916  0  3.961781  0  0  -0.276971  0  3.982558  0  0  -0.102444  -0.258807  0  3.947397  0
C  C33  1  0.69918360  0.09403444  0.93405621  1  0  -0.229212  0  3.699049  0  0  -0.265869  0  3.961748  0  0  -0.276925  0  3.982531  0  0  -0.102428  -0.258763  0  3.947369  0
C  C34  1  0.17243499  0.75630701  0.81858711  1  0  -0.383412  0  3.681673  0  0  -0.464987  0  3.922746  0  0  -0.468363  0  3.928613  0  0  -0.237758  -0.462209  0  3.917913  0
C  C35  1  0.82757388  0.24369681  0.18141704  1  0  -0.383625  0  3.681608  0  0  -0.46525  0  3.922639  0  0  -0.468619  0  3.928498  0  0  -0.237881  -0.462472  0  3.91781  0
C  C36  1  0.96125696  0.99991773  0.42676816  1  0  0.573816  0  3.91282  0  0  0.528483  0  4.209578  0  0  0.559632  0  4.205365  0  0  0.21998  0.507088  0  4.217514  0
C  C37  1  0.03873743  0.00008251  0.57322180  1  0  0.573848  0  3.912856  0  0  0.528469  0  4.209703  0  0  0.559618  0  4.205493  0  0  0.219988  0.507082  0  4.217628  0
C  C38  1  0.08915098  0.46385977  0.52599464  1  0  0.557191  0  3.935789  0  0  0.513449  0  4.23208  0  0  0.542829  0  4.231789  0  0  0.220742  0.493271  0  4.237294  0
C  C39  1  0.91085435  0.53612067  0.47398670  1  0  0.557174  0  3.935648  0  0  0.51354  0  4.231848  0  0  0.542916  0  4.231552  0  0  0.220719  0.493362  0  4.237065  0
N  N40  1  0.17397353  0.05401915  0.91827317  1  0  -0.397618  0  3.301916  0  0  -0.332621  0  3.525677  0  0  -0.352906  0  3.534694  0  0  -0.362276  -0.319148  0  3.519044  0
N  N41  1  0.82603051  0.94598099  0.08173134  1  0  -0.397621  0  3.301791  0  0  -0.332834  0  3.525717  0  0  -0.35312  0  3.534746  0  0  -0.362308  -0.319351  0  3.519072  0
O  O42  1  0.49061506  0.19047330  0.40334801  1  0  -0.701046  0  2.034354  0  0  -0.655362  0  2.291237  0  0  -0.690322  0  2.275844  0  0  -0.377926  -0.638828  0  2.298938  0
O  O43  1  0.50937861  0.80953185  0.59665145  1  0  -0.701099  0  2.034319  0  0  -0.655401  0  2.291216  0  0  -0.690362  0  2.275822  0  0  -0.377925  -0.638871  0  2.298918  0
O  O44  1  0.42823155  0.91304411  0.33567172  1  0  -0.772173  0  2.083777  0  0  -0.723117  0  2.349754  0  0  -0.762689  0  2.333078  0  0  -0.420528  -0.70563  0  2.358642  0
O  O45  1  0.57176855  0.08695730  0.66432686  1  0  -0.772162  0  2.083786  0  0  -0.723108  0  2.349803  0  0  -0.762678  0  2.333137  0  0  -0.420545  -0.705616  0  2.358691  0
O  O46  1  0.16353606  0.33368729  0.98985325  1  0  -0.621975  0  1.968842  0  0  -0.557231  0  2.173851  0  0  -0.580702  0  2.163228  0  0  -0.3129  -0.540309  0  2.179981  0
O  O47  1  0.83645810  0.66631289  0.01015364  1  0  -0.621796  0  1.968933  0  0  -0.557128  0  2.173872  0  0  -0.580584  0  2.163247  0  0  -0.312921  -0.540202  0  2.180006  0
O  O48  1  0.82754750  0.08293855  0.40716167  1  0  -0.659383  0  2.122232  0  0  -0.610745  0  2.374188  0  0  -0.64597  0  2.365094  0  0  -0.370212  -0.593471  0  2.378063  0
O  O49  1  0.17244063  0.91705801  0.59283033  1  0  -0.659356  0  2.122282  0  0  -0.610695  0  2.374257  0  0  -0.645924  0  2.365165  0  0  -0.370178  -0.593425  0  2.378125  0
O  O50  1  0.03773290  0.91644835  0.33648166  1  0  -0.652622  0  2.058152  0  0  -0.598453  0  2.296113  0  0  -0.632156  0  2.284666  0  0  -0.353963  -0.581706  0  2.301674  0
O  O51  1  0.96225906  0.08354572  0.66350938  1  0  -0.652573  0  2.057973  0  0  -0.598445  0  2.295996  0  0  -0.632146  0  2.284548  0  0  -0.353955  -0.581697  0  2.301555  0
O  O52  1  0.07081282  0.36192076  0.58963265  1  0  -0.640261  0  2.055572  0  0  -0.594215  0  2.292678  0  0  -0.626477  0  2.282917  0  0  -0.337002  -0.578141  0  2.29717  0
O  O53  1  0.92918837  0.63806956  0.41035885  1  0  -0.64032  0  2.055537  0  0  -0.594295  0  2.29261  0  0  -0.626568  0  2.282858  0  0  -0.337085  -0.578225  0  2.297105  0
O  O54  1  0.24264373  0.51615630  0.50007070  1  0  -0.671979  0  2.066093  0  0  -0.613988  0  2.304706  0  0  -0.649895  0  2.292426  0  0  -0.357981  -0.596416  0  2.310603  0
O  O55  1  0.75736305  0.48384263  0.49992355  1  0  -0.671916  0  2.065952  0  0  -0.614011  0  2.304571  0  0  -0.649913  0  2.292289  0  0  -0.357946  -0.596438  0  2.310471  0
O  O56  1  0.50405185  0.41356284  0.66570732  1  0  -0.879738  0  1.837262  0  0  -0.83075  0  2.035272  0  0  -0.859563  0  1.997925  0  0  -0.6294  -0.817897  0  2.056665  0
O  O57  1  0.49595340  0.58644471  0.33429717  1  0  -0.879859  0  1.837114  0  0  -0.830889  0  2.035164  0  0  -0.859702  0  1.997804  0  0  -0.629437  -0.818037  0  2.056562  0
O  O58  1  0.87820049  0.40107501  0.81777444  1  0  -0.955424  0  1.863336  0  0  -0.905099  0  2.076522  0  0  -0.939102  0  2.034116  0  0  -0.668134  -0.890201  0  2.100334  0
O  O59  1  0.12179900  0.59893135  0.18222519  1  0  -0.955552  0  1.863261  0  0  -0.90523  0  2.076488  0  0  -0.939256  0  2.034115  0  0  -0.668199  -0.890332  0  2.100287  0
