# generated using pymatgen
data_Al3H13C42(I3O7)2
_symmetry_space_group_name_H-M   'P 1'
_cell_length_a   14.52054878
_cell_length_b   14.52475647
_cell_length_c   27.77585650
_cell_angle_alpha   90.48807261
_cell_angle_beta   90.48646008
_cell_angle_gamma   119.48172711
_symmetry_Int_Tables_number   1
_chemical_formula_structural   Al3H13C42(I3O7)2
_chemical_formula_sum   'Al6 H26 C84 I12 O28'
_cell_volume   5098.85430723
_cell_formula_units_Z   2
loop_
 _symmetry_equiv_pos_site_id
 _symmetry_equiv_pos_as_xyz
  1  'x, y, z'
loop_
 _atom_site_type_symbol
 _atom_site_label
 _atom_site_symmetry_multiplicity
 _atom_site_fract_x
 _atom_site_fract_y
 _atom_site_fract_z
 _atom_site_occupancy
 _atom_site_pbe_bader_charge
 _atom_site_pbe_bader_spin_density
 _atom_site_pbe_cm5_charge
 _atom_site_pbe_ddec_charge
 _atom_site_pbe_ddec_spin_density
 _atom_site_pbe_ddec_sum_bond_order
 _atom_site_pbe_magmom
Al  Al0  1  0.49919195  0.20669024  0.50119668  1  2.494524  0  0.402459  1.681939  0  2.553708  0
Al  Al1  1  0.74109181  0.25920737  0.49808088  1  2.481768  0  0.50536  1.655136  0  2.51689  0
Al  Al2  1  0.69939195  0.44126762  0.50383257  1  2.475317  0  0.504874  1.658438  0  2.518803  0
Al  Al3  1  0.20616604  0.49913635  0.00109378  1  2.497118  0  0.402562  1.682298  0  2.552892  0
Al  Al4  1  0.25891908  0.74104723  0.99805142  1  2.482108  0  0.505278  1.655008  0  2.51686  0
Al  Al5  1  0.44087676  0.69912872  0.00382044  1  2.475876  0  0.504726  1.657632  0  2.518861  0
H  H6  1  0.99386679  0.69572023  0.76019015  1  0.086214  0  0.113763  0.127962  0  0.962215  0
H  H7  1  0.37999105  0.02669332  0.22584788  1  0.077597  0  0.095278  0.098116  0  1.008246  0
H  H8  1  0.61167383  0.61843485  0.22913364  1  0.115539  0  0.096792  0.095597  0  1.00845  0
H  H9  1  0.99318534  0.39424277  0.22103679  1  0.092407  0  0.097248  0.103106  0  1.000216  0
H  H10  1  0.88340324  0.39120737  0.79253209  1  0.107541  0  0.101413  0.10976  0  1.000358  0
H  H11  1  0.58195172  0.46395139  0.80316518  1  0.081104  0  0.106987  0.112796  0  0.981466  0
H  H12  1  0.53841657  0.09358558  0.79935158  1  0.118326  0  0.10622  0.111811  0  0.986266  0
H  H13  1  0.39053812  0.88380823  0.29267453  1  0.105293  0  0.101603  0.109853  0  1.000141  0
H  H14  1  0.46393123  0.58218216  0.30315068  1  0.081429  0  0.106849  0.112488  0  0.981903  0
H  H15  1  0.09378193  0.53936752  0.29926716  1  0.102128  0  0.106348  0.112236  0  0.986197  0
H  H16  1  0.18905063  0.57402841  0.76281854  1  0.072576  0  0.102023  0.106212  0  0.992846  0
H  H17  1  0.27152307  0.31365869  0.77086641  1  0.116875  0  0.114875  0.1295  0  0.958657  0
H  H18  1  0.44228182  0.62855580  0.76131763  1  0.092844  0  0.097657  0.104919  0  1.002295  0
H  H19  1  0.36104281  0.79516985  0.75233901  1  0.107933  0  0.09667  0.099291  0  1.017555  0
H  H20  1  0.57400550  0.18914766  0.26271359  1  0.072497  0  0.101979  0.10628  0  0.993113  0
H  H21  1  0.62878483  0.44284828  0.26117807  1  0.094469  0  0.097337  0.104522  0  1.002293  0
H  H22  1  0.79539485  0.36095085  0.25229840  1  0.110472  0  0.096754  0.099555  0  1.017104  0
H  H23  1  0.67363571  0.91577388  0.77188411  1  0.096915  0  0.114152  0.128562  0  0.960616  0
H  H24  1  0.69514313  0.99352446  0.26048797  1  0.129557  0  0.113801  0.128356  0  0.961461  0
H  H25  1  0.31384889  0.27180755  0.27099253  1  0.114114  0  0.114853  0.129502  0  0.958827  0
H  H26  1  0.91485917  0.67332925  0.27172084  1  0.098205  0  0.113741  0.128028  0  0.961054  0
H  H27  1  0.02641931  0.38017429  0.72589396  1  0.080926  0  0.095304  0.09785  0  1.007759  0
H  H28  1  0.61816227  0.61189412  0.72926853  1  0.10795  0  0.096637  0.095797  0  1.009011  0
H  H29  1  0.39352374  0.99260611  0.72107562  1  0.089963  0  0.097239  0.103376  0  1.000533  0
H  H30  1  0.33249334  0.08241995  0.52969657  1  0.586074  0  0.294348  0.386008  0  0.918518  0
H  H31  1  0.08001897  0.33286506  0.02918745  1  0.573725  0  0.29421  0.385573  0  0.919012  0
C  C32  1  0.54481940  0.39204658  0.57092955  1  1.669715  0  0.2779  0.707718  0  4.157293  0
C  C33  1  0.50875990  0.98782084  0.19507212  1  0.127958  0  0.000493  0.076539  0  3.80647  0
C  C34  1  0.45295881  0.46886933  0.20290283  1  0.093427  0  -0.000844  0.082877  0  3.808135  0
C  C35  1  0.98991009  0.54992942  0.19958874  1  0.116539  0  0.001789  0.084098  0  3.814166  0
C  C36  1  0.93948520  0.45543788  0.77017912  1  -0.031354  0  -0.07307  -0.094709  0  3.609131  0
C  C37  1  0.52178841  0.46388792  0.77936393  1  0.00606  0  -0.072455  -0.098451  0  3.620136  0
C  C38  1  0.53592961  0.03225167  0.77552894  1  -0.028769  0  -0.068324  -0.090355  0  3.600158  0
C  C39  1  0.45488326  0.93969206  0.27031811  1  -0.035502  0  -0.073356  -0.094976  0  3.609542  0
C  C40  1  0.46389584  0.52204127  0.27935826  1  0.005375  0  -0.072305  -0.0985  0  3.620546  0
C  C41  1  0.03229213  0.53657436  0.27544631  1  -0.004834  0  -0.068277  -0.090732  0  3.601081  0
C  C42  1  0.91049156  0.51716083  0.73296441  1  -0.132448  0  -0.030888  0.047004  0  3.559499  0
C  C43  1  0.60410573  0.12253363  0.56780697  1  1.65856  0  0.279663  0.718569  0  4.147432  0
C  C44  1  0.44638054  0.37123946  0.74490581  1  -0.141021  0  -0.031136  0.049592  0  3.55841  0
C  C45  1  0.62895188  0.04268858  0.74400179  1  -0.14801  0  -0.030456  0.048835  0  3.564218  0
C  C46  1  0.51655451  0.91037491  0.23320873  1  -0.131676  0  -0.030761  0.047072  0  3.559606  0
C  C47  1  0.37112717  0.44650776  0.24498034  1  -0.140666  0  -0.031567  0.04934  0  3.556605  0
C  C48  1  0.04230714  0.62934415  0.24387775  1  -0.141512  0  -0.030822  0.048349  0  3.566083  0
C  C49  1  0.05457024  0.58465353  0.84097983  1  -0.481097  0  -0.022234  -0.028605  0  4.047733  0
C  C50  1  0.40716979  0.48908814  0.84611074  1  -0.007194  0  -0.022975  -0.027723  0  4.059129  0
C  C51  1  0.49540495  0.89083324  0.84230714  1  0.155133  0  -0.014171  -0.011475  0  4.031848  0
C  C52  1  0.58417288  0.05475672  0.34110528  1  -0.479847  0  -0.022415  -0.028479  0  4.046981  0
C  C53  1  0.48947194  0.40764998  0.34609062  1  0.028374  0  -0.022682  -0.02776  0  4.058987  0
C  C54  1  0.85951109  0.42925071  0.56195189  1  1.634882  0  0.287887  0.723773  0  4.138901  0
C  C55  1  0.89067346  0.49558589  0.34220455  1  0.074146  0  -0.014525  -0.011137  0  4.033306  0
C  C56  1  0.95893764  0.48327839  0.64613836  1  -0.453081  0  -0.022265  -0.008012  0  4.07309  0
C  C57  1  0.49190423  0.43843792  0.65526720  1  -0.278032  0  -0.036357  -0.034247  0  4.097525  0
C  C58  1  0.56884265  0.02850917  0.65233877  1  -0.601765  0  -0.034039  -0.033982  0  4.101463  0
C  C59  1  0.48293365  0.95845250  0.14627698  1  -0.49518  0  -0.022189  -0.00749  0  4.071685  0
C  C60  1  0.43790062  0.49183936  0.15527261  1  -0.237559  0  -0.036423  -0.034467  0  4.097543  0
C  C61  1  0.02821331  0.56900993  0.15222970  1  -0.226295  0  -0.033863  -0.034086  0  4.101271  0
C  C62  1  0.53688379  0.38128949  0.43528918  1  1.659987  0  0.279669  0.708877  0  4.173613  0
C  C63  1  0.60242504  0.12015048  0.43170654  1  1.646356  0  0.279135  0.703748  0  4.170229  0
C  C64  1  0.83080578  0.43493198  0.43163942  1  1.661604  0  0.28142  0.717259  0  4.157962  0
C  C65  1  0.39101888  0.54432537  0.07093629  1  1.649932  0  0.278305  0.706602  0  4.157206  0
C  C66  1  0.38114391  0.53684131  0.93529383  1  1.660847  0  0.278674  0.706892  0  4.173535  0
C  C67  1  0.12000774  0.60251608  0.93154988  1  1.651717  0  0.279272  0.705503  0  4.170566  0
C  C68  1  0.43455867  0.83091051  0.93171700  1  1.644091  0  0.281257  0.717568  0  4.159234  0
C  C69  1  0.07870846  0.61823645  0.71653866  1  -0.135814  0  -0.030293  0.048302  0  3.562123  0
C  C70  1  0.37012826  0.46200626  0.72138866  1  -0.143207  0  -0.031241  0.04608  0  3.561462  0
C  C71  1  0.53167547  0.87921302  0.71785205  1  -0.132271  0  -0.031142  0.041866  0  3.559769  0
C  C72  1  0.61795487  0.07841590  0.21664689  1  -0.131243  0  -0.029826  0.048666  0  3.562299  0
C  C73  1  0.46200823  0.37041440  0.22139965  1  -0.141375  0  -0.03116  0.046119  0  3.56006  0
C  C74  1  0.87884946  0.53147496  0.21773256  1  -0.132442  0  -0.03103  0.043184  0  3.558345  0
C  C75  1  0.00069266  0.62538312  0.75287787  1  -0.003058  0  -0.071719  -0.125029  0  3.619304  0
C  C76  1  0.12187479  0.60425059  0.06761075  1  1.660965  0  0.27875  0.716097  0  4.150092  0
C  C77  1  0.34868316  0.37983309  0.76180520  1  -0.024651  0  -0.071367  -0.121377  0  3.617871  0
C  C78  1  0.61139750  0.93302252  0.76089265  1  -0.001064  0  -0.071776  -0.125247  0  3.619173  0
C  C79  1  0.62488392  0.00047950  0.25310026  1  -0.04484  0  -0.071283  -0.125033  0  3.618215  0
C  C80  1  0.37995005  0.34897139  0.26188117  1  -0.021053  0  -0.07099  -0.12082  0  3.616063  0
C  C81  1  0.93243297  0.61132075  0.26074858  1  -0.00374  0  -0.071052  -0.124472  0  3.620028  0
C  C82  1  0.07695901  0.59235017  0.88375210  1  0.208823  0  -0.03553  -0.188034  0  3.958455  0
C  C83  1  0.40019207  0.50904159  0.88814139  1  -0.247751  0  -0.036311  -0.191427  0  3.968169  0
C  C84  1  0.47033916  0.86919353  0.88423274  1  -0.416113  0  -0.037908  -0.19908  0  3.952916  0
C  C85  1  0.59194241  0.07708583  0.38388377  1  0.201728  0  -0.03552  -0.187891  0  3.957202  0
C  C86  1  0.50937655  0.40059341  0.38811907  1  -0.282536  0  -0.036788  -0.191973  0  3.967309  0
C  C87  1  0.42909725  0.85892000  0.06209228  1  1.630925  0  0.287396  0.72307  0  4.139116  0
C  C88  1  0.86903848  0.47053162  0.38412872  1  -0.34769  0  -0.037426  -0.198417  0  3.954399  0
C  C89  1  0.92258153  0.46299800  0.60526782  1  0.240593  0  -0.033311  -0.188445  0  3.931726  0
C  C90  1  0.51290409  0.41904371  0.61540895  1  0.01684  0  -0.030797  -0.170209  0  3.933909  0
C  C91  1  0.58837403  0.06756012  0.61253910  1  0.351715  0  -0.029708  -0.174027  0  3.934804  0
C  C92  1  0.46269427  0.92187397  0.10544126  1  0.262299  0  -0.032981  -0.188605  0  3.930826  0
C  C93  1  0.41817355  0.51259916  0.11542878  1  0.024473  0  -0.031257  -0.170412  0  3.934613  0
C  C94  1  0.06705229  0.58847143  0.11238577  1  -0.016982  0  -0.029941  -0.17342  0  3.935103  0
C  C95  1  0.10892443  0.55721637  0.75380543  1  0.003174  0  -0.070616  -0.097539  0  3.628123  0
C  C96  1  0.44430028  0.55507207  0.75609919  1  -0.021281  0  -0.075045  -0.101694  0  3.639915  0
C  C97  1  0.43786037  0.86662369  0.74967704  1  -0.029315  0  -0.071515  -0.09652  0  3.625529  0
C  C98  1  0.98804721  0.50913314  0.69494631  1  0.100417  0  0.000792  0.077222  0  3.805323  0
C  C99  1  0.55701994  0.10894717  0.25382135  1  0.003147  0  -0.070691  -0.097587  0  3.628671  0
C  C100  1  0.55519760  0.44473826  0.25603076  1  -0.023387  0  -0.075122  -0.101679  0  3.639517  0
C  C101  1  0.86667423  0.43788962  0.24959458  1  -0.03405  0  -0.071773  -0.09721  0  3.625011  0
C  C102  1  0.03055379  0.56413928  0.79127283  1  0.128419  0  0.013049  0.144039  0  3.777145  0
C  C103  1  0.42344069  0.47285353  0.79745517  1  0.096423  0  0.011627  0.141767  0  3.787495  0
C  C104  1  0.51758557  0.92127815  0.79365954  1  0.105924  0  0.012418  0.136526  0  3.774198  0
C  C105  1  0.56367254  0.03063893  0.29140275  1  0.139337  0  0.01346  0.144493  0  3.775254  0
C  C106  1  0.47309619  0.42386375  0.29745277  1  0.094583  0  0.011009  0.141674  0  3.788109  0
C  C107  1  0.92109837  0.51773849  0.29355212  1  0.105913  0  0.012303  0.135081  0  3.776191  0
C  C108  1  0.01814863  0.44949229  0.73386750  1  -0.007934  0  -0.075744  -0.069885  0  3.628059  0
C  C109  1  0.46872816  0.45320254  0.70290048  1  0.11974  0  -0.001522  0.082149  0  3.81  0
C  C110  1  0.54155045  0.54578831  0.73910300  1  -0.041593  0  -0.077807  -0.078905  0  3.650949  0
C  C111  1  0.45612787  0.97648441  0.73288005  1  -0.027064  0  -0.072705  -0.066071  0  3.612611  0
C  C112  1  0.44921858  0.01828541  0.23389437  1  -0.007195  0  -0.076181  -0.070608  0  3.631583  0
C  C113  1  0.54566961  0.54182328  0.23902661  1  -0.048685  0  -0.077719  -0.078114  0  3.650201  0
C  C114  1  0.97675968  0.45664026  0.23282031  1  -0.040425  0  -0.072772  -0.065071  0  3.611586  0
C  C115  1  0.54967024  0.99007149  0.69967949  1  0.130916  0  0.001465  0.084068  0  3.812931  0
I  I116  1  0.18435670  0.74326167  0.67227847  1  0.086773  0  0.064723  -0.047661  0  1.32401  0
I  I117  1  0.48164994  0.75562980  0.21347158  1  0.094278  0  0.069269  -0.050125  0  1.484614  0
I  I118  1  0.22631525  0.44599732  0.23492383  1  0.07366  0  0.050507  -0.070951  0  1.404804  0
I  I119  1  0.17789704  0.77955857  0.23738782  1  0.082387  0  0.060134  -0.059357  0  1.391636  0
I  I120  1  0.25376148  0.45812729  0.67352665  1  0.084969  0  0.067328  -0.048017  0  1.389231  0
I  I121  1  0.53104578  0.76642449  0.66879101  1  0.100325  0  0.076531  -0.035129  0  1.397524  0
I  I122  1  0.74314846  0.18376556  0.17237445  1  0.086156  0  0.064242  -0.04799  0  1.322765  0
I  I123  1  0.45789246  0.25392380  0.17354462  1  0.085648  0  0.067075  -0.048366  0  1.389058  0
I  I124  1  0.76585052  0.53021875  0.16857733  1  0.100096  0  0.076566  -0.035588  0  1.398714  0
I  I125  1  0.75590740  0.48261822  0.71303416  1  0.093571  0  0.069377  -0.049754  0  1.483804  0
I  I126  1  0.44620240  0.22666610  0.73472422  1  0.07415  0  0.050373  -0.070834  0  1.404609  0
I  I127  1  0.77888360  0.17875891  0.73761159  1  0.082349  0  0.059952  -0.059788  0  1.392293  0
O  O128  1  0.52542744  0.12826845  0.55159552  1  -1.217862  0  -0.210843  -0.569956  0  2.300423  0
O  O129  1  0.29739727  0.49135499  0.05517918  1  -1.205959  0  -0.204993  -0.547532  0  2.267822  0
O  O130  1  0.16298675  0.69682382  0.04917099  1  -1.252129  0  -0.2366  -0.595125  0  2.232211  0
O  O131  1  0.47861282  0.80977143  0.05089098  1  -1.229681  0  -0.220265  -0.579668  0  2.253918  0
O  O132  1  0.52618481  0.12885889  0.44777958  1  -1.201974  0  -0.200059  -0.535064  0  2.27084  0
O  O133  1  0.82193424  0.34698204  0.44483233  1  -1.23342  0  -0.225802  -0.584904  0  2.243797  0
O  O134  1  0.61643269  0.45912831  0.45682286  1  -1.239  0  -0.243695  -0.609826  0  2.243798  0
O  O135  1  0.12903015  0.52628610  0.94738165  1  -1.206776  0  -0.200537  -0.536715  0  2.271517  0
O  O136  1  0.34638810  0.82180127  0.94478038  1  -1.231975  0  -0.226084  -0.585412  0  2.24475  0
O  O137  1  0.45901560  0.61690616  0.95653995  1  -1.238334  0  -0.242502  -0.608297  0  2.242772  0
O  O138  1  0.48278182  0.28864337  0.45091717  1  -1.216868  0  -0.199175  -0.530753  0  2.296338  0
O  O139  1  0.85290420  0.34885498  0.53921160  1  -1.243318  0  -0.225472  -0.58485  0  2.23601  0
O  O140  1  0.69233437  0.15052640  0.45357903  1  -1.248776  0  -0.245392  -0.607802  0  2.223067  0
O  O141  1  0.80459339  0.49288560  0.45666346  1  -1.245361  0  -0.229852  -0.589752  0  2.245184  0
O  O142  1  0.28875184  0.48249118  0.95118915  1  -1.217182  0  -0.199113  -0.530037  0  2.29536  0
O  O143  1  0.14996954  0.69206409  0.95365786  1  -1.247448  0  -0.245378  -0.608606  0  2.223259  0
O  O144  1  0.49246458  0.80485202  0.95686473  1  -1.244468  0  -0.229261  -0.589218  0  2.246962  0
O  O145  1  0.64783447  0.30321471  0.50139939  1  -1.615061  0  -0.390796  -1.27311  0  2.302222  0
O  O146  1  0.30280305  0.64770234  0.00135549  1  -1.616273  0  -0.39111  -1.273049  0  2.302442  0
O  O147  1  0.62930431  0.46772118  0.55215104  1  -1.247768  0  -0.241325  -0.602187  0  2.22785  0
O  O148  1  0.12694200  0.52543783  0.05111418  1  -1.213577  0  -0.210502  -0.569287  0  2.300921  0
O  O149  1  0.34903734  0.85269375  0.03918287  1  -1.244148  0  -0.225589  -0.584792  0  2.236373  0
O  O150  1  0.46690912  0.62823111  0.05188953  1  -1.259029  0  -0.24135  -0.601673  0  2.228122  0
O  O151  1  0.49140897  0.29870394  0.55492492  1  -1.210809  0  -0.204805  -0.54836  0  2.268798  0
O  O152  1  0.69644053  0.16302129  0.54912928  1  -1.251379  0  -0.237344  -0.596637  0  2.231855  0
O  O153  1  0.81061652  0.47893184  0.55062486  1  -1.227067  0  -0.220296  -0.580087  0  2.254212  0
O  O154  1  0.36286584  0.11984223  0.50031332  1  -1.369006  0  -0.573616  -0.991206  0  1.79469  0
O  O155  1  0.11925684  0.36285440  0.00016263  1  -1.357548  0  -0.573429  -0.990671  0  1.794512  0
