# generated using pymatgen
data_ZnH14C16N2O5
_symmetry_space_group_name_H-M   'P 1'
_cell_length_a   6.92458047
_cell_length_b   13.24255855
_cell_length_c   17.55256274
_cell_angle_alpha   95.56135595
_cell_angle_beta   101.36579792
_cell_angle_gamma   90.00480596
_symmetry_Int_Tables_number   1
_chemical_formula_structural   ZnH14C16N2O5
_chemical_formula_sum   'Zn4 H56 C64 N8 O20'
_cell_volume   1570.25916427
_cell_formula_units_Z   4
loop_
 _symmetry_equiv_pos_site_id
 _symmetry_equiv_pos_as_xyz
  1  'x, y, z'
loop_
 _atom_site_type_symbol
 _atom_site_label
 _atom_site_symmetry_multiplicity
 _atom_site_fract_x
 _atom_site_fract_y
 _atom_site_fract_z
 _atom_site_occupancy
 _atom_site_pbe_bader_charge
 _atom_site_pbe_bader_spin_density
 _atom_site_pbe_cm5_charge
 _atom_site_pbe_ddec_charge
 _atom_site_pbe_ddec_spin_density
 _atom_site_pbe_ddec_sum_bond_order
 _atom_site_pbe_magmom
Zn  Zn0  1  0.89976908  0.91538578  0.67431322  1  1.277435  0  0.703216  0.889612  0  2.279594  0
Zn  Zn1  1  0.22468935  0.58441505  0.32571063  1  1.278907  0  0.70282  0.889335  0  2.278408  0
Zn  Zn2  1  0.10023591  0.08461649  0.32568705  1  1.277418  0  0.703155  0.88951  0  2.279646  0
Zn  Zn3  1  0.77530640  0.41558111  0.67428751  1  1.278901  0  0.702793  0.88927  0  2.278415  0
H  H4  1  0.36159821  0.91248799  0.87594221  1  0.058184  0  0.102992  0.104619  0  1.012414  0
H  H5  1  0.48533155  0.58704314  0.12407907  1  0.087958  0  0.102527  0.103783  0  1.013499  0
H  H6  1  0.63840618  0.08751275  0.12405739  1  0.058131  0  0.102989  0.104618  0  1.012442  0
H  H7  1  0.51466218  0.41295760  0.87592016  1  0.088049  0  0.102532  0.103779  0  1.013497  0
H  H8  1  0.65542101  0.87934236  0.97768736  1  0.054858  0  0.100434  0.099773  0  1.008368  0
H  H9  1  0.67748210  0.62033142  0.02236324  1  0.054248  0  0.100213  0.099724  0  1.009252  0
H  H10  1  0.34458145  0.12065837  0.02231178  1  0.054775  0  0.100426  0.099784  0  1.008353  0
H  H11  1  0.32251107  0.37966930  0.97763541  1  0.054268  0  0.100177  0.099699  0  1.009362  0
H  H12  1  0.93934159  0.78609640  0.93723889  1  0.065693  0  0.099096  0.094459  0  1.032972  0
H  H13  1  0.00145236  0.71394677  0.06280954  1  0.045774  0  0.098882  0.094476  0  1.032912  0
H  H14  1  0.06065974  0.21390209  0.06276204  1  0.065623  0  0.099096  0.094459  0  1.032978  0
H  H15  1  0.99853737  0.28605700  0.93719021  1  0.046251  0  0.098897  0.094524  0  1.032829  0
H  H16  1  0.93145161  0.73321647  0.79844867  1  0.07908  0  0.101213  0.105952  0  1.033406  0
H  H17  1  0.13207982  0.76690901  0.20158844  1  0.075685  0  0.101206  0.106089  0  1.033435  0
H  H18  1  0.06854642  0.26678126  0.20155186  1  0.079057  0  0.101233  0.105954  0  1.033328  0
H  H19  1  0.86790817  0.23309245  0.79840944  1  0.07602  0  0.101193  0.106056  0  1.033331  0
H  H20  1  0.62876556  0.09139929  0.56770887  1  0.083778  0  0.113119  0.174674  0  0.964709  0
H  H21  1  0.06018235  0.40839625  0.43212722  1  0.096699  0  0.113149  0.174376  0  0.964609  0
H  H22  1  0.37124482  0.90859924  0.43229380  1  0.083877  0  0.113092  0.174706  0  0.964729  0
H  H23  1  0.93981656  0.59160374  0.56787277  1  0.096512  0  0.113141  0.174365  0  0.964623  0
H  H24  1  0.37511221  0.09238318  0.57372731  1  0.098851  0  0.113219  0.175451  0  0.975672  0
H  H25  1  0.80056288  0.40741370  0.42619504  1  0.086267  0  0.112738  0.174614  0  0.975767  0
H  H26  1  0.62489676  0.90761529  0.42627239  1  0.098954  0  0.11325  0.17554  0  0.975692  0
H  H27  1  0.19943981  0.59258625  0.57380280  1  0.086242  0  0.112768  0.174653  0  0.975771  0
H  H28  1  0.49948205  0.97445943  0.56699367  1  0.094515  0  0.110012  0.165762  0  0.994543  0
H  H29  1  0.93171684  0.52534026  0.43298152  1  0.095504  0  0.109555  0.165023  0  0.995266  0
H  H30  1  0.50053086  0.02554063  0.43301012  1  0.094454  0  0.109963  0.165701  0  0.99459  0
H  H31  1  0.06828062  0.47465891  0.56701545  1  0.09545  0  0.10955  0.165004  0  0.995312  0
H  H32  1  0.39495108  0.17516105  0.88149688  1  0.064702  0  0.098672  0.110021  0  1.052782  0
H  H33  1  0.51233039  0.32522937  0.11834133  1  0.07679  0  0.098573  0.110222  0  1.052566  0
H  H34  1  0.60505938  0.82483975  0.11850593  1  0.064623  0  0.098677  0.110064  0  1.052763  0
H  H35  1  0.48766309  0.67476378  0.88165741  1  0.076869  0  0.098602  0.110272  0  1.052575  0
H  H36  1  0.65929888  0.15551918  0.99840367  1  0.056951  0  0.095694  0.093125  0  1.040574  0
H  H37  1  0.66030687  0.34455663  0.00149996  1  0.053543  0  0.095236  0.092278  0  1.040879  0
H  H38  1  0.34070388  0.84447937  0.00160022  1  0.057024  0  0.095675  0.093076  0  1.040544  0
H  H39  1  0.33968115  0.65544559  0.99849797  1  0.053637  0  0.095244  0.092292  0  1.040883  0
H  H40  1  0.97037444  0.07224259  0.98512796  1  0.067258  0  0.095486  0.090725  0  1.054752  0
H  H41  1  0.98496535  0.42746511  0.01481302  1  0.050509  0  0.095928  0.090976  0  1.054544  0
H  H42  1  0.02962906  0.92775367  0.01487510  1  0.067368  0  0.095508  0.090743  0  1.05482  0
H  H43  1  0.01502010  0.57254389  0.98518249  1  0.050375  0  0.095942  0.09097  0  1.054587  0
H  H44  1  0.02911926  0.99992074  0.85439771  1  0.105316  0  0.104757  0.121243  0  1.009339  0
H  H45  1  0.17443470  0.49969711  0.14558290  1  0.103312  0  0.105308  0.12288  0  1.008165  0
H  H46  1  0.97088927  0.00008006  0.14560464  1  0.105399  0  0.104774  0.121285  0  1.009292  0
H  H47  1  0.82555437  0.50030507  0.85441310  1  0.103624  0  0.10528  0.122821  0  1.008152  0
H  H48  1  0.03624264  0.03816831  0.59653058  1  0.654605  0  0.299698  0.3939  0  0.93201  0
H  H49  1  0.43905776  0.46180787  0.40354200  1  0.638167  0  0.299085  0.393388  0  0.933251  0
H  H50  1  0.96375849  0.96183319  0.40346872  1  0.654629  0  0.299681  0.393875  0  0.932042  0
H  H51  1  0.56094526  0.53819287  0.59645771  1  0.638175  0  0.299089  0.393394  0  0.93324  0
H  H52  1  0.13994466  0.92875908  0.59864580  1  0.649796  0  0.292465  0.382206  0  0.954988  0
H  H53  1  0.54055386  0.57125466  0.40138156  1  0.642757  0  0.291663  0.381429  0  0.95635  0
H  H54  1  0.86005263  0.07124240  0.40135257  1  0.649785  0  0.292449  0.38217  0  0.955034  0
H  H55  1  0.45944454  0.42874684  0.59861795  1  0.642768  0  0.29163  0.381375  0  0.956426  0
H  H56  1  0.32621410  0.13430635  0.70728765  1  0.563539  0  0.304764  0.287795  0  1.002661  0
H  H57  1  0.61776972  0.36588394  0.29261694  1  0.551623  0  0.304482  0.286209  0  1.003944  0
H  H58  1  0.67379305  0.86569369  0.29271476  1  0.563562  0  0.304733  0.287753  0  1.002662  0
H  H59  1  0.38223318  0.63411301  0.70738253  1  0.551416  0  0.304491  0.286209  0  1.003906  0
C  C60  1  0.30274880  0.86506294  0.72128384  1  1.564398  0  0.204683  0.569211  0  4.212055  0
C  C61  1  0.58084110  0.63459548  0.27873006  1  1.560727  0  0.205605  0.569948  0  4.212271  0
C  C62  1  0.69725181  0.13493784  0.27871791  1  1.564146  0  0.204722  0.569366  0  4.211941  0
C  C63  1  0.41915538  0.36540601  0.72126899  1  1.560728  0  0.205599  0.570009  0  4.212403  0
C  C64  1  0.47887277  0.84014652  0.78078816  1  -0.009963  0  -0.018909  -0.064307  0  3.954895  0
C  C65  1  0.69750968  0.65952578  0.21922534  1  -0.00375  0  -0.019683  -0.065935  0  3.956078  0
C  C66  1  0.52112831  0.15985346  0.21921104  1  -0.010263  0  -0.018932  -0.064407  0  3.955035  0
C  C67  1  0.30248617  0.34047342  0.78077300  1  -0.003824  0  -0.019636  -0.065854  0  3.956214  0
C  C68  1  0.48694417  0.87213150  0.85993622  1  -0.00113  0  -0.08407  -0.093862  0  3.989961  0
C  C69  1  0.62658737  0.62749383  0.14007814  1  -0.058977  0  -0.083253  -0.092152  0  3.988518  0
C  C70  1  0.51305883  0.12786848  0.14006344  1  -0.001069  0  -0.084036  -0.093755  0  3.989975  0
C  C71  1  0.37340434  0.37250754  0.85991452  1  -0.058864  0  -0.083241  -0.092166  0  3.988514  0
C  C72  1  0.65083633  0.85334004  0.91649376  1  -0.058332  0  -0.093896  -0.094746  0  4.028882  0
C  C73  1  0.73393116  0.64638017  0.08354207  1  -0.022539  0  -0.094245  -0.095898  0  4.028066  0
C  C74  1  0.34915707  0.14665845  0.08350657  1  -0.058376  0  -0.093925  -0.094887  0  4.02909  0
C  C75  1  0.26606229  0.35361983  0.91645836  1  -0.022675  0  -0.094201  -0.095878  0  4.027958  0
C  C76  1  0.81000024  0.80227645  0.89409446  1  -0.051747  0  -0.088439  -0.072727  0  4.001865  0
C  C77  1  0.91531543  0.69761811  0.10595019  1  0.023866  0  -0.087851  -0.071473  0  4.001568  0
C  C78  1  0.19000399  0.19772735  0.10590659  1  -0.051478  0  -0.088466  -0.072658  0  4.001935  0
C  C79  1  0.08467402  0.30238639  0.89404779  1  0.023745  0  -0.08791  -0.071587  0  4.001734  0
C  C80  1  0.80544381  0.77150322  0.81555541  1  -0.035196  0  -0.090095  -0.104408  0  3.97652  0
C  C81  1  0.98915496  0.72843312  0.18448625  1  -0.070368  0  -0.090938  -0.105909  0  3.977263  0
C  C82  1  0.19455637  0.22849227  0.18444725  1  -0.03526  0  -0.090055  -0.104359  0  3.976366  0
C  C83  1  0.01084137  0.27156997  0.81551723  1  -0.071113  0  -0.090921  -0.105807  0  3.977124  0
C  C84  1  0.64037232  0.78906508  0.75828805  1  -0.05962  0  -0.016755  -0.079094  0  3.970686  0
C  C85  1  0.88133423  0.71075367  0.24173524  1  -0.086126  0  -0.015954  -0.078152  0  3.970148  0
C  C86  1  0.35963423  0.21093343  0.24171369  1  -0.059262  0  -0.016749  -0.079143  0  3.970776  0
C  C87  1  0.11865861  0.28924480  0.75826452  1  -0.086355  0  -0.015963  -0.078207  0  3.970062  0
C  C88  1  0.64386089  0.74410094  0.67597658  1  1.619955  0  0.220187  0.606844  0  4.193804  0
C  C89  1  0.96706170  0.75570316  0.32404026  1  1.621148  0  0.220653  0.608815  0  4.19191  0
C  C90  1  0.35614350  0.25589980  0.32402302  1  1.619894  0  0.22015  0.606873  0  4.193965  0
C  C91  1  0.03293660  0.24429530  0.67595906  1  1.621431  0  0.220518  0.608629  0  4.191977  0
C  C92  1  0.51477341  0.05417708  0.59140924  1  -0.050714  0  -0.226804  -0.497671  0  3.907013  0
C  C93  1  0.92250472  0.44564792  0.40850447  1  -0.048437  0  -0.226041  -0.49524  0  3.906256  0
C  C94  1  0.48523670  0.94582217  0.40859166  1  -0.050954  0  -0.22676  -0.497734  0  3.907104  0
C  C95  1  0.07749578  0.55435129  0.59149411  1  -0.048259  0  -0.226046  -0.495245  0  3.906295  0
C  C96  1  0.57377392  0.05990365  0.67742319  1  1.034343  0  0.246197  0.450622  0  3.953875  0
C  C97  1  0.89548495  0.44003197  0.32248930  1  1.029402  0  0.244857  0.448242  0  3.954745  0
C  C98  1  0.42623223  0.94010016  0.32257832  1  1.034331  0  0.246211  0.450597  0  3.953834  0
C  C99  1  0.10451050  0.55996270  0.67750999  1  1.029345  0  0.244833  0.448229  0  3.954655  0
C  C100  1  0.57033109  0.10160803  0.80294904  1  0.393382  0  0.093484  0.147238  0  4.012718  0
C  C101  1  0.76652138  0.39850468  0.19696017  1  0.325305  0  0.093649  0.146586  0  4.013161  0
C  C102  1  0.42967885  0.89839428  0.19705330  1  0.393447  0  0.093396  0.147092  0  4.012705  0
C  C103  1  0.23348137  0.60148917  0.80303602  1  0.325884  0  0.09366  0.146604  0  4.013179  0
C  C104  1  0.53209823  0.13801472  0.87568917  1  -0.069537  0  -0.098279  -0.167206  0  3.99224  0
C  C105  1  0.65551741  0.36219131  0.12421593  1  -0.026025  0  -0.098865  -0.16836  0  3.994911  0
C  C106  1  0.46791071  0.86198915  0.12431520  1  -0.069467  0  -0.098294  -0.167325  0  3.992376  0
C  C107  1  0.34447973  0.63780561  0.87578215  1  -0.026445  0  -0.098925  -0.168488  0  3.994918  0
C  C108  1  0.68037634  0.12616108  0.94049295  1  0.004835  0  -0.104992  -0.102409  0  4.03904  0
C  C109  1  0.73921149  0.37386204  0.05942153  1  -0.012035  0  -0.104389  -0.100829  0  4.038023  0
C  C110  1  0.31962801  0.87383669  0.05950954  1  0.004816  0  -0.10486  -0.102097  0  4.038984  0
C  C111  1  0.26077999  0.62613788  0.94057536  1  -0.011981  0  -0.104315  -0.100734  0  4.03796  0
C  C112  1  0.85817024  0.07849584  0.93296027  1  -0.083348  0  -0.105087  -0.106464  0  4.051797  0
C  C113  1  0.92476169  0.42131577  0.06696611  1  -0.059318  0  -0.105207  -0.106228  0  4.051919  0
C  C114  1  0.14183496  0.92150343  0.06704163  1  -0.083238  0  -0.105196  -0.10668  0  4.051915  0
C  C115  1  0.07522885  0.57868944  0.93302997  1  -0.059153  0  -0.105335  -0.106374  0  4.052007  0
C  C116  1  0.89336768  0.03850104  0.86076302  1  -0.025303  0  -0.092071  -0.15091  0  3.979435  0
C  C117  1  0.03213490  0.46129211  0.13916148  1  -0.023394  0  -0.093354  -0.154138  0  3.980309  0
C  C118  1  0.10664339  0.96150129  0.13924046  1  -0.025387  0  -0.092055  -0.150929  0  3.979617  0
C  C119  1  0.96785905  0.53870784  0.86083645  1  -0.023775  0  -0.093303  -0.154014  0  3.980182  0
C  C120  1  0.74651754  0.05053610  0.79551430  1  0.361805  0  0.084675  0.139472  0  4.076161  0
C  C121  1  0.95036728  0.44937857  0.20440211  1  0.38131  0  0.085513  0.141278  0  4.074777  0
C  C122  1  0.25348452  0.94946771  0.20448754  1  0.36167  0  0.084732  0.139631  0  4.076219  0
C  C123  1  0.04963021  0.55061991  0.79559789  1  0.3811  0  0.085577  0.141331  0  4.074808  0
N  N124  1  0.74197559  0.02390521  0.71648799  1  -1.255029  0  -0.369647  -0.449122  0  3.504252  0
N  N125  1  0.02478160  0.47594857  0.28343892  1  -1.24481  0  -0.369159  -0.448485  0  3.504172  0
N  N126  1  0.25803282  0.97609940  0.28351586  1  -1.255004  0  -0.369653  -0.449117  0  3.504217  0
N  N127  1  0.97521362  0.52404689  0.71656168  1  -1.244662  0  -0.369163  -0.448512  0  3.504125  0
N  N128  1  0.46681047  0.10580293  0.72721325  1  -1.302511  0  -0.369565  -0.311742  0  3.533238  0
N  N129  1  0.73856376  0.39432922  0.27268963  1  -1.295752  0  -0.368504  -0.309303  0  3.533114  0
N  N130  1  0.53319675  0.89419939  0.27278930  1  -1.302608  0  -0.369534  -0.311673  0  3.533175  0
N  N131  1  0.26143715  0.60566544  0.72730923  1  -1.295672  0  -0.368483  -0.309248  0  3.533113  0
O  O132  1  0.14579542  0.88839906  0.74825473  1  -1.177218  0  -0.331785  -0.572919  0  2.341147  0
O  O133  1  0.39693477  0.61123034  0.25178072  1  -1.175487  0  -0.33136  -0.572336  0  2.340859  0
O  O134  1  0.85420741  0.11160323  0.25174633  1  -1.17691  0  -0.331782  -0.572961  0  2.341141  0
O  O135  1  0.60306161  0.38876812  0.74821813  1  -1.175442  0  -0.331314  -0.572305  0  2.340909  0
O  O136  1  0.31843894  0.86371976  0.65082833  1  -1.169456  0  -0.304404  -0.532111  0  2.170991  0
O  O137  1  0.66683753  0.63612345  0.34920878  1  -1.16845  0  -0.304635  -0.531892  0  2.170919  0
O  O138  1  0.68156666  0.13628404  0.34917261  1  -1.169527  0  -0.304458  -0.532197  0  2.170993  0
O  O139  1  0.33315588  0.36387504  0.65079155  1  -1.168502  0  -0.304664  -0.531921  0  2.170938  0
O  O140  1  0.54808235  0.66197084  0.65241255  1  -1.185409  0  -0.302258  -0.54703  0  2.213176  0
O  O141  1  0.89484274  0.83782334  0.34761416  1  -1.187702  0  -0.302437  -0.548231  0  2.209996  0
O  O142  1  0.45191817  0.33802912  0.34758608  1  -1.185429  0  -0.302264  -0.547044  0  2.213188  0
O  O143  1  0.10516544  0.16217590  0.65238627  1  -1.187743  0  -0.302362  -0.54814  0  2.209967  0
O  O144  1  0.75735061  0.78476619  0.63742343  1  -1.161829  0  -0.319534  -0.533047  0  2.266906  0
O  O145  1  0.11900745  0.71503148  0.36262869  1  -1.162703  0  -0.320392  -0.534881  0  2.266052  0
O  O146  1  0.24265661  0.21523612  0.36257913  1  -1.161806  0  -0.319462  -0.53299  0  2.26695  0
O  O147  1  0.88099244  0.28496619  0.63736922  1  -1.162706  0  -0.320364  -0.534824  0  2.265979  0
O  O148  1  0.00978516  0.96396729  0.58507975  1  -1.256051  0  -0.566904  -0.721873  0  2.112381  0
O  O149  1  0.42401004  0.53600593  0.41500060  1  -1.234515  0  -0.565946  -0.721274  0  2.110898  0
O  O150  1  0.99021266  0.03603344  0.41491915  1  -1.256028  0  -0.566871  -0.721783  0  2.112393  0
O  O151  1  0.57598912  0.46399404  0.58499814  1  -1.234532  0  -0.565932  -0.721244  0  2.110935  0
