# generated using pymatgen
data_Ag2H10C5(SN2)2
_symmetry_space_group_name_H-M   'P 1'
_cell_length_a   5.94793018
_cell_length_b   6.23385120
_cell_length_c   14.11164048
_cell_angle_alpha   90.00565351
_cell_angle_beta   92.94329269
_cell_angle_gamma   90.00536033
_symmetry_Int_Tables_number   1
_chemical_formula_structural   Ag2H10C5(SN2)2
_chemical_formula_sum   'Ag4 H20 C10 S4 N8'
_cell_volume   522.54838821
_cell_formula_units_Z   2
loop_
 _symmetry_equiv_pos_site_id
 _symmetry_equiv_pos_as_xyz
  1  'x, y, z'
loop_
 _atom_site_type_symbol
 _atom_site_label
 _atom_site_symmetry_multiplicity
 _atom_site_fract_x
 _atom_site_fract_y
 _atom_site_fract_z
 _atom_site_occupancy
 _atom_site_hle17_bader_spin_density
 _atom_site_hle17_ddec_charge
 _atom_site_hle17_ddec_spin_density
 _atom_site_hle17_ddec_sum_bond_order
 _atom_site_hle17_magmom
 _atom_site_hse06_10hf_bader_spin_density
 _atom_site_hse06_10hf_ddec_charge
 _atom_site_hse06_10hf_ddec_spin_density
 _atom_site_hse06_10hf_ddec_sum_bond_order
 _atom_site_hse06_10hf_magmom
 _atom_site_hse06_bader_spin_density
 _atom_site_hse06_ddec_charge
 _atom_site_hse06_ddec_spin_density
 _atom_site_hse06_ddec_sum_bond_order
 _atom_site_hse06_magmom
 _atom_site_pbe_bader_spin_density
 _atom_site_pbe_cm5_charge
 _atom_site_pbe_ddec_charge
 _atom_site_pbe_ddec_spin_density
 _atom_site_pbe_ddec_sum_bond_order
 _atom_site_pbe_magmom
Ag  Ag0  1  0.39358281  0.21527455  0.04265381  1  0  0.454448  0  1.691456  0  0  0.333452  0  2.183195  0  0  0.354558  0  2.139186  0  0  0.415529  0.319558  0  2.212717  0
Ag  Ag1  1  0.39359837  0.78474934  0.54266397  1  0  0.454533  0  1.691405  0  0  0.333501  0  2.183142  0  0  0.354601  0  2.139137  0  0  0.415544  0.319585  0  2.212696  0
Ag  Ag2  1  0.60640512  0.78485567  0.95734675  1  0  0.454567  0  1.691498  0  0  0.333505  0  2.183395  0  0  0.354591  0  2.139392  0  0  0.415537  0.319584  0  2.212967  0
Ag  Ag3  1  0.60638946  0.21513384  0.45734438  1  0  0.45458  0  1.691439  0  0  0.333528  0  2.183261  0  0  0.354626  0  2.139256  0  0  0.415585  0.319591  0  2.212862  0
H  H4  1  0.60045205  0.46341135  0.17851647  1  0  0.262273  0  0.932299  0  0  0.258424  0  0.985866  0  0  0.262659  0  0.984372  0  0  0.273795  0.255433  0  0.986951  0
H  H5  1  0.60039427  0.53659902  0.67847731  1  0  0.262276  0  0.932172  0  0  0.258436  0  0.985699  0  0  0.262667  0  0.984214  0  0  0.273739  0.255445  0  0.986779  0
H  H6  1  0.39957793  0.53665149  0.82148860  1  0  0.262307  0  0.932287  0  0  0.25847  0  0.985798  0  0  0.262698  0  0.984313  0  0  0.27377  0.255481  0  0.98688  0
H  H7  1  0.39962383  0.46334031  0.32153599  1  0  0.262286  0  0.932236  0  0  0.258427  0  0.985793  0  0  0.26266  0  0.984304  0  0  0.273721  0.255437  0  0.986875  0
H  H8  1  0.76553672  0.43976556  0.09162862  1  0  0.276212  0  0.937057  0  0  0.267006  0  0.997618  0  0  0.271065  0  0.996475  0  0  0.27752  0.264087  0  0.998522  0
H  H9  1  0.76551488  0.56025786  0.59160393  1  0  0.27595  0  0.93743  0  0  0.266738  0  0.997975  0  0  0.270798  0  0.996833  0  0  0.277431  0.263819  0  0.998875  0
H  H10  1  0.23447981  0.56028605  0.90837260  1  0  0.276261  0  0.937146  0  0  0.267048  0  0.997655  0  0  0.271107  0  0.996509  0  0  0.277531  0.264127  0  0.998561  0
H  H11  1  0.23449147  0.43968468  0.40840555  1  0  0.276001  0  0.937353  0  0  0.266831  0  0.997817  0  0  0.270894  0  0.996668  0  0  0.277439  0.263914  0  0.998716  0
H  H12  1  0.72086922  0.11369384  0.24155062  1  0  0.045045  0  0.966389  0  0  0.061575  0  1.036534  0  0  0.061738  0  1.036924  0  0  0.08289  0.061356  0  1.036364  0
H  H13  1  0.72090767  0.88629668  0.74157322  1  0  0.045112  0  0.96646  0  0  0.061614  0  1.036632  0  0  0.061773  0  1.037025  0  0  0.082931  0.061397  0  1.036456  0
H  H14  1  0.27910868  0.88633211  0.75843978  1  0  0.045145  0  0.966375  0  0  0.061596  0  1.036525  0  0  0.061755  0  1.03692  0  0  0.082903  0.061385  0  1.036348  0
H  H15  1  0.27907352  0.11366671  0.25842647  1  0  0.045105  0  0.9665  0  0  0.061593  0  1.036632  0  0  0.061761  0  1.037024  0  0  0.082921  0.061384  0  1.036447  0
H  H16  1  0.89846893  0.09511267  0.14539769  1  0  0.059231  0  0.948653  0  0  0.077568  0  1.011184  0  0  0.076555  0  1.013407  0  0  0.095631  0.078177  0  1.009722  0
H  H17  1  0.89853202  0.90490119  0.64542966  1  0  0.05924  0  0.948652  0  0  0.077617  0  1.011174  0  0  0.076604  0  1.013388  0  0  0.095629  0.078224  0  1.009717  0
H  H18  1  0.10151066  0.90492130  0.85459204  1  0  0.059306  0  0.948638  0  0  0.07766  0  1.011097  0  0  0.076641  0  1.013327  0  0  0.095665  0.078273  0  1.00963  0
H  H19  1  0.10143404  0.09506701  0.35456614  1  0  0.059238  0  0.948661  0  0  0.077557  0  1.011211  0  0  0.076549  0  1.013432  0  0  0.095612  0.078166  0  1.009751  0
H  H20  1  0.08555511  0.44463646  0.20055590  1  0  0.063355  0  0.96158  0  0  0.078013  0  1.032062  0  0  0.078788  0  1.032041  0  0  0.080291  0.077401  0  1.03215  0
H  H21  1  0.08549997  0.55535149  0.70054402  1  0  0.063301  0  0.961543  0  0  0.078078  0  1.03194  0  0  0.078857  0  1.031922  0  0  0.080293  0.077465  0  1.032028  0
H  H22  1  0.91446809  0.55536383  0.79945327  1  0  0.063276  0  0.961526  0  0  0.078015  0  1.031984  0  0  0.078789  0  1.031973  0  0  0.080299  0.077404  0  1.032065  0
H  H23  1  0.91451652  0.44464237  0.29946216  1  0  0.063333  0  0.961689  0  0  0.07808  0  1.032044  0  0  0.078853  0  1.032024  0  0  0.080299  0.07747  0  1.032128  0
C  C24  1  0.10542067  0.77179325  0.06826498  1  0  0.286563  0  3.995226  0  0  0.269957  0  4.290131  0  0  0.290074  0  4.303977  0  0  0.147228  0.256165  0  4.280781  0
C  C25  1  0.10540036  0.22821612  0.56827324  1  0  0.286603  0  3.995078  0  0  0.26999  0  4.29  0  0  0.290105  0  4.303856  0  0  0.147179  0.256202  0  4.280633  0
C  C26  1  0.89457912  0.22825355  0.93172593  1  0  0.286622  0  3.995097  0  0  0.270007  0  4.29001  0  0  0.290125  0  4.303872  0  0  0.147235  0.256213  0  4.280657  0
C  C27  1  0.89460267  0.77174406  0.43173050  1  0  0.286747  0  3.99501  0  0  0.270118  0  4.289923  0  0  0.290233  0  4.303776  0  0  0.147308  0.256329  0  4.28056  0
C  C28  1  0.82203185  0.20861311  0.19373707  1  0  0.081695  0  3.640304  0  0  0.028684  0  3.892658  0  0  0.032624  0  3.907341  0  0  -0.085516  0.026151  0  3.882464  0
C  C29  1  0.82205069  0.79139107  0.69374928  1  0  0.08161  0  3.640601  0  0  0.028568  0  3.893042  0  0  0.032518  0  3.907735  0  0  -0.085537  0.026022  0  3.882856  0
C  C30  1  0.17795949  0.79141765  0.80625719  1  0  0.081327  0  3.640436  0  0  0.028505  0  3.892643  0  0  0.032447  0  3.907335  0  0  -0.085632  0.025977  0  3.88242  0
C  C31  1  0.17793554  0.20857552  0.30625053  1  0  0.081429  0  3.64069  0  0  0.028436  0  3.893121  0  0  0.032356  0  3.907838  0  0  -0.085573  0.025899  0  3.882925  0
C  C32  1  0.00000932  0.33876579  0.25000239  1  0  -0.172985  0  3.69373  0  0  -0.205717  0  3.944808  0  0  -0.207999  0  3.959061  0  0  -0.175793  -0.203873  0  3.934762  0
C  C33  1  0.99999710  0.66123128  0.75000072  1  0  -0.172734  0  3.693261  0  0  -0.205718  0  3.94463  0  0  -0.207991  0  3.958825  0  0  -0.175795  -0.203878  0  3.934597  0
S  S34  1  0.35259481  0.81293755  0.12097692  1  0  -0.339049  0  2.334783  0  0  -0.294793  0  2.717411  0  0  -0.308208  0  2.699674  0  0  -0.141747  -0.285816  0  2.729394  0
S  S35  1  0.35256275  0.18707742  0.62099291  1  0  -0.339093  0  2.334532  0  0  -0.294862  0  2.717208  0  0  -0.308262  0  2.699432  0  0  -0.14175  -0.285876  0  2.72918  0
S  S36  1  0.64740501  0.18712208  0.87901044  1  0  -0.338963  0  2.334577  0  0  -0.294758  0  2.717322  0  0  -0.308121  0  2.699484  0  0  -0.141753  -0.28578  0  2.729308  0
S  S37  1  0.64744034  0.81286993  0.37900516  1  0  -0.339073  0  2.334536  0  0  -0.294836  0  2.717225  0  0  -0.308219  0  2.699427  0  0  -0.141752  -0.28585  0  2.729207  0
N  N38  1  0.92678790  0.74055235  0.02993320  1  0  -0.499234  0  3.030066  0  0  -0.437148  0  3.338889  0  0  -0.455965  0  3.342907  0  0  -0.41083  -0.42466  0  3.336284  0
N  N39  1  0.92678531  0.25946147  0.52993834  1  0  -0.49926  0  3.030169  0  0  -0.437197  0  3.339006  0  0  -0.456016  0  3.343024  0  0  -0.410811  -0.424705  0  3.336385  0
N  N40  1  0.07320511  0.25951049  0.97006251  1  0  -0.499253  0  3.030144  0  0  -0.437136  0  3.338942  0  0  -0.455972  0  3.342978  0  0  -0.410809  -0.424647  0  3.336336  0
N  N41  1  0.07321097  0.74048588  0.47006737  1  0  -0.499294  0  3.030097  0  0  -0.437182  0  3.338894  0  0  -0.45601  0  3.342924  0  0  -0.410853  -0.424689  0  3.336278  0
N  N42  1  0.67045943  0.35096342  0.13606202  1  0  -0.604018  0  3.207259  0  0  -0.539898  0  3.462138  0  0  -0.559909  0  3.464642  0  0  -0.64688  -0.525924  0  3.459895  0
N  N43  1  0.67046076  0.64905861  0.63604652  1  0  -0.603916  0  3.207533  0  0  -0.539648  0  3.462349  0  0  -0.559671  0  3.464873  0  0  -0.646778  -0.525668  0  3.460086  0
N  N44  1  0.32954870  0.64909462  0.86393901  1  0  -0.604259  0  3.207609  0  0  -0.540087  0  3.462415  0  0  -0.560096  0  3.464922  0  0  -0.64688  -0.526113  0  3.460177  0
N  N45  1  0.32953887  0.35088233  0.36396068  1  0  -0.603844  0  3.207313  0  0  -0.539617  0  3.462054  0  0  -0.559628  0  3.464573  0  0  -0.646766  -0.525644  0  3.459805  0
