# generated using pymatgen
data_AgH10C5SIN2
_symmetry_space_group_name_H-M   'P 1'
_cell_length_a   8.57403403
_cell_length_b   13.15172760
_cell_length_c   13.77260000
_cell_angle_alpha   111.37527727
_cell_angle_beta   107.88573737
_cell_angle_gamma   90.04375064
_symmetry_Int_Tables_number   1
_chemical_formula_structural   AgH10C5SIN2
_chemical_formula_sum   'Ag6 H60 C30 S6 I6 N12'
_cell_volume   1365.14648778
_cell_formula_units_Z   6
loop_
 _symmetry_equiv_pos_site_id
 _symmetry_equiv_pos_as_xyz
  1  'x, y, z'
loop_
 _atom_site_type_symbol
 _atom_site_label
 _atom_site_symmetry_multiplicity
 _atom_site_fract_x
 _atom_site_fract_y
 _atom_site_fract_z
 _atom_site_occupancy
 _atom_site_hle17_bader_spin_density
 _atom_site_hle17_ddec_charge
 _atom_site_hle17_ddec_spin_density
 _atom_site_hle17_ddec_sum_bond_order
 _atom_site_hle17_magmom
 _atom_site_hse06_10hf_bader_spin_density
 _atom_site_hse06_10hf_ddec_charge
 _atom_site_hse06_10hf_ddec_spin_density
 _atom_site_hse06_10hf_ddec_sum_bond_order
 _atom_site_hse06_10hf_magmom
 _atom_site_hse06_bader_spin_density
 _atom_site_hse06_ddec_charge
 _atom_site_hse06_ddec_spin_density
 _atom_site_hse06_ddec_sum_bond_order
 _atom_site_hse06_magmom
 _atom_site_pbe_bader_charge
 _atom_site_pbe_bader_spin_density
 _atom_site_pbe_cm5_charge
 _atom_site_pbe_ddec_charge
 _atom_site_pbe_ddec_spin_density
 _atom_site_pbe_ddec_sum_bond_order
 _atom_site_pbe_magmom
Ag  Ag0  1  0.41852095  0.47007053  0.56944979  1  0  0.281709  0  2.043886  0  0  0.200179  0  2.562009  0  0  0.22193  0  2.513983  0  0.289776  0  0.245245  0.185541  0  2.594514  0
Ag  Ag1  1  0.58148170  0.52993244  0.43055110  1  0  0.281732  0  2.043851  0  0  0.200202  0  2.56197  0  0  0.221952  0  2.513941  0  0.289815  0  0.245241  0.185562  0  2.594473  0
Ag  Ag2  1  0.44634541  0.11547855  0.43597033  1  0  0.30178  0  1.941077  0  0  0.214481  0  2.438866  0  0  0.235778  0  2.396243  0  0.298535  0  0.234676  0.20015  0  2.467568  0
Ag  Ag3  1  0.55365293  0.88452113  0.56403004  1  0  0.301822  0  1.941028  0  0  0.214527  0  2.438805  0  0  0.235826  0  2.396183  0  0.298538  0  0.234702  0.200197  0  2.467507  0
Ag  Ag4  1  0.66892146  0.69171799  0.77190468  1  0  0.271976  0  2.037459  0  0  0.18516  0  2.553389  0  0  0.206092  0  2.509107  0  0.288581  0  0.202697  0.171125  0  2.583157  0
Ag  Ag5  1  0.33108084  0.30827675  0.22809037  1  0  0.271983  0  2.037465  0  0  0.185164  0  2.553404  0  0  0.206095  0  2.50912  0  0.28854  0  0.202678  0.171127  0  2.583173  0
H  H6  1  0.09445886  0.45038108  0.20522524  1  0  0.254644  0  0.963959  0  0  0.233831  0  1.043615  0  0  0.241696  0  1.037282  0  0.450681  0  0.268912  0.228242  0  1.048167  0
H  H7  1  0.90554071  0.54961860  0.79477464  1  0  0.254581  0  0.963978  0  0  0.233771  0  1.043663  0  0  0.241636  0  1.037332  0  0.45069  0  0.268881  0.228182  0  1.048215  0
H  H8  1  0.81162720  0.52753033  0.19241141  1  0  0.050503  0  0.946238  0  0  0.067887  0  1.011928  0  0  0.068164  0  1.011815  0  0.05506  0  0.089084  0.067534  0  1.01214  0
H  H9  1  0.18837082  0.47246771  0.80758615  1  0  0.050548  0  0.946261  0  0  0.067928  0  1.011928  0  0  0.068202  0  1.011814  0  0.055104  0  0.089087  0.067572  0  1.012142  0
H  H10  1  0.94926170  0.55895952  0.13053506  1  0  0.061576  0  0.940652  0  0  0.075165  0  1.009747  0  0  0.076103  0  1.009159  0  0.053619  0  0.097483  0.074372  0  1.010287  0
H  H11  1  0.05073818  0.44104181  0.86946545  1  0  0.061588  0  0.940748  0  0  0.075168  0  1.009816  0  0  0.076105  0  1.009228  0  0.053597  0  0.097487  0.074376  0  1.010354  0
H  H12  1  0.05803946  0.73790233  0.29438304  1  0  0.072118  0  0.95202  0  0  0.085241  0  1.020772  0  0  0.086225  0  1.021456  0  0.04466  0  0.082931  0.084446  0  1.020413  0
H  H13  1  0.94196133  0.26209735  0.70562071  1  0  0.072062  0  0.952033  0  0  0.085204  0  1.020798  0  0  0.086183  0  1.021482  0  0.044662  0  0.082918  0.084403  0  1.020443  0
H  H14  1  0.84578837  0.72300148  0.22065163  1  0  0.071814  0  0.951532  0  0  0.08816  0  1.015549  0  0  0.089048  0  1.015984  0  0.037559  0  0.087246  0.087461  0  1.015322  0
H  H15  1  0.15420997  0.27699820  0.77934946  1  0  0.071784  0  0.95144  0  0  0.088143  0  1.015484  0  0  0.089025  0  1.01592  0  0.037571  0  0.08724  0.087443  0  1.015258  0
H  H16  1  0.78492025  0.66281275  0.36494941  1  0  0.060668  0  0.961357  0  0  0.072739  0  1.038247  0  0  0.073744  0  1.03795  0  0.025726  0  0.074694  0.071882  0  1.038612  0
H  H17  1  0.21508085  0.33718858  0.63505424  1  0  0.060689  0  0.96132  0  0  0.072738  0  1.038202  0  0  0.073749  0  1.037906  0  0.025824  0  0.074685  0.071882  0  1.03857  0
H  H18  1  0.87454682  0.80079941  0.41504201  1  0  0.073869  0  0.977951  0  0  0.087209  0  1.046462  0  0  0.088627  0  1.046564  0  0.076955  0  0.074961  0.086107  0  1.046508  0
H  H19  1  0.12545381  0.19919945  0.58495924  1  0  0.073897  0  0.977864  0  0  0.087224  0  1.04637  0  0  0.088646  0  1.046474  0  0.07691  0  0.074966  0.086123  0  1.046419  0
H  H20  1  0.15214192  0.75177336  0.48680177  1  0  0.05201  0  0.959679  0  0  0.064608  0  1.034505  0  0  0.064823  0  1.034768  0  0.062021  0  0.085312  0.064312  0  1.034455  0
H  H21  1  0.84785765  0.24822632  0.51319884  1  0  0.052033  0  0.959664  0  0  0.064637  0  1.034483  0  0  0.064853  0  1.034746  0  0.061964  0  0.085327  0.064341  0  1.034434  0
H  H22  1  0.01095778  0.72511218  0.54880287  1  0  0.066804  0  0.929719  0  0  0.081564  0  0.996989  0  0  0.082204  0  0.996757  0  0.082767  0  0.099167  0.081018  0  0.997237  0
H  H23  1  0.98904547  0.27488750  0.45119844  1  0  0.066826  0  0.929717  0  0  0.081593  0  0.996986  0  0  0.082233  0  0.996754  0  0.08277  0  0.099173  0.081045  0  0.997236  0
H  H24  1  0.12994955  0.57221973  0.52064402  1  0  0.258851  0  0.954239  0  0  0.239555  0  1.030163  0  0  0.246662  0  1.024998  0  0.478548  0  0.275816  0.234497  0  1.033915  0
H  H25  1  0.87004971  0.42777831  0.47935523  1  0  0.258837  0  0.954205  0  0  0.239543  0  1.03015  0  0  0.246651  0  1.024985  0  0.478621  0  0.275785  0.234485  0  1.033901  0
H  H26  1  0.54904675  0.46010315  0.77302278  1  0  0.259217  0  0.95089  0  0  0.233704  0  1.039073  0  0  0.242009  0  1.031311  0  0.472151  0  0.279802  0.227781  0  1.044618  0
H  H27  1  0.45095144  0.53989571  0.22697655  1  0  0.259131  0  0.950914  0  0  0.233627  0  1.039105  0  0  0.241932  0  1.031343  0  0.472075  0  0.279765  0.227705  0  1.044649  0
H  H28  1  0.67663305  0.50072673  0.95595305  1  0  0.061693  0  0.969112  0  0  0.076245  0  1.035663  0  0  0.077357  0  1.035112  0  0.04109  0  0.095874  0.075321  0  1.036197  0
H  H29  1  0.32336928  0.49927460  0.04404648  1  0  0.061656  0  0.96916  0  0  0.076234  0  1.035726  0  0  0.077346  0  1.035177  0  0.041093  0  0.095875  0.075311  0  1.036259  0
H  H30  1  0.79029786  0.38933952  0.92314998  1  0  0.059282  0  0.943194  0  0  0.071705  0  1.013004  0  0  0.072673  0  1.012576  0  0.061454  0  0.094464  0.070877  0  1.013438  0
H  H31  1  0.20970294  0.61066017  0.07684650  1  0  0.059254  0  0.943147  0  0  0.071702  0  1.012975  0  0  0.072672  0  1.012549  0  0.061469  0  0.094458  0.070874  0  1.01341  0
H  H32  1  0.44949534  0.38265426  0.95215136  1  0  0.066695  0  0.9553  0  0  0.08416  0  1.01829  0  0  0.085171  0  1.018615  0  0.03163  0  0.083692  0.083363  0  1.018152  0
H  H33  1  0.55050684  0.61734625  0.04784858  1  0  0.066668  0  0.955339  0  0  0.084137  0  1.018305  0  0  0.085142  0  1.018625  0  0.031632  0  0.083685  0.083342  0  1.018165  0
H  H34  1  0.63629275  0.35391119  0.02979582  1  0  0.071214  0  0.957754  0  0  0.085874  0  1.025394  0  0  0.087229  0  1.025412  0  0.061701  0  0.080379  0.084812  0  1.025481  0
H  H35  1  0.36370927  0.64608849  0.97020235  1  0  0.07124  0  0.957684  0  0  0.085859  0  1.025348  0  0  0.087206  0  1.025363  0  0.06169  0  0.080367  0.084802  0  1.025432  0
H  H36  1  0.49984369  0.17527214  0.91279705  1  0  0.077201  0  0.932054  0  0  0.098677  0  0.986045  0  0  0.099236  0  0.987043  0  0.024489  0  0.095231  0.098179  0  0.985489  0
H  H37  1  0.50015710  0.82472754  0.08720234  1  0  0.077244  0  0.932054  0  0  0.098709  0  0.986032  0  0  0.099271  0  0.98703  0  0.024466  0  0.095252  0.098212  0  0.985474  0
H  H38  1  0.40090334  0.21237075  0.80071046  1  0  0.074457  0  0.938666  0  0  0.092068  0  0.998976  0  0  0.092712  0  0.999906  0  0.04395  0  0.091093  0.091506  0  0.998479  0
H  H39  1  0.59909899  0.78763058  0.19928907  1  0  0.07445  0  0.938728  0  0  0.092045  0  0.999038  0  0  0.09269  0  0.99997  0  0.043931  0  0.091086  0.091483  0  0.99854  0
H  H40  1  0.77447308  0.20197036  0.87609131  1  0  0.053594  0  0.958863  0  0  0.066938  0  1.02806  0  0  0.068031  0  1.027223  0  0.068161  0  0.085127  0.066019  0  1.02881  0
H  H41  1  0.22552771  0.79802932  0.12390662  1  0  0.05356  0  0.958844  0  0  0.066912  0  1.028062  0  0  0.068005  0  1.027226  0  0.06818  0  0.085115  0.065992  0  1.028812  0
H  H42  1  0.62628909  0.08932035  0.77698865  1  0  0.053824  0  0.982627  0  0  0.063365  0  1.063318  0  0  0.064655  0  1.06206  0  0.076017  0  0.087794  0.062312  0  1.064325  0
H  H43  1  0.37371063  0.91068016  0.22301010  1  0  0.053815  0  0.982604  0  0  0.063379  0  1.063291  0  0  0.064672  0  1.062029  0  0.076007  0  0.087801  0.062325  0  1.064298  0
H  H44  1  0.65700469  0.15253683  0.65409091  1  0  0.253845  0  0.971508  0  0  0.231988  0  1.051574  0  0  0.239982  0  1.044836  0  0.475384  0  0.272526  0.226315  0  1.056405  0
H  H45  1  0.34299397  0.84746450  0.34590864  1  0  0.253833  0  0.971482  0  0  0.231999  0  1.051537  0  0  0.239993  0  1.044799  0  0.475371  0  0.272522  0.226325  0  1.056369  0
H  H46  1  0.07754557  0.11744272  0.07716017  1  0  0.262128  0  0.940116  0  0  0.24448  0  1.013048  0  0  0.25171  0  1.007381  0  0.442879  0  0.281157  0.239344  0  1.017163  0
H  H47  1  0.92245432  0.88255861  0.92284035  1  0  0.262149  0  0.940075  0  0  0.244484  0  1.013036  0  0  0.251713  0  1.00737  0  0.442846  0  0.281149  0.239348  0  1.01715  0
H  H48  1  0.81745204  0.13708607  0.01877703  1  0  0.063617  0  0.934631  0  0  0.081752  0  0.995951  0  0  0.08211  0  0.996204  0  0.078128  0  0.10253  0.081388  0  0.995858  0
H  H49  1  0.18254752  0.86291361  0.98122358  1  0  0.063619  0  0.934613  0  0  0.081753  0  0.995933  0  0  0.082112  0  0.996186  0  0.078121  0  0.102527  0.08139  0  0.99584  0
H  H50  1  0.85891316  0.21112112  0.16188312  1  0  0.056361  0  0.952121  0  0  0.071279  0  1.020958  0  0  0.071733  0  1.021021  0  0.078627  0  0.08539  0.070782  0  1.021101  0
H  H51  1  0.14108487  0.78887691  0.83811590  1  0  0.056376  0  0.95205  0  0  0.071318  0  1.020854  0  0  0.071762  0  1.020928  0  0.078614  0  0.085412  0.07082  0  1.020997  0
H  H52  1  0.59561976  0.08944795  0.07398641  1  0  0.074435  0  0.94096  0  0  0.094045  0  1.00175  0  0  0.094635  0  1.002389  0  0.04058  0  0.091795  0.093548  0  1.001365  0
H  H53  1  0.40438210  0.91055091  0.92601362  1  0  0.074459  0  0.940967  0  0  0.094088  0  1.001729  0  0  0.094679  0  1.002369  0  0.040585  0  0.091832  0.093591  0  1.001344  0
H  H54  1  0.69656974  0.97149617  0.03221173  1  0  0.064919  0  0.944751  0  0  0.079081  0  1.016262  0  0  0.080201  0  1.015998  0  0.027004  0  0.083744  0.078179  0  1.016551  0
H  H55  1  0.30342952  0.02850187  0.96778751  1  0  0.064929  0  0.944772  0  0  0.079094  0  1.016276  0  0  0.080214  0  1.016016  0  0.027002  0  0.083744  0.078191  0  1.016566  0
H  H56  1  0.62912781  0.99777373  0.20483485  1  0  0.07293  0  0.953977  0  0  0.090938  0  1.017668  0  0  0.091164  0  1.01902  0  0.026569  0  0.088096  0.090683  0  1.016826  0
H  H57  1  0.37086930  0.00222595  0.79516456  1  0  0.07291  0  0.953996  0  0  0.09093  0  1.017682  0  0  0.091157  0  1.019032  0  0.026567  0  0.088088  0.090675  0  1.01684  0
H  H58  1  0.75070206  0.12723229  0.27287403  1  0  0.071207  0  0.943732  0  0  0.086687  0  1.01168  0  0  0.087601  0  1.011974  0  0.041321  0  0.082617  0.085925  0  1.011607  0
H  H59  1  0.24929383  0.87276739  0.72712587  1  0  0.071226  0  0.943725  0  0  0.086707  0  1.011677  0  0  0.087621  0  1.011969  0  0.041328  0  0.082609  0.085944  0  1.011604  0
H  H60  1  0.88932411  0.96797120  0.31183247  1  0  0.06682  0  0.955853  0  0  0.080401  0  1.023136  0  0  0.081855  0  1.022299  0  0.054283  0  0.092763  0.079272  0  1.023823  0
H  H61  1  0.11067300  0.03202849  0.68816767  1  0  0.066833  0  0.955856  0  0  0.08043  0  1.023117  0  0  0.081883  0  1.022282  0  0.054189  0  0.092769  0.0793  0  1.023803  0
H  H62  1  0.88056865  0.90948486  0.17111843  1  0  0.05624  0  0.951585  0  0  0.070647  0  1.021763  0  0  0.071388  0  1.021423  0  0.074436  0  0.088335  0.069915  0  1.022197  0
H  H63  1  0.11942847  0.09051482  0.82888244  1  0  0.056235  0  0.951585  0  0  0.07064  0  1.021763  0  0  0.071381  0  1.021423  0  0.074436  0  0.088335  0.069903  0  1.022203  0
H  H64  1  0.13244313  0.05193032  0.34494019  1  0  0.248045  0  0.982386  0  0  0.227485  0  1.062526  0  0  0.235802  0  1.055293  0  0.460635  0  0.264971  0.221582  0  1.067733  0
H  H65  1  0.86755153  0.94806936  0.65505875  1  0  0.248031  0  0.982486  0  0  0.227471  0  1.062623  0  0  0.235789  0  1.055391  0  0.460612  0  0.264961  0.221568  0  1.067831  0
C  C66  1  0.10696327  0.51280975  0.36246336  1  0  0.457478  0  3.804016  0  0  0.407821  0  4.097846  0  0  0.435631  0  4.10586  0  1.055566  0  0.245456  0.389092  0  4.091853  0
C  C67  1  0.89303630  0.48718993  0.63753725  1  0  0.457383  0  3.804137  0  0  0.407782  0  4.097959  0  0  0.435595  0  4.105973  0  1.056093  0  0.245425  0.389053  0  4.091966  0
C  C68  1  0.93361281  0.57094705  0.21005704  1  0  0.066045  0  3.634037  0  0  0.009582  0  3.888346  0  0  0.014914  0  3.899573  0  0.296587  0  -0.065586  0.006175  0  3.880609  0
C  C69  1  0.06638798  0.42905263  0.78994525  1  0  0.065893  0  3.634268  0  0  0.009533  0  3.888513  0  0  0.014869  0  3.899722  0  0.29653  0  -0.065596  0.006125  0  3.880774  0
C  C70  1  0.93760652  0.69253873  0.27566217  1  0  -0.129356  0  3.68864  0  0  -0.166163  0  3.943025  0  0  -0.168179  0  3.957091  0  -0.035915  0  -0.171247  -0.164628  0  3.933317  0
C  C71  1  0.06239321  0.30746178  0.72433802  1  0  -0.129222  0  3.688599  0  0  -0.166132  0  3.943044  0  0  -0.168123  0  3.957089  0  -0.036064  0  -0.171256  -0.164592  0  3.93334  0
C  C72  1  0.89833758  0.71489454  0.38160346  1  0  -0.133675  0  3.694101  0  0  -0.167948  0  3.943543  0  0  -0.170291  0  3.957923  0  -0.049382  0  -0.176258  -0.166131  0  3.933604  0
C  C73  1  0.10166215  0.28510596  0.61839819  1  0  -0.133755  0  3.694136  0  0  -0.167931  0  3.943513  0  0  -0.170299  0  3.957911  0  -0.049439  0  -0.176239  -0.166103  0  3.933548  0
C  C74  1  0.03937397  0.69953022  0.47143916  1  0  0.064611  0  3.632647  0  0  0.006379  0  3.88968  0  0  0.01152  0  3.901144  0  0.269196  0  -0.067049  0.00305  0  3.881809  0
C  C75  1  0.96062559  0.30046946  0.52856144  1  0  0.064556  0  3.632735  0  0  0.006291  0  3.8898  0  0  0.011436  0  3.901272  0  0.269406  0  -0.067069  0.002962  0  3.881934  0
C  C76  1  0.60053835  0.30555523  0.70846770  1  0  0.454833  0  3.803152  0  0  0.408146  0  4.093215  0  0  0.436326  0  4.099843  0  1.01429  0  0.248786  0.389204  0  4.088063  0
C  C77  1  0.39946015  0.69444528  0.29153081  1  0  0.454888  0  3.803042  0  0  0.408226  0  4.09313  0  0  0.436407  0  4.099756  0  1.014333  0  0.248843  0.389284  0  4.087979  0
C  C78  1  0.66379789  0.41184598  0.90899343  1  0  0.050777  0  3.644456  0  0  -0.003595  0  3.896433  0  0  0.000846  0  3.908137  0  0.325811  0  -0.067386  -0.006409  0  3.888367  0
C  C79  1  0.33620428  0.58815453  0.09100433  1  0  0.050963  0  3.644276  0  0  -0.003536  0  3.896393  0  0  0.000885  0  3.908105  0  0.325947  0  -0.067354  -0.00635  0  3.888327  0
C  C80  1  0.56343051  0.34671307  0.94589961  1  0  -0.134339  0  3.678076  0  0  -0.175214  0  3.936556  0  0  -0.177429  0  3.950559  0  -0.066856  0  -0.171373  -0.173523  0  3.926879  0
C  C81  1  0.43657289  0.65328743  0.05409983  1  0  -0.134395  0  3.678091  0  0  -0.175175  0  3.936492  0  0  -0.177348  0  3.950456  0  -0.066929  0  -0.171338  -0.173487  0  3.926816  0
C  C82  1  0.51886931  0.22503990  0.86732124  1  0  -0.128098  0  3.661437  0  0  -0.165064  0  3.917198  0  0  -0.166679  0  3.931017  0  -0.018375  0  -0.163947  -0.163797  0  3.907566  0
C  C83  1  0.48113378  0.77495896  0.13267685  1  0  -0.128212  0  3.661581  0  0  -0.165116  0  3.917246  0  0  -0.166755  0  3.931078  0  -0.018178  0  -0.163998  -0.163851  0  3.907616  0
C  C84  1  0.64938840  0.17969193  0.81432440  1  0  0.055653  0  3.621757  0  0  -0.001353  0  3.877404  0  0  0.003346  0  3.888394  0  0.254294  0  -0.069314  -0.004366  0  3.869935  0
C  C85  1  0.35061378  0.82030857  0.18567409  1  0  0.055744  0  3.621639  0  0  -0.0013  0  3.877335  0  0  0.003399  0  3.888332  0  0.25415  0  -0.069293  -0.00431  0  3.86986  0
C  C86  1  0.11008242  0.08444697  0.21085631  1  0  0.458703  0  3.778184  0  0  0.411862  0  4.070929  0  0  0.44029  0  4.0773  0  1.020723  0  0.246985  0.392809  0  4.065917  0
C  C87  1  0.88991684  0.91555107  0.78914439  1  0  0.458751  0  3.778182  0  0  0.411876  0  4.070957  0  0  0.440303  0  4.077328  0  1.021043  0  0.246994  0.392823  0  4.065945  0
C  C88  1  0.84784373  0.12813946  0.09841295  1  0  0.060401  0  3.637506  0  0  0.004146  0  3.896836  0  0  0.009244  0  3.908042  0  0.241342  0  -0.067128  0.000884  0  3.889117  0
C  C89  1  0.15215477  0.87186104  0.90158701  1  0  0.060379  0  3.637417  0  0  0.004116  0  3.896741  0  0  0.009218  0  3.907949  0  0.241513  0  -0.067157  0.000854  0  3.889021  0
C  C90  1  0.71066974  0.05392824  0.09711444  1  0  -0.135996  0  3.708188  0  0  -0.178359  0  3.968914  0  0  -0.180075  0  3.983084  0  -0.030238  0  -0.17161  -0.176994  0  3.959013  0
C  C91  1  0.28933136  0.94607309  0.90288485  1  0  -0.136024  0  3.70814  0  0  -0.178414  0  3.968905  0  0  -0.180135  0  3.98308  0  -0.030245  0  -0.171628  -0.177048  0  3.959005  0
C  C92  1  0.73764688  0.04500633  0.20810008  1  0  -0.134722  0  3.699022  0  0  -0.174017  0  3.956672  0  0  -0.175885  0  3.97115  0  0.001929  0  -0.172114  -0.172559  0  3.946623  0
C  C93  1  0.26235146  0.95499335  0.79189957  1  0  -0.13471  0  3.699026  0  0  -0.174028  0  3.956692  0  0  -0.175894  0  3.971171  0  0.001939  0  -0.172097  -0.172568  0  3.946641  0
C  C94  1  0.88731283  0.98753387  0.24051456  1  0  0.055788  0  3.627982  0  0  0.00062  0  3.88164  0  0  0.005231  0  3.892639  0  0.26943  0  -0.067664  -0.00231  0  3.874183  0
C  C95  1  0.11268306  0.01246581  0.75948607  1  0  0.055742  0  3.628028  0  0  0.000581  0  3.881666  0  0  0.005191  0  3.892665  0  0.269561  0  -0.067688  -0.002346  0  3.874212  0
S  S96  1  0.20754449  0.40250917  0.38091251  1  0  -0.406897  0  2.464628  0  0  -0.365445  0  2.921193  0  0  -0.3839  0  2.901412  0  -0.227002  0  -0.220044  -0.352691  0  2.934232  0
S  S97  1  0.79245752  0.59749051  0.61908711  1  0  -0.406836  0  2.464731  0  0  -0.365376  0  2.921278  0  0  -0.383831  0  2.901495  0  -0.227071  0  -0.220023  -0.352622  0  2.934316  0
S  S98  1  0.55955725  0.30893778  0.57877618  1  0  -0.38497  0  2.516877  0  0  -0.350029  0  2.987052  0  0  -0.368407  0  2.966737  0  -0.192857  0  -0.212555  -0.337384  0  3.000431  0
S  S99  1  0.44043741  0.69106190  0.42122204  1  0  -0.384986  0  2.516831  0  0  -0.350026  0  2.986992  0  0  -0.368404  0  2.966676  0  -0.192823  0  -0.212547  -0.337379  0  3.000369  0
S  S100  1  0.32158100  0.11624578  0.24685434  1  0  -0.394439  0  2.37949  0  0  -0.352359  0  2.815706  0  0  -0.369834  0  2.79585  0  -0.219137  0  -0.204102  -0.340339  0  2.828784  0
S  S101  1  0.67841581  0.88375226  0.75314516  1  0  -0.394446  0  2.379442  0  0  -0.352354  0  2.815668  0  0  -0.369832  0  2.795817  0  -0.219001  0  -0.20409  -0.340334  0  2.828746  0
I  I102  1  0.33491262  0.62934942  0.73424057  1  0  -0.401474  0  1.457973  0  0  -0.334038  0  1.870263  0  0  -0.353626  0  1.837983  0  -0.410775  0  -0.175638  -0.320274  0  1.892091  0
I  I103  1  0.66508726  0.37065191  0.26576067  1  0  -0.401486  0  1.457988  0  0  -0.334033  0  1.870272  0  0  -0.353622  0  1.837993  0  -0.410724  0  -0.17564  -0.320265  0  1.892093  0
I  I104  1  0.73578717  0.00287134  0.48475952  1  0  -0.457259  0  1.331512  0  0  -0.385528  0  1.715057  0  0  -0.405268  0  1.685317  0  -0.470603  0  -0.191074  -0.371478  0  1.735135  0
I  I105  1  0.26421579  0.99713328  0.51524418  1  0  -0.457263  0  1.331538  0  0  -0.385524  0  1.715071  0  0  -0.405264  0  1.685332  0  -0.470574  0  -0.191071  -0.371475  0  1.735152  0
I  I106  1  0.87476210  0.70316550  0.97938360  1  0  -0.530407  0  1.078312  0  0  -0.470527  0  1.415483  0  0  -0.487833  0  1.388696  0  -0.555783  0  -0.243642  -0.457929  0  1.433649  0
I  I107  1  0.12524576  0.29683912  0.02062103  1  0  -0.530396  0  1.078386  0  0  -0.470515  0  1.415551  0  0  -0.487821  0  1.388762  0  -0.555751  0  -0.243628  -0.457914  0  1.433709  0
N  N108  1  0.06061457  0.51458212  0.26128550  1  0  -0.374829  0  3.333026  0  0  -0.304402  0  3.569896  0  0  -0.3255  0  3.58144  0  -1.214106  0  -0.413975  -0.290222  0  3.56192  0
N  N109  1  0.93938468  0.48541592  0.73871375  1  0  -0.374695  0  3.332995  0  0  -0.304371  0  3.56992  0  0  -0.325471  0  3.581464  0  -1.214559  0  -0.413939  -0.290189  0  3.561943  0
N  N110  1  0.07789915  0.58641345  0.44991702  1  0  -0.386091  0  3.335589  0  0  -0.316278  0  3.577229  0  0  -0.336929  0  3.588643  0  -1.262001  0  -0.418909  -0.302408  0  3.569384  0
N  N111  1  0.92210303  0.41358706  0.55008510  1  0  -0.386  0  3.335515  0  0  -0.316235  0  3.577193  0  0  -0.336888  0  3.588606  0  -1.262082  0  -0.418857  -0.302366  0  3.569349  0
N  N112  1  0.59069131  0.39487969  0.79233095  1  0  -0.380525  0  3.329085  0  0  -0.311153  0  3.567307  0  0  -0.331072  0  3.576918  0  -1.245231  0  -0.417728  -0.297693  0  3.560591  0
N  N113  1  0.40930703  0.60511999  0.20766797  1  0  -0.380497  0  3.328951  0  0  -0.31116  0  3.567294  0  0  -0.331076  0  3.576912  0  -1.245259  0  -0.417743  -0.297701  0  3.560579  0
N  N114  1  0.64643578  0.21351418  0.72299097  1  0  -0.390486  0  3.339321  0  0  -0.321354  0  3.577231  0  0  -0.341264  0  3.586848  0  -1.235867  0  -0.418014  -0.307986  0  3.570571  0
N  N115  1  0.35356410  0.78648714  0.27700809  1  0  -0.3905  0  3.339319  0  0  -0.321427  0  3.577311  0  0  -0.341339  0  3.586929  0  -1.235894  0  -0.418034  -0.308058  0  3.570649  0
N  N116  1  0.01233381  0.09110177  0.11644586  1  0  -0.3946  0  3.292721  0  0  -0.331491  0  3.539438  0  0  -0.351472  0  3.548854  0  -1.190584  0  -0.425255  -0.318078  0  3.532886  0
N  N117  1  0.98766682  0.90889709  0.88355321  1  0  -0.39461  0  3.29278  0  0  -0.331473  0  3.539481  0  0  -0.351449  0  3.548892  0  -1.190702  0  -0.425238  -0.318063  0  3.532934  0
N  N118  1  0.04720685  0.05253455  0.27414365  1  0  -0.372198  0  3.326636  0  0  -0.301562  0  3.562492  0  0  -0.322079  0  3.572589  0  -1.249497  0  -0.415222  -0.287839  0  3.555547  0
N  N119  1  0.95278904  0.94746513  0.72585625  1  0  -0.372239  0  3.326841  0  0  -0.301609  0  3.562715  0  0  -0.322125  0  3.572811  0  -1.249974  0  -0.41526  -0.287884  0  3.555769  0
