# generated using pymatgen
data_Nd2Cu3H24(C4O5)6
_symmetry_space_group_name_H-M   'P 1'
_cell_length_a   14.52664659
_cell_length_b   15.03480763
_cell_length_c   15.03481218
_cell_angle_alpha   120.00030913
_cell_angle_beta   89.99991787
_cell_angle_gamma   90.00013188
_symmetry_Int_Tables_number   1
_chemical_formula_structural   Nd2Cu3H24(C4O5)6
_chemical_formula_sum   'Nd4 Cu6 H48 C48 O60'
_cell_volume   2843.74422932
_cell_formula_units_Z   2
loop_
 _symmetry_equiv_pos_site_id
 _symmetry_equiv_pos_as_xyz
  1  'x, y, z'
loop_
 _atom_site_type_symbol
 _atom_site_label
 _atom_site_symmetry_multiplicity
 _atom_site_fract_x
 _atom_site_fract_y
 _atom_site_fract_z
 _atom_site_occupancy
 _atom_site_pbe_bader_charge
 _atom_site_pbe_bader_spin_density
 _atom_site_pbe_cm5_charge
 _atom_site_pbe_ddec_charge
 _atom_site_pbe_ddec_spin_density
 _atom_site_pbe_ddec_sum_bond_order
 _atom_site_pbe_magmom
Nd  Nd0  1  0.24999979  0.33333331  0.66666682  1  2.249325  -0.000682  1.504285  2.019445  -0.001622  2.18769  -0.001
Nd  Nd1  1  0.25000112  0.66666694  0.33333340  1  2.249339  -0.000682  1.504291  2.019464  -0.001622  2.187698  -0.001
Nd  Nd2  1  0.75000089  0.66666745  0.33333331  1  2.249279  -0.000682  1.504318  2.01949  -0.001622  2.187686  -0.001
Nd  Nd3  1  0.74999887  0.33333344  0.66666711  1  2.249361  -0.000682  1.504286  2.019459  -0.001622  2.187694  -0.001
Cu  Cu4  1  0.99999963  0.00000071  0.50000114  1  1.126101  0.586819  0.733457  0.96091  0.743823  2.044715  0.589
Cu  Cu5  1  0.00000054  0.49999983  0.99999939  1  1.124074  0.586812  0.73342  0.960871  0.743827  2.044841  0.589
Cu  Cu6  1  0.00000022  0.49999968  0.50000034  1  1.12395  0.586782  0.733433  0.960839  0.743825  2.044775  0.589
Cu  Cu7  1  0.49999968  0.49999976  0.00000016  1  1.126103  0.586823  0.733447  0.960876  0.743827  2.044757  0.589
Cu  Cu8  1  0.50000059  0.99999982  0.50000012  1  1.124096  0.586814  0.73346  0.96092  0.743828  2.04475  0.589
Cu  Cu9  1  0.50000000  0.49999981  0.50000064  1  1.123926  0.586778  0.733414  0.96086  0.743824  2.044868  0.589
H  H10  1  0.84595807  0.35698022  0.20452012  1  0.085301  -0.000204  0.11721  0.103724  -0.000288  0.947765  0.0
H  H11  1  0.75344390  0.36831482  0.28886250  1  0.055383  -0.000122  0.110503  0.091597  -0.000152  0.998519  0.0
H  H12  1  0.84595833  0.84754044  0.64302023  1  0.067842  -0.000204  0.117174  0.103665  -0.000288  0.947809  0.0
H  H13  1  0.75344361  0.92054998  0.63168779  1  0.055922  -0.000122  0.110504  0.091593  -0.000152  0.998581  0.0
H  H14  1  0.84595795  0.79547921  0.15245829  1  0.07325  -0.000205  0.117199  0.103701  -0.000288  0.947773  0.0
H  H15  1  0.75344377  0.71113612  0.07944972  1  0.059263  -0.00012  0.110512  0.091625  -0.000152  0.998551  0.0
H  H16  1  0.84595866  0.64301982  0.79547998  1  0.085291  -0.000204  0.117205  0.103712  -0.000288  0.947773  0.0
H  H17  1  0.75344390  0.63168608  0.71113792  1  0.054777  -0.000122  0.110496  0.091564  -0.000152  0.99853  0.0
H  H18  1  0.84595909  0.15245921  0.35698026  1  0.06807  -0.000204  0.117199  0.103694  -0.000288  0.947798  0.0
H  H19  1  0.75344419  0.07945015  0.36831339  1  0.055935  -0.000122  0.110506  0.091592  -0.000152  0.99856  0.0
H  H20  1  0.84595810  0.20452131  0.84753999  1  0.073556  -0.000205  0.11718  0.103699  -0.000288  0.947797  0.0
H  H21  1  0.75344334  0.28886344  0.92054936  1  0.059266  -0.00012  0.110515  0.091625  -0.000152  0.998548  0.0
H  H22  1  0.65404150  0.20451980  0.35698028  1  0.085287  -0.000204  0.117199  0.103711  -0.000288  0.947783  0.0
H  H23  1  0.74655640  0.28886201  0.36831392  1  0.054792  -0.000122  0.110514  0.091613  -0.000152  0.998523  0.0
H  H24  1  0.65404166  0.64301999  0.84754040  1  0.068079  -0.000204  0.117175  0.103675  -0.000288  0.947766  0.0
H  H25  1  0.74655571  0.63168695  0.92054932  1  0.05594  -0.000122  0.110512  0.091606  -0.000152  0.998546  0.0
H  H26  1  0.65404180  0.15245930  0.79547899  1  0.073545  -0.000205  0.117192  0.103698  -0.000288  0.947794  0.0
H  H27  1  0.74655659  0.07945003  0.71113676  1  0.059251  -0.00012  0.110519  0.091625  -0.000152  0.998544  0.0
H  H28  1  0.65404199  0.79547985  0.64301989  1  0.085297  -0.000204  0.117204  0.103695  -0.000288  0.947777  0.0
H  H29  1  0.74655602  0.71113688  0.63168450  1  0.0554  -0.000122  0.110506  0.091584  -0.000152  0.998517  0.0
H  H30  1  0.65404114  0.35698137  0.15246072  1  0.068111  -0.000204  0.117212  0.103731  -0.000288  0.947754  0.0
H  H31  1  0.74655533  0.36831394  0.07945110  1  0.055957  -0.000122  0.110507  0.091605  -0.000152  0.998525  0.0
H  H32  1  0.65404238  0.84754073  0.20452080  1  0.073545  -0.000205  0.117191  0.103698  -0.000288  0.947802  0.0
H  H33  1  0.74655652  0.92054981  0.28886337  1  0.059254  -0.00012  0.110526  0.091646  -0.000152  0.998556  0.0
H  H34  1  0.15404192  0.64301988  0.79547934  1  0.085302  -0.000204  0.117202  0.103705  -0.000288  0.947775  0.0
H  H35  1  0.24655678  0.63168594  0.71113762  1  0.055369  -0.000122  0.110495  0.091571  -0.000152  0.998511  0.0
H  H36  1  0.15404166  0.15245993  0.35698028  1  0.068067  -0.000204  0.117172  0.103669  -0.000288  0.947775  0.0
H  H37  1  0.24655638  0.07944935  0.36831243  1  0.05592  -0.000122  0.110494  0.091585  -0.000152  0.998572  0.0
H  H38  1  0.15404205  0.20452022  0.84754050  1  0.073527  -0.000205  0.117212  0.103716  -0.000288  0.947731  0.0
H  H39  1  0.24655622  0.28886292  0.92054945  1  0.059259  -0.00012  0.110499  0.091592  -0.000152  0.998557  0.0
H  H40  1  0.15404202  0.35697990  0.20451986  1  0.085293  -0.000204  0.117202  0.103704  -0.000288  0.947779  0.0
H  H41  1  0.24655541  0.36831496  0.28886326  1  0.05481  -0.000122  0.110497  0.091579  -0.000152  0.998543  0.0
H  H42  1  0.15404159  0.84754050  0.64301958  1  0.06808  -0.000204  0.117211  0.1037  -0.000288  0.947778  0.0
H  H43  1  0.24655512  0.92055023  0.63168712  1  0.055955  -0.000122  0.110509  0.091586  -0.000152  0.998565  0.0
H  H44  1  0.15404189  0.79547840  0.15245985  1  0.07356  -0.000205  0.117173  0.103681  -0.000288  0.947794  0.0
H  H45  1  0.24655666  0.71113627  0.07945048  1  0.059262  -0.00012  0.11051  0.091603  -0.000152  0.998538  0.0
H  H46  1  0.34595850  0.79547991  0.64301956  1  0.085288  -0.000204  0.117198  0.1037  -0.000288  0.947785  0.0
H  H47  1  0.25344359  0.71113770  0.63168592  1  0.054795  -0.000122  0.110493  0.091571  -0.000152  0.998518  0.0
H  H48  1  0.34595834  0.35698039  0.15246011  1  0.067844  -0.000204  0.117195  0.103694  -0.000288  0.947783  0.0
H  H49  1  0.25344428  0.36831343  0.07945119  1  0.05595  -0.000122  0.110518  0.09161  -0.000152  0.998548  0.0
H  H50  1  0.34595820  0.84754147  0.20452114  1  0.073255  -0.000205  0.117194  0.103711  -0.000288  0.947787  0.0
H  H51  1  0.25344341  0.92054969  0.28886308  1  0.059249  -0.00012  0.110517  0.09163  -0.000152  0.998545  0.0
H  H52  1  0.34595869  0.20451987  0.35697996  1  0.085293  -0.000204  0.117201  0.1037  -0.000288  0.947774  0.0
H  H53  1  0.25344397  0.28886217  0.36831468  1  0.055394  -0.000122  0.110495  0.091559  -0.000152  0.998547  0.0
H  H54  1  0.34595816  0.64302005  0.84754007  1  0.067843  -0.000204  0.117198  0.103708  -0.000288  0.947778  0.0
H  H55  1  0.25344397  0.63168816  0.92055035  1  0.055927  -0.000122  0.110498  0.091582  -0.000152  0.998577  0.0
H  H56  1  0.34595831  0.15245909  0.79547761  1  0.073561  -0.000205  0.117188  0.103698  -0.000288  0.947793  0.0
H  H57  1  0.25344347  0.07945067  0.71113570  1  0.059276  -0.00012  0.110524  0.091635  -0.000152  0.998528  0.0
C  C58  1  0.36018358  0.51736611  0.87620528  1  1.625834  -0.000349  0.222926  0.633698  -0.0008  4.162317  -0.002
C  C59  1  0.69915624  0.41163919  0.14446289  1  0.430463  0.009983  -0.055578  -0.107412  0.007194  3.908736  0.008
C  C60  1  0.36018161  0.35883830  0.48263979  1  1.624575  -0.000351  0.222925  0.633697  -0.0008  4.162284  -0.002
C  C61  1  0.69915560  0.73282410  0.58836069  1  0.411643  0.010002  -0.055561  -0.107316  0.007193  3.908635  0.008
C  C62  1  0.36018259  0.12379595  0.64115924  1  1.620664  -0.000294  0.222905  0.633757  -0.0008  4.162508  -0.002
C  C63  1  0.69915667  0.85553785  0.26717608  1  0.426011  0.009989  -0.055601  -0.107474  0.007195  3.90886  0.008
C  C64  1  0.36018271  0.48263770  0.12379822  1  1.625872  -0.000349  0.222928  0.63375  -0.0008  4.162419  -0.002
C  C65  1  0.69915592  0.58836188  0.85553859  1  0.430508  0.009983  -0.055596  -0.1074  0.007194  3.908822  0.008
C  C66  1  0.36018261  0.64116103  0.51736154  1  1.624579  -0.000351  0.22297  0.633806  -0.0008  4.162372  -0.002
C  C67  1  0.69915587  0.26717535  0.41163841  1  0.411637  0.010002  -0.055593  -0.107429  0.007193  3.908787  0.008
C  C68  1  0.36018370  0.87620606  0.35883940  1  1.620641  -0.000295  0.222956  0.633826  -0.000801  4.162269  -0.002
C  C69  1  0.69915617  0.14446123  0.73282341  1  0.426007  0.009988  -0.0556  -0.107478  0.007194  3.908858  0.008
C  C70  1  0.13981682  0.87620336  0.51736407  1  1.625869  -0.000349  0.222886  0.633686  -0.0008  4.162387  -0.002
C  C71  1  0.80084402  0.14446172  0.41163763  1  0.43049  0.009984  -0.055586  -0.107378  0.007195  3.908796  0.008
C  C72  1  0.13981578  0.48263505  0.35883893  1  1.624608  -0.000352  0.222943  0.633653  -0.0008  4.162364  -0.002
C  C73  1  0.80084362  0.58836163  0.73282450  1  0.411635  0.010006  -0.055571  -0.107342  0.007195  3.908706  0.008
C  C74  1  0.13981890  0.64116053  0.12379879  1  1.62066  -0.000294  0.222904  0.63375  -0.0008  4.162473  -0.002
C  C75  1  0.80084315  0.26717619  0.85553746  1  0.426006  0.009987  -0.055594  -0.107453  0.007193  3.908848  0.008
C  C76  1  0.13981595  0.12379468  0.48263419  1  1.625833  -0.000349  0.222941  0.633769  -0.000801  4.162342  -0.002
C  C77  1  0.80084336  0.85553823  0.58836249  1  0.430755  0.009984  -0.055576  -0.107364  0.007195  3.908796  0.008
C  C78  1  0.13981768  0.51736392  0.64116104  1  1.624571  -0.000352  0.222897  0.633689  -0.0008  4.162374  -0.002
C  C79  1  0.80084376  0.41163937  0.26717590  1  0.411633  0.010005  -0.055591  -0.107416  0.007195  3.908759  0.008
C  C80  1  0.13981732  0.35883950  0.87620147  1  1.620641  -0.000294  0.222974  0.633778  -0.0008  4.162398  -0.002
C  C81  1  0.80084423  0.73282319  0.14446056  1  0.426284  0.009986  -0.055625  -0.107517  0.007193  3.90886  0.008
C  C82  1  0.63981711  0.48263760  0.12379856  1  1.626  -0.000348  0.222918  0.633674  -0.0008  4.162336  -0.002
C  C83  1  0.30084376  0.58836185  0.85553828  1  0.430754  0.009983  -0.055593  -0.107402  0.007194  3.90883  0.008
C  C84  1  0.63981769  0.64116103  0.51736044  1  1.624587  -0.000351  0.222912  0.633706  -0.0008  4.16231  -0.002
C  C85  1  0.30084371  0.26717599  0.41163876  1  0.411633  0.010002  -0.055562  -0.107301  0.007192  3.908662  0.008
C  C86  1  0.63981740  0.87620348  0.35883955  1  1.620666  -0.000295  0.222855  0.63367  -0.0008  4.162543  -0.002
C  C87  1  0.30084401  0.14446197  0.73282233  1  0.425999  0.009989  -0.055625  -0.107501  0.007195  3.908906  0.008
C  C88  1  0.63981659  0.51736573  0.87620456  1  1.62583  -0.000349  0.222903  0.633725  -0.0008  4.162296  -0.002
C  C89  1  0.30084408  0.41163812  0.14446230  1  0.430714  0.009984  -0.055581  -0.107369  0.007195  3.908737  0.008
C  C90  1  0.63981807  0.35883858  0.48263974  1  1.624581  -0.000351  0.222935  0.63378  -0.0008  4.162293  -0.002
C  C91  1  0.30084413  0.73282475  0.58836105  1  0.411644  0.010003  -0.055597  -0.107412  0.007193  3.908793  0.008
C  C92  1  0.63981699  0.12379509  0.64116034  1  1.620614  -0.000294  0.223019  0.63384  -0.000801  4.162218  -0.002
C  C93  1  0.30084382  0.85553915  0.26717709  1  0.42629  0.009988  -0.055618  -0.107526  0.007194  3.908923  0.008
C  C94  1  0.86018317  0.12379769  0.48263711  1  1.625868  -0.000349  0.222912  0.63376  -0.0008  4.162368  -0.002
C  C95  1  0.19915597  0.85553838  0.58836183  1  0.430458  0.009984  -0.055589  -0.107347  0.007195  3.908774  0.008
C  C96  1  0.86018352  0.51736466  0.64116091  1  1.62458  -0.000352  0.222944  0.633705  -0.0008  4.162325  -0.002
C  C97  1  0.19915568  0.41163875  0.26717601  1  0.411613  0.010006  -0.05558  -0.10736  0.007195  3.908721  0.008
C  C98  1  0.86018178  0.35883919  0.87620106  1  1.62067  -0.000295  0.222894  0.633677  -0.0008  4.162413  -0.002
C  C99  1  0.19915685  0.73282314  0.14446276  1  0.426011  0.009986  -0.05562  -0.107465  0.007193  3.90898  0.008
C  C100  1  0.86018335  0.87620504  0.51736565  1  1.625845  -0.000349  0.222898  0.633675  -0.0008  4.162328  -0.002
C  C101  1  0.19915595  0.14446110  0.41163774  1  0.430533  0.009984  -0.055578  -0.107398  0.007195  3.908846  0.008
C  C102  1  0.86018369  0.48263397  0.35883929  1  1.6246  -0.000352  0.222947  0.633681  -0.0008  4.162341  -0.002
C  C103  1  0.19915624  0.58836140  0.73282423  1  0.411626  0.010006  -0.055561  -0.107338  0.007195  3.908676  0.008
C  C104  1  0.86018199  0.64115983  0.12379876  1  1.620626  -0.000294  0.223037  0.633874  -0.000801  4.162247  -0.002
C  C105  1  0.19915645  0.26717519  0.85553796  1  0.426016  0.009988  -0.055587  -0.107392  0.007194  3.908672  0.008
O  O106  1  0.35903114  0.42215808  0.81370787  1  -1.177402  0.001716  -0.367308  -0.623577  0.000193  2.210917  0.002
O  O107  1  0.40705399  0.56561522  0.95852048  1  -1.120624  0.090315  -0.326948  -0.550799  0.057033  2.333585  0.082
O  O108  1  0.35903059  0.39154933  0.57784050  1  -1.167816  0.001713  -0.367312  -0.62353  0.00019  2.211246  0.002
O  O109  1  0.40705555  0.39290588  0.43438513  1  -1.121298  0.090317  -0.32696  -0.550881  0.057041  2.333275  0.082
O  O110  1  0.35903033  0.18629231  0.60844993  1  -1.172672  0.001718  -0.367279  -0.623551  0.000193  2.211087  0.002
O  O111  1  0.40705432  0.04148048  0.60709361  1  -1.121699  0.090263  -0.326941  -0.550841  0.057035  2.333599  0.082
O  O112  1  0.35903179  0.57783992  0.18629213  1  -1.177437  0.001715  -0.36733  -0.623566  0.000192  2.211164  0.002
O  O113  1  0.40705451  0.43438507  0.04147863  1  -1.120565  0.090332  -0.326928  -0.550868  0.057043  2.333511  0.082
O  O114  1  0.35903166  0.60845115  0.42215967  1  -1.167799  0.001715  -0.367349  -0.623625  0.000191  2.211217  0.002
O  O115  1  0.40705502  0.60709403  0.56561436  1  -1.121365  0.09031  -0.326981  -0.55088  0.057038  2.333448  0.082
O  O116  1  0.35903192  0.81370893  0.39154948  1  -1.172522  0.001718  -0.367367  -0.623658  0.000193  2.210931  0.002
O  O117  1  0.40705419  0.95852125  0.39290539  1  -1.121748  0.09026  -0.326911  -0.550824  0.057033  2.333533  0.082
O  O118  1  0.14096850  0.81370717  0.42215883  1  -1.177447  0.001716  -0.367314  -0.623569  0.000193  2.211034  0.002
O  O119  1  0.09294578  0.95852092  0.56561475  1  -1.120593  0.090321  -0.326912  -0.550836  0.057036  2.333562  0.082
O  O120  1  0.14096893  0.57784401  0.39154974  1  -1.167774  0.001718  -0.36735  -0.623577  0.000194  2.210846  0.002
O  O121  1  0.09294528  0.43438683  0.39290527  1  -1.12141  0.090305  -0.326953  -0.550789  0.057035  2.333711  0.082
O  O122  1  0.14096980  0.60845034  0.18629197  1  -1.172688  0.001715  -0.367281  -0.623536  0.000191  2.211165  0.002
O  O123  1  0.09294575  0.60709269  0.04147882  1  -1.121659  0.090268  -0.326928  -0.550853  0.057038  2.333475  0.082
O  O124  1  0.14096832  0.18629114  0.57784048  1  -1.177372  0.001716  -0.367347  -0.623615  0.000193  2.211002  0.002
O  O125  1  0.09294547  0.04147873  0.43438447  1  -1.120675  0.09032  -0.326906  -0.550808  0.057036  2.333524  0.082
O  O126  1  0.14096927  0.42215745  0.60845042  1  -1.167786  0.001718  -0.367297  -0.623542  0.000193  2.210956  0.002
O  O127  1  0.09294666  0.56561349  0.60709461  1  -1.121335  0.090315  -0.326941  -0.550838  0.057041  2.33364  0.082
O  O128  1  0.14096839  0.39154710  0.81370954  1  -1.172572  0.001715  -0.367394  -0.623612  0.000191  2.211243  0.002
O  O129  1  0.09294550  0.39290581  0.95852156  1  -1.121684  0.090268  -0.326916  -0.550859  0.057038  2.333429  0.082
O  O130  1  0.64096885  0.57784153  0.18629341  1  -1.177363  0.001715  -0.367309  -0.623541  0.000192  2.211066  0.002
O  O131  1  0.59294532  0.43438621  0.04148031  1  -1.120787  0.090327  -0.326963  -0.550832  0.05704  2.333467  0.082
O  O132  1  0.64096802  0.60845077  0.42215896  1  -1.167817  0.001714  -0.367314  -0.623559  0.00019  2.211203  0.002
O  O133  1  0.59294376  0.60709383  0.56561471  1  -1.121351  0.090314  -0.326947  -0.550863  0.05704  2.333341  0.082
O  O134  1  0.64096898  0.81370855  0.39154877  1  -1.172577  0.001717  -0.367282  -0.62352  0.000192  2.211161  0.002
O  O135  1  0.59294568  0.95852067  0.39290613  1  -1.121712  0.090271  -0.326906  -0.550831  0.057039  2.333604  0.082
O  O136  1  0.64096820  0.42215798  0.81370820  1  -1.177412  0.001716  -0.367321  -0.623608  0.000193  2.210898  0.002
O  O137  1  0.59294548  0.56561502  0.95852083  1  -1.12065  0.090313  -0.326898  -0.550782  0.057032  2.333555  0.082
O  O138  1  0.64096903  0.39154857  0.57784017  1  -1.167812  0.001714  -0.367343  -0.6236  0.00019  2.211247  0.002
O  O139  1  0.59294429  0.39290607  0.43438510  1  -1.121308  0.090318  -0.326938  -0.550865  0.057043  2.333304  0.082
O  O140  1  0.64096876  0.18629040  0.60845075  1  -1.172541  0.001717  -0.367427  -0.623654  0.000193  2.21095  0.002
O  O141  1  0.59294650  0.04147647  0.60709245  1  -1.121706  0.09027  -0.326912  -0.550843  0.057039  2.333525  0.082
O  O142  1  0.85903081  0.18629188  0.57784035  1  -1.177436  0.001715  -0.36733  -0.623595  0.000192  2.211157  0.002
O  O143  1  0.90705422  0.04147946  0.43438576  1  -1.120569  0.090326  -0.326917  -0.550859  0.057039  2.333467  0.082
O  O144  1  0.85903107  0.42215780  0.60845067  1  -1.167767  0.001718  -0.367343  -0.623597  0.000194  2.210859  0.002
O  O145  1  0.90705402  0.56561422  0.60709590  1  -1.121346  0.090309  -0.326929  -0.550786  0.057037  2.33368  0.082
O  O146  1  0.85903019  0.39154899  0.81370826  1  -1.1727  0.001715  -0.367311  -0.623526  0.000191  2.211152  0.002
O  O147  1  0.90705493  0.39290598  0.95852074  1  -1.121672  0.090269  -0.326939  -0.550848  0.057038  2.333456  0.082
O  O148  1  0.85903098  0.81370857  0.42215936  1  -1.177394  0.001716  -0.367336  -0.623588  0.000193  2.210964  0.002
O  O149  1  0.90705452  0.95852126  0.56561642  1  -1.120636  0.090319  -0.32692  -0.55081  0.057035  2.333554  0.082
O  O150  1  0.85903141  0.57784436  0.39154999  1  -1.167766  0.001719  -0.367373  -0.62363  0.000194  2.21078  0.002
O  O151  1  0.90705334  0.43438728  0.39290551  1  -1.121436  0.090296  -0.326919  -0.550743  0.057029  2.33373  0.082
O  O152  1  0.85903229  0.60845128  0.18628897  1  -1.172572  0.001714  -0.367385  -0.623586  0.00019  2.211216  0.002
O  O153  1  0.90705518  0.60709201  0.04147486  1  -1.121662  0.090279  -0.326982  -0.550931  0.057045  2.333281  0.082
O  O154  1  0.75000005  0.47172332  0.23586130  1  -1.082183  0.004127  -0.269706  -0.248014  0.00226  2.755397  0.003
O  O155  1  0.74999949  0.76413946  0.52827737  1  -1.082156  0.004127  -0.269712  -0.248034  0.00226  2.75532  0.003
O  O156  1  0.75000039  0.76413890  0.23586058  1  -1.081978  0.004117  -0.269689  -0.24795  0.00226  2.755381  0.003
O  O157  1  0.74999972  0.52827757  0.76413912  1  -1.082148  0.004127  -0.26971  -0.248042  0.00226  2.755396  0.003
O  O158  1  0.74999959  0.23586077  0.47172238  1  -1.082144  0.004127  -0.269704  -0.248024  0.00226  2.755385  0.003
O  O159  1  0.75000006  0.23586104  0.76413812  1  -1.082004  0.004117  -0.269707  -0.24797  0.00226  2.75539  0.003
O  O160  1  0.24999995  0.52827811  0.76413949  1  -1.082151  0.004127  -0.269699  -0.248025  0.00226  2.755383  0.003
O  O161  1  0.25000051  0.23586026  0.47172247  1  -1.082139  0.004127  -0.269718  -0.248041  0.00226  2.755344  0.003
O  O162  1  0.25000029  0.23586119  0.76413888  1  -1.081998  0.004117  -0.269714  -0.24801  0.00226  2.755355  0.003
O  O163  1  0.25000027  0.47172281  0.23586139  1  -1.082159  0.004127  -0.269719  -0.248052  0.00226  2.755341  0.003
O  O164  1  0.25000040  0.76413999  0.52827775  1  -1.082148  0.004127  -0.269685  -0.247998  0.00226  2.755444  0.003
O  O165  1  0.24999993  0.76413906  0.23586134  1  -1.081998  0.004117  -0.269679  -0.24794  0.00226  2.755466  0.003
