# generated using pymatgen
data_GaH4C8O5
_symmetry_space_group_name_H-M   'P 1'
_cell_length_a   6.72557481
_cell_length_b   11.35519845
_cell_length_c   11.36344085
_cell_angle_alpha   67.86297175
_cell_angle_beta   72.75244332
_cell_angle_gamma   72.76240495
_symmetry_Int_Tables_number   1
_chemical_formula_structural   GaH4C8O5
_chemical_formula_sum   'Ga2 H8 C16 O10'
_cell_volume   750.80741094
_cell_formula_units_Z   2
loop_
 _symmetry_equiv_pos_site_id
 _symmetry_equiv_pos_as_xyz
  1  'x, y, z'
loop_
 _atom_site_type_symbol
 _atom_site_label
 _atom_site_symmetry_multiplicity
 _atom_site_fract_x
 _atom_site_fract_y
 _atom_site_fract_z
 _atom_site_occupancy
 _atom_site_pbe_bader_charge
 _atom_site_pbe_bader_spin_density
 _atom_site_pbe_cm5_charge
 _atom_site_pbe_ddec_charge
 _atom_site_pbe_ddec_spin_density
 _atom_site_pbe_ddec_sum_bond_order
 _atom_site_pbe_magmom
Ga  Ga0  1  0.49980693  0.49998226  0.50002425  1  1.93793  0  0.561864  1.372746  0  2.945248  0
Ga  Ga1  1  0.00019029  0.49998035  0.50002040  1  1.946261  0  0.561997  1.372031  0  2.9455  0
H  H2  1  0.24164365  0.49185537  0.88650844  1  0.114617  0  0.11191  0.116915  0  1.002549  0
H  H3  1  0.25844180  0.11351407  0.50809897  1  0.117387  0  0.112438  0.117503  0  1.002762  0
H  H4  1  0.11982112  0.50819961  0.11350394  1  0.10916  0  0.111714  0.116179  0  1.003828  0
H  H5  1  0.38010851  0.88644343  0.49184169  1  0.112149  0  0.111919  0.116939  0  1.00258  0
H  H6  1  0.75842408  0.50807078  0.11347873  1  0.114232  0  0.111886  0.116785  0  1.00248  0
H  H7  1  0.74149343  0.88651833  0.49195151  1  0.118209  0  0.112504  0.117585  0  1.002675  0
H  H8  1  0.88024368  0.49173044  0.88647877  1  0.109735  0  0.111728  0.116333  0  1.003876  0
H  H9  1  0.61983417  0.11358995  0.50820710  1  0.112348  0  0.111963  0.116935  0  1.002431  0
C  C10  1  0.35264465  0.49549256  0.93748345  1  -0.053544  0  -0.074577  -0.088944  0  3.954928  0
C  C11  1  0.14740189  0.06254391  0.50447532  1  -0.054845  0  -0.074221  -0.087285  0  3.954341  0
C  C12  1  0.28552665  0.50452094  0.06249601  1  0.017365  0  -0.074371  -0.087652  0  3.953889  0
C  C13  1  0.21445080  0.93747450  0.49549472  1  0.004172  0  -0.075126  -0.088961  0  3.956145  0
C  C14  1  0.64741897  0.50443649  0.06250425  1  -0.05283  0  -0.074499  -0.088628  0  3.954473  0
C  C15  1  0.85254295  0.93748758  0.49556763  1  -0.056736  0  -0.074341  -0.087408  0  3.95426  0
C  C16  1  0.71454064  0.49541103  0.93748995  1  0.015613  0  -0.074459  -0.087942  0  3.953795  0
C  C17  1  0.78549058  0.06255796  0.50454759  1  0.007034  0  -0.075243  -0.089075  0  3.955826  0
C  C18  1  0.56718814  0.49126684  0.87457846  1  -0.057663  0  -0.002942  -0.018155  0  3.938518  0
C  C19  1  0.63858434  0.48507263  0.73842171  1  1.5664  0  0.256317  0.597992  0  4.129235  0
C  C20  1  0.93290261  0.12545016  0.50867269  1  -0.053953  0  -0.003966  -0.020679  0  3.945649  0
C  C21  1  0.86154579  0.26162147  0.51484209  1  1.574525  0  0.256881  0.599076  0  4.134897  0
C  C22  1  0.43286845  0.50868262  0.12540290  1  -0.057763  0  -0.002904  -0.018224  0  3.938849  0
C  C23  1  0.36145090  0.51493822  0.26152039  1  1.566041  0  0.256373  0.598039  0  4.129005  0
C  C24  1  0.06704905  0.87458826  0.49135062  1  -0.053214  0  -0.003752  -0.020694  0  3.946002  0
C  C25  1  0.13841986  0.73845222  0.48512953  1  1.574609  0  0.25658  0.599145  0  4.134109  0
O  O26  1  0.49680614  0.48274433  0.68642190  1  -1.114841  0  -0.227747  -0.498391  0  2.307305  0
O  O27  1  0.00337196  0.31360056  0.51719280  1  -1.118968  0  -0.227978  -0.498403  0  2.31351  0
O  O28  1  0.16521651  0.51725178  0.31340741  1  -1.122759  0  -0.22896  -0.498633  0  2.308398  0
O  O29  1  0.33462743  0.68653472  0.48285117  1  -1.122392  0  -0.229183  -0.499765  0  2.309125  0
O  O30  1  0.50318639  0.51729639  0.31355016  1  -1.114411  0  -0.228051  -0.498853  0  2.307003  0
O  O31  1  0.99663128  0.68644028  0.48276058  1  -1.119102  0  -0.227903  -0.498547  0  2.312951  0
O  O32  1  0.83480079  0.48278023  0.68655995  1  -1.122507  0  -0.228996  -0.498734  0  2.308667  0
O  O33  1  0.66535543  0.31351098  0.51710051  1  -1.122795  0  -0.229043  -0.499444  0  2.309885  0
O  O34  1  0.74997198  0.56503806  0.43498515  1  -0.858432  0  -0.303377  -0.649022  0  1.646981  0
O  O35  1  0.25001479  0.43492151  0.56507794  1  -0.861029  0  -0.304438  -0.650763  0  1.652934  0
