# generated using pymatgen
data_CdH10C10SN2O5
_symmetry_space_group_name_H-M   'P 1'
_cell_length_a   7.04342951
_cell_length_b   11.62475698
_cell_length_c   14.97170000
_cell_angle_alpha   90.00000000
_cell_angle_beta   97.33842705
_cell_angle_gamma   90.00000000
_symmetry_Int_Tables_number   1
_chemical_formula_structural   CdH10C10SN2O5
_chemical_formula_sum   'Cd4 H40 C40 S4 N8 O20'
_cell_volume   1215.81421363
_cell_formula_units_Z   4
loop_
 _symmetry_equiv_pos_site_id
 _symmetry_equiv_pos_as_xyz
  1  'x, y, z'
loop_
 _atom_site_type_symbol
 _atom_site_label
 _atom_site_symmetry_multiplicity
 _atom_site_fract_x
 _atom_site_fract_y
 _atom_site_fract_z
 _atom_site_occupancy
 _atom_site_hle17_bader_spin_density
 _atom_site_hle17_ddec_charge
 _atom_site_hle17_ddec_spin_density
 _atom_site_hle17_ddec_sum_bond_order
 _atom_site_hle17_magmom
 _atom_site_hse06_10hf_bader_spin_density
 _atom_site_hse06_10hf_ddec_charge
 _atom_site_hse06_10hf_ddec_spin_density
 _atom_site_hse06_10hf_ddec_sum_bond_order
 _atom_site_hse06_10hf_magmom
 _atom_site_hse06_bader_spin_density
 _atom_site_hse06_ddec_charge
 _atom_site_hse06_ddec_spin_density
 _atom_site_hse06_ddec_sum_bond_order
 _atom_site_hse06_magmom
 _atom_site_pbe_bader_charge
 _atom_site_pbe_bader_spin_density
 _atom_site_pbe_cm5_charge
 _atom_site_pbe_ddec_charge
 _atom_site_pbe_ddec_spin_density
 _atom_site_pbe_ddec_sum_bond_order
 _atom_site_pbe_magmom
Cd  Cd0  1  0.34638437  0.74025720  0.63636573  1  0  0.993785  0  1.881186  0  0  0.831896  0  2.339806  0  0  0.881883  0  2.295108  0  1.147226  0  0.649425  0.79642  0  2.370109  0
Cd  Cd1  1  0.15361730  0.24025448  0.36363691  1  0  0.993786  0  1.881177  0  0  0.831909  0  2.339772  0  0  0.881896  0  2.295077  0  1.147284  0  0.649434  0.796434  0  2.370074  0
Cd  Cd2  1  0.65361610  0.25974306  0.36363670  1  0  0.993822  0  1.881141  0  0  0.83193  0  2.339745  0  0  0.881918  0  2.295047  0  1.147176  0  0.649446  0.796454  0  2.370048  0
Cd  Cd3  1  0.84638460  0.75974319  0.63636227  1  0  0.993786  0  1.881203  0  0  0.8319  0  2.339807  0  0  0.881887  0  2.295108  0  1.14716  0  0.649432  0.796425  0  2.370109  0
H  H4  1  0.93980495  0.39760401  0.52883715  1  0  0.110265  0  0.937383  0  0  0.121137  0  0.999263  0  0  0.124678  0  0.997806  0  0.099766  0  0.103593  0.118543  0  1.00054  0
H  H5  1  0.56019717  0.89760500  0.47116124  1  0  0.110285  0  0.937407  0  0  0.121149  0  0.999291  0  0  0.124691  0  0.997832  0  0.099826  0  0.103604  0.118555  0  1.000568  0
H  H6  1  0.06019837  0.60239281  0.47116078  1  0  0.11034  0  0.937339  0  0  0.121204  0  0.999219  0  0  0.124748  0  0.997758  0  0.099821  0  0.1036  0.11861  0  1.000497  0
H  H7  1  0.43980186  0.10239526  0.52883710  1  0  0.110247  0  0.93739  0  0  0.121126  0  0.999264  0  0  0.124668  0  0.997808  0  0.099802  0  0.103596  0.118533  0  1.000542  0
H  H8  1  0.20141898  0.13993067  0.77961272  1  0  0.10583  0  0.968613  0  0  0.110439  0  1.040774  0  0  0.112982  0  1.039202  0  0.104441  0  0.10902  0.108575  0  1.042029  0
H  H9  1  0.29857838  0.63992822  0.22038699  1  0  0.105853  0  0.968619  0  0  0.110465  0  1.040769  0  0  0.113001  0  1.039216  0  0.104444  0  0.109022  0.108599  0  1.042027  0
H  H10  1  0.79858005  0.86007045  0.22038762  1  0  0.105843  0  0.968594  0  0  0.110444  0  1.040765  0  0  0.112982  0  1.039214  0  0.104446  0  0.109024  0.108579  0  1.042022  0
H  H11  1  0.70141635  0.36007118  0.77961176  1  0  0.105829  0  0.968611  0  0  0.110444  0  1.040761  0  0  0.112981  0  1.039207  0  0.104451  0  0.109021  0.10858  0  1.042017  0
H  H12  1  0.06724273  0.05569579  0.63173156  1  0  0.121646  0  0.946214  0  0  0.129053  0  1.010764  0  0  0.13362  0  1.007335  0  0.132119  0  0.099781  0.125689  0  1.013509  0
H  H13  1  0.43275178  0.55569592  0.36826932  1  0  0.121604  0  0.946232  0  0  0.129034  0  1.010766  0  0  0.133601  0  1.007337  0  0.132109  0  0.099785  0.125669  0  1.013511  0
H  H14  1  0.93275773  0.94430189  0.36826887  1  0  0.121675  0  0.946245  0  0  0.129051  0  1.010814  0  0  0.133618  0  1.007385  0  0.13217  0  0.099802  0.125689  0  1.01355  0
H  H15  1  0.56723866  0.44430434  0.63173118  1  0  0.121623  0  0.946226  0  0  0.129057  0  1.010753  0  0  0.133625  0  1.007323  0  0.132122  0  0.099792  0.125692  0  1.013499  0
H  H16  1  0.49333236  0.54508064  0.78697672  1  0  0.050413  0  0.951767  0  0  0.057364  0  1.024602  0  0  0.058589  0  1.020834  0  0.117234  0  0.122714  0.056345  0  1.027357  0
H  H17  1  0.00666501  0.04508137  0.21302632  1  0  0.050395  0  0.951775  0  0  0.057349  0  1.024658  0  0  0.058574  0  1.020889  0  0.117199  0  0.122718  0.056333  0  1.02741  0
H  H18  1  0.50666524  0.45491876  0.21302554  1  0  0.050398  0  0.95172  0  0  0.057291  0  1.02462  0  0  0.058517  0  1.020849  0  0.11721  0  0.1227  0.056274  0  1.027374  0
H  H19  1  0.99333545  0.95491975  0.78697277  1  0  0.050386  0  0.951733  0  0  0.057372  0  1.024604  0  0  0.058597  0  1.020835  0  0.1172  0  0.122713  0.056351  0  1.027364  0
H  H20  1  0.58996211  0.44004103  0.90601421  1  0  0.102543  0  0.964441  0  0  0.116478  0  1.037331  0  0  0.11752  0  1.036827  0  0.088695  0  0.104391  0.115594  0  1.037799  0
H  H21  1  0.91004145  0.94004202  0.09398961  1  0  0.10251  0  0.96441  0  0  0.116441  0  1.037291  0  0  0.117482  0  1.036787  0  0.088654  0  0.104386  0.115557  0  1.03776  0
H  H22  1  0.41003835  0.55995923  0.09398889  1  0  0.102531  0  0.964386  0  0  0.116458  0  1.037272  0  0  0.117499  0  1.036768  0  0.088632  0  0.104403  0.115574  0  1.037738  0
H  H23  1  0.08995902  0.05995910  0.90601082  1  0  0.102514  0  0.964411  0  0  0.116442  0  1.037292  0  0  0.117485  0  1.036785  0  0.088654  0  0.104382  0.115557  0  1.037759  0
H  H24  1  0.71775536  0.51108681  0.00130800  1  0  0.108031  0  0.963689  0  0  0.118966  0  1.037773  0  0  0.12103  0  1.035876  0  0.089292  0  0.101138  0.117353  0  1.039195  0
H  H25  1  0.78224820  0.01108582  0.99869382  1  0  0.108017  0  0.963589  0  0  0.11896  0  1.03767  0  0  0.121023  0  1.035774  0  0.089319  0  0.101133  0.117351  0  1.039091  0
H  H26  1  0.28224510  0.48891431  0.99869310  1  0  0.108029  0  0.963582  0  0  0.118967  0  1.037659  0  0  0.121032  0  1.035761  0  0.089305  0  0.101136  0.117354  0  1.039083  0
H  H27  1  0.21775226  0.98891444  0.00130527  1  0  0.10802  0  0.963586  0  0  0.118961  0  1.037665  0  0  0.121023  0  1.03577  0  0.089336  0  0.101136  0.117349  0  1.039087  0
H  H28  1  0.84592795  0.43790335  0.92271981  1  0  0.103982  0  0.938323  0  0  0.121302  0  1.00318  0  0  0.121934  0  1.003325  0  0.065091  0  0.101823  0.120766  0  1.003153  0
H  H29  1  0.65407560  0.93790520  0.07728334  1  0  0.103976  0  0.938341  0  0  0.121312  0  1.003164  0  0  0.121941  0  1.003314  0  0.065516  0  0.101834  0.120776  0  1.003136  0
H  H30  1  0.15407251  0.56209519  0.07728262  1  0  0.104027  0  0.938305  0  0  0.12132  0  1.003177  0  0  0.121948  0  1.003327  0  0.065487  0  0.101837  0.120783  0  1.003148  0
H  H31  1  0.34592486  0.06209678  0.92271775  1  0  0.104017  0  0.938299  0  0  0.121309  0  1.003175  0  0  0.121938  0  1.003324  0  0.065501  0  0.101837  0.120772  0  1.003146  0
H  H32  1  0.00837707  0.65144846  0.88850207  1  0  0.112546  0  0.93191  0  0  0.134518  0  0.990599  0  0  0.134652  0  0.991241  0  0.087703  0  0.10881  0.134302  0  0.990252  0
H  H33  1  0.49162889  0.15145263  0.11149815  1  0  0.112573  0  0.931934  0  0  0.13456  0  0.990585  0  0  0.134692  0  0.991228  0  0.08775  0  0.108792  0.134343  0  0.990236  0
H  H34  1  0.99162482  0.34854836  0.11149777  1  0  0.112535  0  0.931935  0  0  0.134527  0  0.990599  0  0  0.13466  0  0.991242  0  0.087728  0  0.108773  0.134312  0  0.99025  0
H  H35  1  0.50837587  0.84855021  0.88850120  1  0  0.112544  0  0.93197  0  0  0.134538  0  0.990627  0  0  0.134671  0  0.991269  0  0.087721  0  0.108801  0.134321  0  0.990279  0
H  H36  1  0.88110391  0.68829912  0.98133481  1  0  0.106905  0  0.939589  0  0  0.125405  0  1.003472  0  0  0.125813  0  1.00339  0  0.103204  0  0.105802  0.125057  0  1.003546  0
H  H37  1  0.61890107  0.18830157  0.01866509  1  0  0.106907  0  0.939624  0  0  0.125394  0  1.003503  0  0  0.125802  0  1.003422  0  0.103179  0  0.105795  0.125046  0  1.003576  0
H  H38  1  0.11889798  0.31169856  0.01866437  1  0  0.106912  0  0.939578  0  0  0.125413  0  1.003457  0  0  0.125821  0  1.003375  0  0.103179  0  0.105793  0.125066  0  1.003531  0
H  H39  1  0.38110082  0.81170127  0.98133476  1  0  0.106918  0  0.939577  0  0  0.125411  0  1.003468  0  0  0.125819  0  1.003386  0  0.103207  0  0.105807  0.125063  0  1.003542  0
H  H40  1  0.83152575  0.76212690  0.87578011  1  0  0.108178  0  0.950129  0  0  0.127567  0  1.013467  0  0  0.128807  0  1.012639  0  0.09922  0  0.109634  0.126535  0  1.01416  0
H  H41  1  0.66847924  0.26212763  0.12421979  1  0  0.108154  0  0.95016  0  0  0.127537  0  1.013496  0  0  0.128776  0  1.012669  0  0.099181  0  0.109633  0.126505  0  1.014188  0
H  H42  1  0.16847471  0.23787250  0.12421965  1  0  0.10815  0  0.95015  0  0  0.127542  0  1.013488  0  0  0.128781  0  1.01266  0  0.099201  0  0.109625  0.126512  0  1.014179  0
H  H43  1  0.33152552  0.73787435  0.87577957  1  0  0.108192  0  0.950097  0  0  0.127579  0  1.013435  0  0  0.128818  0  1.012607  0  0.099236  0  0.109642  0.126548  0  1.014128  0
C  C44  1  0.99515630  0.22104204  0.57035663  1  0  0.147347  0  3.768271  0  0  0.160125  0  4.017915  0  0  0.169033  0  4.039535  0  -0.193074  0  0.00368  0.153921  0  4.003251  0
C  C45  1  0.50483866  0.72104217  0.42964267  1  0  0.147312  0  3.768339  0  0  0.160085  0  4.017992  0  0  0.168994  0  4.039612  0  -0.193111  0  0.003666  0.15388  0  4.003327  0
C  C46  1  0.00484272  0.77895478  0.42964238  1  0  0.147358  0  3.768281  0  0  0.160099  0  4.018002  0  0  0.169007  0  4.039624  0  -0.193116  0  0.003682  0.153894  0  4.003338  0
C  C47  1  0.49515321  0.27895809  0.57035658  1  0  0.147332  0  3.768319  0  0  0.160106  0  4.018001  0  0  0.169015  0  4.039621  0  -0.193073  0  0.003716  0.153901  0  4.003336  0
C  C48  1  0.99613831  0.34082863  0.58391644  1  0  -0.13605  0  3.696071  0  0  -0.161416  0  3.942554  0  0  -0.167086  0  3.962297  0  0.040678  0  -0.089454  -0.15785  0  3.929681  0
C  C49  1  0.50386382  0.84082876  0.41608262  1  0  -0.136076  0  3.696168  0  0  -0.161437  0  3.942615  0  0  -0.167108  0  3.962359  0  0.040624  0  -0.089469  -0.157871  0  3.929742  0
C  C50  1  0.00386359  0.65916819  0.41608274  1  0  -0.13611  0  3.696143  0  0  -0.161465  0  3.942617  0  0  -0.167136  0  3.96236  0  0.040568  0  -0.089439  -0.157889  0  3.929751  0
C  C51  1  0.49613664  0.15917064  0.58391714  1  0  -0.136049  0  3.696065  0  0  -0.161433  0  3.942559  0  0  -0.167104  0  3.962303  0  0.040647  0  -0.089471  -0.157861  0  3.929693  0
C  C52  1  0.06907933  0.38872383  0.66655073  1  0  -0.041007  0  3.684988  0  0  -0.025462  0  3.923112  0  0  -0.025611  0  3.940819  0  0.014579  0  0.004544  -0.025355  0  3.911426  0
C  C53  1  0.43092377  0.88872223  0.33344865  1  0  -0.04095  0  3.684925  0  0  -0.025392  0  3.922981  0  0  -0.025541  0  3.940691  0  0.014594  0  0.00459  -0.025284  0  3.911292  0
C  C54  1  0.93091827  0.61127557  0.33344819  1  0  -0.040953  0  3.685011  0  0  -0.025427  0  3.923096  0  0  -0.025576  0  3.940804  0  0.014588  0  0.004545  -0.025349  0  3.911447  0
C  C55  1  0.56908099  0.11127630  0.66655070  1  0  -0.040963  0  3.684935  0  0  -0.025416  0  3.923032  0  0  -0.025565  0  3.94074  0  0.014595  0  0.004566  -0.02533  0  3.911372  0
C  C56  1  0.14148114  0.31400484  0.73670955  1  0  0.034443  0  3.708372  0  0  0.016636  0  3.968463  0  0  0.010232  0  3.99266  0  0.208032  0  0.07294  0.020638  0  3.952367  0
C  C57  1  0.35851623  0.81400411  0.26328882  1  0  0.034408  0  3.708458  0  0  0.016646  0  3.968475  0  0  0.010243  0  3.992673  0  0.208061  0  0.072895  0.020649  0  3.952377  0
C  C58  1  0.85851646  0.68599456  0.26328937  1  0  0.034348  0  3.70853  0  0  0.016626  0  3.968505  0  0  0.010225  0  3.992701  0  0.208013  0  0.072895  0.020638  0  3.952414  0
C  C59  1  0.64148137  0.18599701  0.73670943  1  0  0.034388  0  3.70842  0  0  0.016624  0  3.968448  0  0  0.01022  0  3.992646  0  0.208367  0  0.072928  0.020633  0  3.952357  0
C  C60  1  0.14125067  0.19452708  0.72429564  1  0  -0.08628  0  3.752386  0  0  -0.117815  0  4.024398  0  0  -0.11618  0  4.045584  0  0.003642  0  -0.084286  -0.118652  0  4.010089  0
C  C61  1  0.35874956  0.69452549  0.27570625  1  0  -0.08642  0  3.752558  0  0  -0.117984  0  4.024571  0  0  -0.116349  0  4.04575  0  0.003662  0  -0.084307  -0.118822  0  4.010261  0
C  C62  1  0.85874550  0.80547146  0.27570520  1  0  -0.08622  0  3.752346  0  0  -0.117785  0  4.024343  0  0  -0.11614  0  4.04549  0  0.003748  0  -0.084256  -0.118623  0  4.010034  0
C  C63  1  0.64124947  0.30547391  0.72429476  1  0  -0.086317  0  3.752455  0  0  -0.117872  0  4.024487  0  0  -0.116235  0  4.04566  0  0.003624  0  -0.084304  -0.118709  0  4.010178  0
C  C64  1  0.06721696  0.14828697  0.64234270  1  0  -0.089682  0  3.677217  0  0  -0.109246  0  3.932957  0  0  -0.114275  0  3.950596  0  0.049401  0  -0.089285  -0.106114  0  3.921493  0
C  C65  1  0.43278470  0.64828624  0.35765927  1  0  -0.089519  0  3.677377  0  0  -0.109099  0  3.933085  0  0  -0.114127  0  3.950724  0  0.049412  0  -0.089277  -0.105967  0  3.921618  0
C  C66  1  0.93278493  0.85171157  0.35765782  1  0  -0.089757  0  3.677256  0  0  -0.109295  0  3.933014  0  0  -0.114322  0  3.950653  0  0.049403  0  -0.089336  -0.106163  0  3.92155  0
C  C67  1  0.56721433  0.35171316  0.64234174  1  0  -0.089595  0  3.677332  0  0  -0.109201  0  3.933097  0  0  -0.114229  0  3.950735  0  0.049407  0  -0.089304  -0.106069  0  3.921632  0
C  C68  1  0.07881058  0.51854417  0.67241746  1  0  0.68104  0  3.921515  0  0  0.62012  0  4.231261  0  0  0.656573  0  4.220179  0  1.627228  0  0.210569  0.595226  0  4.237927  0
C  C69  1  0.42118965  0.01854318  0.32758176  1  0  0.680981  0  3.921477  0  0  0.620076  0  4.231218  0  0  0.656527  0  4.220138  0  1.627557  0  0.210586  0.595184  0  4.237883  0
C  C70  1  0.92118701  0.48145437  0.32758147  1  0  0.680894  0  3.921766  0  0  0.619961  0  4.231536  0  0  0.656413  0  4.220459  0  1.627227  0  0.210524  0.595076  0  4.238201  0
C  C71  1  0.57881511  0.98145536  0.67241826  1  0  0.680987  0  3.921637  0  0  0.620057  0  4.231396  0  0  0.656511  0  4.22032  0  1.627204  0  0.210564  0.595169  0  4.23806  0
C  C72  1  0.60203957  0.61260033  0.80289136  1  0  0.402968  0  3.766361  0  0  0.325719  0  4.049898  0  0  0.355032  0  4.05006  0  1.362374  0  0.176679  0.306031  0  4.049207  0
C  C73  1  0.89796255  0.11260106  0.19711238  1  0  0.403151  0  3.76599  0  0  0.325744  0  4.049808  0  0  0.355056  0  4.049968  0  1.362382  0  0.176668  0.306057  0  4.049118  0
C  C74  1  0.39795945  0.38739735  0.19711099  1  0  0.403042  0  3.766332  0  0  0.325862  0  4.049818  0  0  0.355175  0  4.049976  0  1.362437  0  0.176694  0.306173  0  4.049128  0
C  C75  1  0.10204221  0.88740178  0.80288964  1  0  0.403161  0  3.765791  0  0  0.325687  0  4.049674  0  0  0.354999  0  4.049839  0  1.362399  0  0.176658  0.305998  0  4.048984  0
C  C76  1  0.71846967  0.49002315  0.92987941  1  0  -0.1838  0  3.643  0  0  -0.280524  0  3.891377  0  0  -0.277824  0  3.901923  0  0.256802  0  -0.136126  -0.281949  0  3.884211  0
C  C77  1  0.78153245  0.99002156  0.07012299  1  0  -0.183738  0  3.642845  0  0  -0.280475  0  3.891269  0  0  -0.27777  0  3.901807  0  0.256414  0  -0.136129  -0.2819  0  3.884089  0
C  C78  1  0.28152936  0.50997797  0.07012227  1  0  -0.183811  0  3.642809  0  0  -0.280496  0  3.891208  0  0  -0.277793  0  3.901748  0  0.256471  0  -0.136152  -0.28192  0  3.884041  0
C  C79  1  0.21846801  0.00997870  0.92987677  1  0  -0.183798  0  3.642856  0  0  -0.280473  0  3.891221  0  0  -0.27777  0  3.901763  0  0.256404  0  -0.136117  -0.281898  0  3.884054  0
C  C80  1  0.87048227  0.67948431  0.90793595  1  0  -0.1681  0  3.620876  0  0  -0.26868  0  3.864386  0  0  -0.264748  0  3.874838  0  0.194483  0  -0.133256  -0.27104  0  3.857162  0
C  C81  1  0.62951985  0.17948762  0.09206311  1  0  -0.168093  0  3.620951  0  0  -0.268637  0  3.864375  0  0  -0.264702  0  3.874821  0  0.194482  0  -0.133225  -0.271004  0  3.857172  0
C  C82  1  0.12951962  0.32051423  0.09206323  1  0  -0.168092  0  3.620948  0  0  -0.268688  0  3.864434  0  0  -0.264756  0  3.874888  0  0.194469  0  -0.133227  -0.271046  0  3.857208  0
C  C83  1  0.37047918  0.82051694  0.90793523  1  0  -0.168149  0  3.620989  0  0  -0.268723  0  3.86445  0  0  -0.264792  0  3.874903  0  0.194484  0  -0.133245  -0.271079  0  3.857219  0
S  S84  1  0.91806207  0.15342944  0.46788875  1  0  -0.414271  0  2.284224  0  0  -0.365892  0  2.664952  0  0  -0.393281  0  2.660465  0  -0.289001  0  -0.168616  -0.34624  0  2.667448  0
S  S85  1  0.58193575  0.65342957  0.53211205  1  0  -0.41421  0  2.284169  0  0  -0.365853  0  2.664948  0  0  -0.393244  0  2.660462  0  -0.288985  0  -0.168582  -0.346201  0  2.667445  0
S  S86  1  0.08193839  0.84656824  0.53211101  1  0  -0.41427  0  2.284277  0  0  -0.365865  0  2.665011  0  0  -0.393256  0  2.660524  0  -0.288979  0  -0.168603  -0.346213  0  2.667507  0
S  S87  1  0.41806041  0.34657069  0.46788879  1  0  -0.414247  0  2.284215  0  0  -0.365881  0  2.664988  0  0  -0.39327  0  2.6605  0  -0.289025  0  -0.168609  -0.346228  0  2.667484  0
N  N88  1  0.21711525  0.35851416  0.82362718  1  0  0.493453  0  3.909845  0  0  0.522179  0  4.212415  0  0  0.544905  0  4.218719  0  0.303533  0  0.043125  0.506924  0  4.208292  0
N  N89  1  0.28288355  0.85851343  0.17637262  1  0  0.493411  0  3.909983  0  0  0.52214  0  4.212526  0  0  0.544865  0  4.218834  0  0.303494  0  0.043086  0.506885  0  4.208401  0
N  N90  1  0.78288091  0.64148610  0.17637299  1  0  0.493383  0  3.909965  0  0  0.522088  0  4.212539  0  0  0.544812  0  4.218846  0  0.303514  0  0.043036  0.506833  0  4.208414  0
N  N91  1  0.71711835  0.14148941  0.82362590  1  0  0.493549  0  3.90989  0  0  0.522279  0  4.212433  0  0  0.545007  0  4.218739  0  0.303346  0  0.043153  0.507024  0  4.208306  0
N  N92  1  0.72198684  0.59587396  0.87791899  1  0  -0.070385  0  3.49328  0  0  0.033263  0  3.725511  0  0  0.012533  0  3.751471  0  -1.210119  0  -0.274124  0.04714  0  3.707478  0
N  N93  1  0.77801529  0.09587383  0.12208274  1  0  -0.070502  0  3.493142  0  0  0.033191  0  3.725387  0  0  0.01246  0  3.751346  0  -1.210027  0  -0.274109  0.047066  0  3.707359  0
N  N94  1  0.27801076  0.40412544  0.12208060  1  0  -0.070465  0  3.493276  0  0  0.033165  0  3.725497  0  0  0.012433  0  3.751457  0  -1.210079  0  -0.274125  0.047042  0  3.707467  0
N  N95  1  0.22198947  0.90412729  0.87791795  1  0  -0.07043  0  3.493281  0  0  0.033298  0  3.725495  0  0  0.012567  0  3.751457  0  -1.210139  0  -0.274109  0.047171  0  3.707467  0
O  O96  1  0.18188489  0.46095587  0.84184921  1  0  -0.393235  0  1.769741  0  0  -0.366446  0  1.980878  0  0  -0.377148  0  1.975532  0  -0.500119  0  -0.138189  -0.359429  0  1.984741  0
O  O97  1  0.31811247  0.96095514  0.15815050  1  0  -0.39324  0  1.769845  0  0  -0.366468  0  1.980989  0  0  -0.37717  0  1.975645  0  -0.500127  0  -0.138209  -0.359455  0  1.984852  0
O  O98  1  0.81810984  0.53904439  0.15815087  1  0  -0.393171  0  1.769807  0  0  -0.366378  0  1.98095  0  0  -0.377081  0  1.975606  0  -0.500095  0  -0.138129  -0.359361  0  1.984811  0
O  O99  1  0.68188656  0.03904770  0.84184851  1  0  -0.393331  0  1.76982  0  0  -0.366562  0  1.980973  0  0  -0.377266  0  1.975627  0  -0.500208  0  -0.138271  -0.359542  0  1.984834  0
O  O100  1  0.31585502  0.29392356  0.87822698  1  0  -0.400518  0  1.733881  0  0  -0.380274  0  1.943269  0  0  -0.390774  0  1.938958  0  -0.511773  0  -0.153143  -0.373227  0  1.946282  0
O  O101  1  0.18414521  0.79392197  0.12177290  1  0  -0.400449  0  1.733814  0  0  -0.380227  0  1.943217  0  0  -0.390718  0  1.938897  0  -0.511778  0  -0.153089  -0.373179  0  1.946233  0
O  O102  1  0.68414401  0.70607756  0.12177270  1  0  -0.400475  0  1.733823  0  0  -0.380238  0  1.943227  0  0  -0.390737  0  1.938915  0  -0.511818  0  -0.153099  -0.373195  0  1.946243  0
O  O103  1  0.81585668  0.20607915  0.87822628  1  0  -0.400503  0  1.733803  0  0  -0.380274  0  1.943213  0  0  -0.390776  0  1.938901  0  -0.511821  0  -0.153104  -0.373229  0  1.946223  0
O  O104  1  0.92221768  0.57073279  0.67494664  1  0  -0.607073  0  2.032816  0  0  -0.54107  0  2.286254  0  0  -0.570451  0  2.276655  0  -1.16166  0  -0.319225  -0.520131  0  2.291911  0
O  O105  1  0.57778158  0.07073180  0.32505291  1  0  -0.607038  0  2.032864  0  0  -0.541045  0  2.286296  0  0  -0.570426  0  2.276699  0  -1.161655  0  -0.319213  -0.520106  0  2.291953  0
O  O106  1  0.07777848  0.42926661  0.32505219  1  0  -0.606993  0  2.032866  0  0  -0.541  0  2.286326  0  0  -0.570382  0  2.27673  0  -1.161685  0  -0.319202  -0.520061  0  2.291977  0
O  O107  1  0.42222175  0.92926760  0.67494769  1  0  -0.607025  0  2.032797  0  0  -0.541024  0  2.286241  0  0  -0.570407  0  2.276645  0  -1.161579  0  -0.31922  -0.520086  0  2.291893  0
O  O108  1  0.24316261  0.56097173  0.66717158  1  0  -0.636222  0  2.073108  0  0  -0.572671  0  2.340787  0  0  -0.603344  0  2.330424  0  -1.158643  0  -0.326211  -0.550819  0  2.346906  0
O  O109  1  0.25683905  0.06096988  0.33283106  1  0  -0.636244  0  2.073114  0  0  -0.572712  0  2.340789  0  0  -0.603398  0  2.330459  0  -1.158939  0  -0.326275  -0.550863  0  2.346911  0
O  O110  1  0.75683499  0.43902767  0.33282801  1  0  -0.636186  0  2.073228  0  0  -0.572614  0  2.340885  0  0  -0.60329  0  2.330533  0  -1.158688  0  -0.3262  -0.550761  0  2.346998  0
O  O111  1  0.74316714  0.93902866  0.66716971  1  0  -0.636219  0  2.073239  0  0  -0.572657  0  2.340911  0  0  -0.603318  0  2.33052  0  -1.158692  0  -0.326216  -0.550804  0  2.347025  0
O  O112  1  0.60423548  0.70038109  0.75320465  1  0  -0.556776  0  2.12213  0  0  -0.482669  0  2.390736  0  0  -0.509092  0  2.380737  0  -1.170349  0  -0.315749  -0.464248  0  2.396957  0
O  O113  1  0.89576235  0.20038010  0.24679682  1  0  -0.556845  0  2.122068  0  0  -0.48267  0  2.39072  0  0  -0.509085  0  2.380717  0  -1.170422  0  -0.315775  -0.464249  0  2.396946  0
O  O114  1  0.39576355  0.29961917  0.24679569  1  0  -0.556777  0  2.122244  0  0  -0.48268  0  2.39079  0  0  -0.509097  0  2.380788  0  -1.170412  0  -0.315735  -0.464259  0  2.397013  0
O  O115  1  0.10423811  0.79961930  0.75320160  1  0  -0.556848  0  2.121824  0  0  -0.482688  0  2.390578  0  0  -0.509111  0  2.380581  0  -1.170358  0  -0.315759  -0.464266  0  2.3968  0
