# generated using pymatgen
data_La2Mg3H30C42(NO5)6
_symmetry_space_group_name_H-M   'P 1'
_cell_length_a   15.22557753
_cell_length_b   15.70406796
_cell_length_c   15.70405634
_cell_angle_alpha   119.99992841
_cell_angle_beta   90.00004519
_cell_angle_gamma   89.99997777
_symmetry_Int_Tables_number   1
_chemical_formula_structural   La2Mg3H30C42(NO5)6
_chemical_formula_sum   'La4 Mg6 H60 C84 N12 O60'
_cell_volume   3251.83672123
_cell_formula_units_Z   2
loop_
 _symmetry_equiv_pos_site_id
 _symmetry_equiv_pos_as_xyz
  1  'x, y, z'
loop_
 _atom_site_type_symbol
 _atom_site_label
 _atom_site_symmetry_multiplicity
 _atom_site_fract_x
 _atom_site_fract_y
 _atom_site_fract_z
 _atom_site_occupancy
 _atom_site_pbe_bader_charge
 _atom_site_pbe_bader_spin_density
 _atom_site_pbe_cm5_charge
 _atom_site_pbe_ddec_charge
 _atom_site_pbe_ddec_spin_density
 _atom_site_pbe_ddec_sum_bond_order
 _atom_site_pbe_magmom
La  La0  1  0.75000000  0.33333265  0.66666794  1  2.237725  0  1.446661  1.667603  0  2.61631  0
La  La1  1  0.74999979  0.66666716  0.33333294  1  2.237728  0  1.446689  1.667591  0  2.616313  0
La  La2  1  0.25000037  0.66666790  0.33333201  1  2.237742  0  1.446633  1.667576  0  2.616325  0
La  La3  1  0.24999992  0.33333138  0.66666648  1  2.237744  0  1.446651  1.667578  0  2.616306  0
Mg  Mg4  1  0.99999961  0.50000028  0.50000017  1  1.67213  0  0.786223  1.352411  0  1.409709  0
Mg  Mg5  1  0.00000020  0.00000035  0.50000004  1  1.672847  0  0.786261  1.352446  0  1.409645  0
Mg  Mg6  1  0.00000031  0.49999962  0.99999956  1  1.67275  0  0.786307  1.352478  0  1.409646  0
Mg  Mg7  1  0.49999953  0.50000027  0.49999998  1  1.672139  0  0.786253  1.35244  0  1.409714  0
Mg  Mg8  1  0.49999973  0.49999962  0.99999975  1  1.672843  0  0.786271  1.352455  0  1.409671  0
Mg  Mg9  1  0.50000028  0.00000036  0.50000023  1  1.672761  0  0.786315  1.352474  0  1.409669  0
H  H10  1  0.94781903  0.36849518  0.53523484  1  0.635918  0  0.296473  0.382752  0  0.953884  0
H  H11  1  0.85028384  0.71692840  0.75963609  1  0.119071  0  0.116118  0.126279  0  0.990915  0
H  H12  1  0.94781911  0.16674112  0.63150697  1  0.635004  0  0.296456  0.382732  0  0.953918  0
H  H13  1  0.85028444  0.04270621  0.28307081  1  0.129837  0  0.116107  0.126267  0  0.990914  0
H  H14  1  0.94781914  0.46476560  0.83325957  1  0.641494  0  0.29647  0.382724  0  0.95394  0
H  H15  1  0.85028401  0.24036455  0.95729457  1  0.119041  0  0.116096  0.126245  0  0.990901  0
H  H16  1  0.94781895  0.63150537  0.46476546  1  0.635896  0  0.296466  0.382732  0  0.953915  0
H  H17  1  0.85028371  0.28307215  0.24036413  1  0.119097  0  0.116127  0.126302  0  0.990901  0
H  H18  1  0.94781887  0.83325980  0.36849296  1  0.635014  0  0.296468  0.382756  0  0.95388  0
H  H19  1  0.85028443  0.95729371  0.71692878  1  0.129834  0  0.116102  0.126267  0  0.990921  0
H  H20  1  0.94781885  0.53523495  0.16674072  1  0.641454  0  0.296476  0.382731  0  0.953925  0
H  H21  1  0.85028354  0.75963426  0.04270612  1  0.119118  0  0.116109  0.126262  0  0.990914  0
H  H22  1  0.55218074  0.53523486  0.36849476  1  0.635895  0  0.296464  0.382726  0  0.953923  0
H  H23  1  0.64971605  0.75963584  0.71692724  1  0.119102  0  0.116121  0.126266  0  0.99092  0
H  H24  1  0.55218064  0.63150680  0.16674045  1  0.635014  0  0.296464  0.382747  0  0.953894  0
H  H25  1  0.64971456  0.28307150  0.04270763  1  0.129847  0  0.116101  0.126248  0  0.990944  0
H  H26  1  0.55218072  0.83325935  0.46476512  1  0.641499  0  0.296457  0.382705  0  0.95396  0
H  H27  1  0.64971647  0.95729442  0.24036483  1  0.119064  0  0.116103  0.126237  0  0.99094  0
H  H28  1  0.55218086  0.46476569  0.63150524  1  0.635919  0  0.296483  0.382761  0  0.953875  0
H  H29  1  0.64971598  0.24036508  0.28307246  1  0.119078  0  0.116115  0.126275  0  0.990911  0
H  H30  1  0.55218030  0.36849311  0.83325891  1  0.635004  0  0.296467  0.382748  0  0.953885  0
H  H31  1  0.64971550  0.71692895  0.95729381  1  0.129826  0  0.116101  0.12624  0  0.990924  0
H  H32  1  0.55218088  0.16674119  0.53523487  1  0.641453  0  0.296464  0.382702  0  0.953969  0
H  H33  1  0.64971621  0.04270576  0.75963560  1  0.119049  0  0.116096  0.126249  0  0.990921  0
H  H34  1  0.05218068  0.63150536  0.46476511  1  0.635895  0  0.296465  0.382732  0  0.953916  0
H  H35  1  0.14971653  0.28307214  0.24036386  1  0.119095  0  0.116125  0.126278  0  0.990924  0
H  H36  1  0.05218060  0.83325943  0.36849298  1  0.635016  0  0.296464  0.382755  0  0.953883  0
H  H37  1  0.14971527  0.95729334  0.71692887  1  0.129835  0  0.116096  0.126261  0  0.990929  0
H  H38  1  0.05218058  0.53523458  0.16674074  1  0.641462  0  0.296477  0.382727  0  0.95393  0
H  H39  1  0.14971570  0.75963499  0.04270512  1  0.119087  0  0.116098  0.126248  0  0.990912  0
H  H40  1  0.05218076  0.36849518  0.53523449  1  0.635915  0  0.296475  0.382749  0  0.95389  0
H  H41  1  0.14971534  0.71692840  0.75963582  1  0.119075  0  0.116103  0.126267  0  0.990917  0
H  H42  1  0.05218084  0.16674075  0.63150699  1  0.634991  0  0.296452  0.382719  0  0.953936  0
H  H43  1  0.14971462  0.04270593  0.28306953  1  0.129805  0  0.116088  0.126242  0  0.990929  0
H  H44  1  0.05218086  0.46476523  0.83325960  1  0.641461  0  0.296459  0.382705  0  0.953968  0
H  H45  1  0.14971683  0.24036455  0.95729430  1  0.11911  0  0.116104  0.126267  0  0.990925  0
H  H46  1  0.44781897  0.46476569  0.63150520  1  0.635917  0  0.296469  0.382727  0  0.953924  0
H  H47  1  0.35028366  0.24036317  0.28307043  1  0.119059  0  0.116109  0.126262  0  0.990923  0
H  H48  1  0.44781907  0.36849374  0.83325951  1  0.635009  0  0.296468  0.382729  0  0.953918  0
H  H49  1  0.35028449  0.71692932  0.95729333  1  0.129836  0  0.116098  0.126259  0  0.99095  0
H  H50  1  0.44781899  0.16674119  0.53523483  1  0.641466  0  0.296472  0.382719  0  0.953943  0
H  H51  1  0.35028455  0.04270512  0.75963485  1  0.119081  0  0.116099  0.126215  0  0.990907  0
H  H52  1  0.44781885  0.53523486  0.36849471  1  0.635913  0  0.296466  0.38273  0  0.953917  0
H  H53  1  0.35028373  0.75963584  0.71692713  1  0.119102  0  0.116117  0.126269  0  0.990928  0
H  H54  1  0.44781941  0.63150680  0.16674041  1  0.635016  0  0.296464  0.382746  0  0.953896  0
H  H55  1  0.35028552  0.28307150  0.04270751  1  0.129856  0  0.116113  0.126249  0  0.990924  0
H  H56  1  0.44781883  0.83325999  0.46476572  1  0.64146  0  0.296465  0.38271  0  0.953953  0
H  H57  1  0.35028416  0.95729606  0.24036562  1  0.119029  0  0.116099  0.126246  0  0.990901  0
H  H58  1  0.75000000  0.81237808  0.90618978  1  0.062884  0  0.101617  0.085793  0  1.003496  0
H  H59  1  0.74999985  0.09381145  0.18762280  1  0.063982  0  0.101614  0.085781  0  1.003511  0
H  H60  1  0.75000014  0.09381063  0.90618904  1  0.065901  0  0.101606  0.085787  0  1.003478  0
H  H61  1  0.74999914  0.18762210  0.09381073  1  0.06289  0  0.101619  0.085804  0  1.00348  0
H  H62  1  0.74999994  0.90618947  0.81237698  1  0.06397  0  0.101615  0.085777  0  1.00352  0
H  H63  1  0.75000031  0.90619029  0.09381073  1  0.06589  0  0.1016  0.085777  0  1.003452  0
H  H64  1  0.25000103  0.18762210  0.09381054  1  0.063967  0  0.101619  0.085803  0  1.003482  0
H  H65  1  0.24999986  0.90619000  0.81237879  1  0.062872  0  0.101616  0.085795  0  1.003463  0
H  H66  1  0.25000023  0.90618955  0.09381128  1  0.065922  0  0.101607  0.085805  0  1.003435  0
H  H67  1  0.24999992  0.81237808  0.90618959  1  0.063946  0  0.101622  0.085814  0  1.003458  0
H  H68  1  0.24999911  0.09381081  0.18762197  1  0.062863  0  0.101606  0.085796  0  1.003482  0
H  H69  1  0.25000072  0.09381026  0.90618922  1  0.065888  0  0.101589  0.085759  0  1.003477  0
C  C70  1  0.80575156  0.68065815  0.78570648  1  -0.109171  0  -0.064499  -0.117149  0  3.918882  0
C  C71  1  0.80343046  0.57800698  0.73631439  1  0.608133  0  0.131912  0.129053  0  3.941688  0
C  C72  1  0.86059018  0.51473524  0.64798476  1  1.590329  0  0.236397  0.576988  0  4.194176  0
C  C73  1  0.80575214  0.10504794  0.31934291  1  -0.01815  0  -0.064477  -0.117125  0  3.918711  0
C  C74  1  0.80342976  0.15830772  0.42199424  1  0.501129  0  0.131879  0.129008  0  3.941493  0
C  C75  1  0.86059019  0.13324415  0.48526453  1  1.618186  0  0.236454  0.577049  0  4.194118  0
C  C76  1  0.80575301  0.21429271  0.89495239  1  -0.014807  0  -0.0645  -0.117114  0  3.918797  0
C  C77  1  0.80342991  0.26368627  0.84169606  1  0.51039  0  0.131924  0.129084  0  3.941614  0
C  C78  1  0.86059030  0.35201891  0.86675942  1  1.599266  0  0.236318  0.576779  0  4.194301  0
C  C79  1  0.80575074  0.31934240  0.21429371  1  -0.10895  0  -0.064545  -0.117245  0  3.918972  0
C  C80  1  0.80342964  0.42199358  0.26368579  1  0.60814  0  0.131898  0.129024  0  3.941648  0
C  C81  1  0.86059006  0.48526568  0.35201510  1  1.590341  0  0.236392  0.576994  0  4.194139  0
C  C82  1  0.80575213  0.89495225  0.68065765  1  -0.017758  0  -0.06451  -0.117199  0  3.918827  0
C  C83  1  0.80342969  0.84169283  0.57800594  1  0.501125  0  0.131916  0.129067  0  3.941554  0
C  C84  1  0.86058939  0.86675640  0.51473570  1  1.618189  0  0.236399  0.577035  0  4.194104  0
C  C85  1  0.80575191  0.78570547  0.10504762  1  -0.014618  0  -0.064493  -0.117127  0  3.918762  0
C  C86  1  0.80342888  0.73631217  0.15830495  1  0.510397  0  0.13196  0.129161  0  3.94154  0
C  C87  1  0.86058928  0.64798044  0.13324329  1  1.59901  0  0.236328  0.576774  0  4.194221  0
C  C88  1  0.69424899  0.78570583  0.68065732  1  -0.109161  0  -0.064536  -0.117175  0  3.918901  0
C  C89  1  0.69657071  0.73631200  0.57800654  1  0.60809  0  0.131928  0.129092  0  3.941617  0
C  C90  1  0.63941096  0.64798093  0.51473623  1  1.590395  0  0.236333  0.576812  0  4.194257  0
C  C91  1  0.69424688  0.31934271  0.10504778  1  -0.018068  0  -0.064482  -0.117113  0  3.918674  0
C  C92  1  0.69656994  0.42199369  0.15830657  1  0.501109  0  0.131901  0.129033  0  3.941566  0
C  C93  1  0.63940953  0.48526416  0.13324392  1  1.618182  0  0.236405  0.576988  0  4.194156  0
C  C94  1  0.69424681  0.89495040  0.21429110  1  -0.014599  0  -0.06451  -0.117097  0  3.918848  0
C  C95  1  0.69656990  0.84169506  0.26368638  1  0.510222  0  0.131944  0.129149  0  3.941419  0
C  C96  1  0.63940954  0.86675841  0.35201907  1  1.599268  0  0.236333  0.576772  0  4.194275  0
C  C97  1  0.69424896  0.21429535  0.31934342  1  -0.109268  0  -0.064533  -0.117229  0  3.918867  0
C  C98  1  0.69656943  0.26368818  0.42199393  1  0.608068  0  0.131929  0.129137  0  3.941597  0
C  C99  1  0.63940970  0.35201915  0.48526556  1  1.590408  0  0.236381  0.576902  0  4.194251  0
C  C100  1  0.69424713  0.68065784  0.89495232  1  -0.017774  0  -0.064487  -0.117063  0  3.918704  0
C  C101  1  0.69656953  0.57800686  0.84169354  1  0.501174  0  0.13193  0.12904  0  3.941528  0
C  C102  1  0.63940982  0.51473639  0.86675614  1  1.618178  0  0.236422  0.577007  0  4.194186  0
C  C103  1  0.69424720  0.10504787  0.78570746  1  -0.014822  0  -0.064513  -0.117181  0  3.918864  0
C  C104  1  0.69657089  0.15830412  0.73631382  1  0.510395  0  0.131993  0.129202  0  3.941534  0
C  C105  1  0.63941112  0.13324278  0.64798163  1  1.599366  0  0.236304  0.576747  0  4.19443  0
C  C106  1  0.19424881  0.31934304  0.21429411  1  -0.108951  0  -0.064544  -0.117217  0  3.918963  0
C  C107  1  0.19656991  0.42199347  0.26368693  1  0.608061  0  0.131933  0.129144  0  3.94159  0
C  C108  1  0.13940954  0.48526511  0.35201794  1  1.590406  0  0.236353  0.576835  0  4.194252  0
C  C109  1  0.19424626  0.89495077  0.68065888  1  -0.017961  0  -0.064495  -0.117157  0  3.918799  0
C  C110  1  0.19656995  0.84169336  0.57800772  1  0.501325  0  0.13194  0.129042  0  3.941575  0
C  C111  1  0.13940953  0.86675566  0.51473615  1  1.618187  0  0.236423  0.577031  0  4.194196  0
C  C112  1  0.19424736  0.78570720  0.10504692  1  -0.014667  0  -0.064496  -0.117111  0  3.918797  0
C  C113  1  0.19657046  0.73631492  0.15830452  1  0.510221  0  0.131929  0.129127  0  3.941521  0
C  C114  1  0.13941007  0.64798191  0.13324154  1  1.599346  0  0.236346  0.576822  0  4.194194  0
C  C115  1  0.19424766  0.68065814  0.78570624  1  -0.10903  0  -0.064479  -0.117125  0  3.918848  0
C  C116  1  0.19656941  0.57800697  0.73631416  1  0.608127  0  0.131902  0.129008  0  3.941657  0
C  C117  1  0.13940965  0.51473423  0.64798421  1  1.590344  0  0.236435  0.577078  0  4.194018  0
C  C118  1  0.19424758  0.10504602  0.31934076  1  -0.017877  0  -0.06447  -0.117118  0  3.918813  0
C  C119  1  0.19657068  0.15830554  0.42199109  1  0.501679  0  0.131961  0.129083  0  3.941584  0
C  C120  1  0.13941097  0.13324261  0.48526198  1  1.618123  0  0.236384  0.576946  0  4.194132  0
C  C121  1  0.19424911  0.21429361  0.89495380  1  -0.014734  0  -0.064528  -0.117224  0  3.91896  0
C  C122  1  0.19657214  0.26368590  0.84169620  1  0.51069  0  0.13197  0.129149  0  3.941514  0
C  C123  1  0.13941174  0.35201927  0.86675877  1  1.599082  0  0.236315  0.576772  0  4.194338  0
C  C124  1  0.30575138  0.21429217  0.31934008  1  -0.10937  0  -0.064501  -0.117155  0  3.918885  0
C  C125  1  0.30343032  0.26368436  0.42198996  1  0.607838  0  0.131935  0.129101  0  3.941595  0
C  C126  1  0.36058940  0.35201633  0.48526191  1  1.590552  0  0.236318  0.576865  0  4.194057  0
C  C127  1  0.30575218  0.68065784  0.89495217  1  -0.017767  0  -0.064505  -0.117181  0  3.918938  0
C  C128  1  0.30342977  0.57800685  0.84169339  1  0.501121  0  0.131916  0.129065  0  3.941599  0
C  C129  1  0.36059084  0.51473575  0.86675539  1  1.618184  0  0.236429  0.577032  0  4.194141  0
C  C130  1  0.30575356  0.10504686  0.78570704  1  -0.014779  0  -0.064445  -0.11697  0  3.91867  0
C  C131  1  0.30342981  0.15830412  0.73631367  1  0.510404  0  0.131926  0.129019  0  3.941603  0
C  C132  1  0.36058951  0.13324214  0.64798088  1  1.599264  0  0.236332  0.576809  0  4.194259  0
C  C133  1  0.30575141  0.78570483  0.68065690  1  -0.109336  0  -0.064531  -0.117227  0  3.918872  0
C  C134  1  0.30342963  0.73631200  0.57800639  1  0.608099  0  0.131963  0.12919  0  3.941528  0
C  C135  1  0.36058936  0.64798093  0.51473613  1  1.590395  0  0.236321  0.576776  0  4.194308  0
C  C136  1  0.30575324  0.31934297  0.10504863  1  -0.018078  0  -0.064528  -0.117157  0  3.918737  0
C  C137  1  0.30342952  0.42199369  0.15830641  1  0.501123  0  0.131915  0.12909  0  3.941421  0
C  C138  1  0.36059055  0.48526452  0.13324345  1  1.618195  0  0.236415  0.576976  0  4.194172  0
C  C139  1  0.30575251  0.89495322  0.21429450  1  -0.01471  0  -0.064456  -0.117048  0  3.918667  0
C  C140  1  0.30342948  0.84169670  0.26368713  1  0.510366  0  0.131924  0.129083  0  3.941553  0
C  C141  1  0.36058925  0.86675841  0.35201896  1  1.599254  0  0.236385  0.57685  0  4.194264  0
C  C142  1  0.75000000  0.73211208  0.86605651  1  -0.029227  0  -0.069011  -0.041303  0  3.998812  0
C  C143  1  0.74999988  0.13394408  0.26788821  1  -0.02889  0  -0.068984  -0.041237  0  3.998671  0
C  C144  1  0.75000012  0.13394299  0.86605662  1  -0.029432  0  -0.068973  -0.041248  0  3.998825  0
C  C145  1  0.74999914  0.26788810  0.13394400  1  -0.029023  0  -0.068993  -0.041263  0  3.998752  0
C  C146  1  0.74999992  0.86605647  0.73211193  1  -0.029311  0  -0.068949  -0.041188  0  3.998851  0
C  C147  1  0.75000099  0.86605592  0.13394262  1  -0.029642  0  -0.068999  -0.041321  0  3.998815  0
C  C148  1  0.25000103  0.26788810  0.13394380  1  -0.029015  0  -0.068972  -0.041237  0  3.998795  0
C  C149  1  0.24999984  0.86605537  0.73211284  1  -0.029113  0  -0.069  -0.041223  0  3.99874  0
C  C150  1  0.25000025  0.86605719  0.13394370  1  -0.029516  0  -0.069026  -0.041376  0  3.998711  0
C  C151  1  0.24999992  0.73211272  0.86605696  1  -0.029244  0  -0.068979  -0.041245  0  3.998838  0
C  C152  1  0.24999914  0.13394217  0.26788611  1  -0.029209  0  -0.068992  -0.041262  0  3.99883  0
C  C153  1  0.25000266  0.13394517  0.86605934  1  -0.029652  0  -0.068989  -0.041266  0  3.998884  0
N  N154  1  0.75000000  0.52888696  0.76444372  1  -1.242495  0  -0.358554  -0.303922  0  3.472496  0
N  N155  1  0.74999994  0.23555852  0.47111439  1  -1.242403  0  -0.358577  -0.303898  0  3.472414  0
N  N156  1  0.75000071  0.23555595  0.76444478  1  -1.246103  0  -0.358547  -0.30393  0  3.472312  0
N  N157  1  0.74999914  0.47111423  0.23555706  1  -1.242463  0  -0.358524  -0.3038  0  3.472443  0
N  N158  1  0.75000051  0.76444166  0.52888612  1  -1.242409  0  -0.358545  -0.30388  0  3.472457  0
N  N159  1  0.74999908  0.76444349  0.23555646  1  -1.246154  0  -0.358573  -0.303962  0  3.4723  0
N  N160  1  0.24999971  0.47111386  0.23555724  1  -1.242403  0  -0.358583  -0.30397  0  3.472365  0
N  N161  1  0.24999912  0.76444230  0.52888656  1  -1.242578  0  -0.358578  -0.303941  0  3.472439  0
N  N162  1  0.24999965  0.76444486  0.23555617  1  -1.2461  0  -0.358539  -0.303913  0  3.472308  0
N  N163  1  0.24999992  0.52888632  0.76444289  1  -1.242428  0  -0.358543  -0.303901  0  3.472478  0
N  N164  1  0.25000051  0.23555634  0.47111129  1  -1.242553  0  -0.358542  -0.303897  0  3.4724  0
N  N165  1  0.25000195  0.23555659  0.76444523  1  -1.24613  0  -0.358567  -0.303891  0  3.47229  0
O  O166  1  0.90489914  0.55664285  0.61209082  1  -1.201893  0  -0.32229  -0.580673  0  2.223692  0
O  O167  1  0.85887399  0.42194980  0.61680245  1  -1.173247  0  -0.360365  -0.593858  0  2.264946  0
O  O168  1  0.90490049  0.05544915  0.44335819  1  -1.202011  0  -0.322314  -0.580705  0  2.223868  0
O  O169  1  0.85887336  0.19485171  0.57805128  1  -1.203132  0  -0.36038  -0.593882  0  2.26496  0
O  O170  1  0.90490063  0.38791051  0.94455807  1  -1.205903  0  -0.322344  -0.580661  0  2.223734  0
O  O171  1  0.85887407  0.38319672  0.80515122  1  -1.178227  0  -0.360268  -0.593699  0  2.264962  0
O  O172  1  0.90489908  0.44335706  0.38790880  1  -1.201884  0  -0.32227  -0.580656  0  2.223669  0
O  O173  1  0.85887386  0.57805112  0.38319741  1  -1.173282  0  -0.360369  -0.593869  0  2.264962  0
O  O174  1  0.90489839  0.94455213  0.55664133  1  -1.202035  0  -0.322293  -0.580688  0  2.223803  0
O  O175  1  0.85887383  0.80514884  0.42194895  1  -1.203141  0  -0.360368  -0.593894  0  2.264904  0
O  O176  1  0.90489956  0.61208767  0.05544202  1  -1.205938  0  -0.322313  -0.580624  0  2.223734  0
O  O177  1  0.85887312  0.61680045  0.19484856  1  -1.177945  0  -0.360299  -0.593736  0  2.264925  0
O  O178  1  0.59510068  0.61208804  0.55664416  1  -1.202031  0  -0.322286  -0.580621  0  2.223749  0
O  O179  1  0.64112581  0.61680163  0.42195152  1  -1.173194  0  -0.360334  -0.593777  0  2.264981  0
O  O180  1  0.59509986  0.44335854  0.05544811  1  -1.202044  0  -0.322296  -0.58069  0  2.223854  0
O  O181  1  0.64112573  0.57805121  0.19485112  1  -1.20313  0  -0.360373  -0.593866  0  2.264926  0
O  O182  1  0.59509923  0.94455725  0.38791165  1  -1.205879  0  -0.322322  -0.58065  0  2.223775  0
O  O183  1  0.64112510  0.80515156  0.38319822  1  -1.178273  0  -0.36031  -0.593732  0  2.264929  0
O  O184  1  0.59510002  0.38791241  0.44335724  1  -1.202008  0  -0.322268  -0.580661  0  2.223783  0
O  O185  1  0.64112592  0.38319946  0.57805055  1  -1.173247  0  -0.360356  -0.593811  0  2.26499  0
O  O186  1  0.59510085  0.55664201  0.94455191  1  -1.20203  0  -0.32231  -0.580689  0  2.223835  0
O  O187  1  0.64112600  0.42194970  0.80514857  1  -1.203111  0  -0.360367  -0.593862  0  2.264945  0
O  O188  1  0.59510016  0.05544329  0.61208837  1  -1.205909  0  -0.322315  -0.58063  0  2.22378  0
O  O189  1  0.64112926  0.19484798  0.61680157  1  -1.178273  0  -0.360328  -0.593743  0  2.265033  0
O  O190  1  0.09509991  0.44335622  0.38791060  1  -1.201988  0  -0.322258  -0.580602  0  2.223702  0
O  O191  1  0.14112506  0.57805002  0.38319823  1  -1.173231  0  -0.360353  -0.5938  0  2.264986  0
O  O192  1  0.09509922  0.94455039  0.55664149  1  -1.20201  0  -0.322316  -0.580702  0  2.223869  0
O  O193  1  0.14112635  0.80514847  0.42194904  1  -1.203122  0  -0.360369  -0.593873  0  2.264943  0
O  O194  1  0.09509974  0.61208967  0.05544225  1  -1.205961  0  -0.322364  -0.580695  0  2.223701  0
O  O195  1  0.14112695  0.61680547  0.19484963  1  -1.178191  0  -0.360262  -0.593702  0  2.264947  0
O  O196  1  0.09510063  0.55664248  0.61209088  1  -1.201882  0  -0.3223  -0.580696  0  2.22367  0
O  O197  1  0.14112585  0.42194879  0.61680191  1  -1.173282  0  -0.360385  -0.593904  0  2.264891  0
O  O198  1  0.09510132  0.05544650  0.44335671  1  -1.20206  0  -0.322333  -0.580695  0  2.223785  0
O  O199  1  0.14112785  0.19485127  0.57804762  1  -1.203042  0  -0.36034  -0.593816  0  2.264913  0
O  O200  1  0.09510146  0.38791151  0.94455803  1  -1.205935  0  -0.322325  -0.580644  0  2.223726  0
O  O201  1  0.14112856  0.38319571  0.80515068  1  -1.178223  0  -0.360309  -0.593736  0  2.265018  0
O  O202  1  0.40489969  0.38791050  0.44335525  1  -1.201992  0  -0.32231  -0.580675  0  2.223585  0
O  O203  1  0.35887324  0.38319527  0.57804698  1  -1.173375  0  -0.360316  -0.593771  0  2.264898  0
O  O204  1  0.40490117  0.55664211  0.94455047  1  -1.202017  0  -0.322337  -0.580729  0  2.223871  0
O  O205  1  0.35887399  0.42194933  0.80514883  1  -1.203119  0  -0.360363  -0.59386  0  2.264904  0
O  O206  1  0.40490048  0.05544175  0.61208602  1  -1.205887  0  -0.322331  -0.58065  0  2.223725  0
O  O207  1  0.35887330  0.19484761  0.61680183  1  -1.178242  0  -0.360294  -0.593728  0  2.264948  0
O  O208  1  0.40489903  0.61208804  0.55664409  1  -1.202032  0  -0.322286  -0.580624  0  2.223784  0
O  O209  1  0.35887379  0.61680162  0.42195141  1  -1.173193  0  -0.360309  -0.593746  0  2.264982  0
O  O210  1  0.40489952  0.44335854  0.05544804  1  -1.20205  0  -0.322272  -0.580649  0  2.223907  0
O  O211  1  0.35887436  0.57805121  0.19485101  1  -1.203147  0  -0.360369  -0.593862  0  2.264939  0
O  O212  1  0.40489955  0.94455889  0.38791249  1  -1.205892  0  -0.322364  -0.580677  0  2.223713  0
O  O213  1  0.35887308  0.80515257  0.38319838  1  -1.178223  0  -0.360307  -0.59375  0  2.265011  0
O  O214  1  0.00000013  0.36341860  0.49491773  1  -1.304681  0  -0.616883  -0.819457  0  1.983421  0
O  O215  1  0.00000023  0.13150077  0.63658284  1  -1.303156  0  -0.616855  -0.819427  0  1.983443  0
O  O216  1  0.00000025  0.50508041  0.86850056  1  -1.315799  0  -0.61687  -0.819423  0  1.983543  0
O  O217  1  0.00000008  0.63658195  0.50508184  1  -1.304642  0  -0.616874  -0.819439  0  1.983458  0
O  O218  1  0.00000014  0.86850041  0.36341775  1  -1.303173  0  -0.616875  -0.819474  0  1.983404  0
O  O219  1  0.00000012  0.49491977  0.13149976  1  -1.315797  0  -0.616879  -0.819429  0  1.983495  0
O  O220  1  0.50000013  0.49491815  0.36341817  1  -1.30466  0  -0.616871  -0.819432  0  1.983461  0
O  O221  1  0.50000001  0.63658201  0.13149978  1  -1.303173  0  -0.616875  -0.819463  0  1.98342  0
O  O222  1  0.50000011  0.86849995  0.50508067  1  -1.315807  0  -0.616862  -0.819398  0  1.98352  0
O  O223  1  0.49999958  0.50508239  0.63658178  1  -1.304684  0  -0.616889  -0.819464  0  1.983442  0
O  O224  1  0.49999970  0.36341753  0.86849990  1  -1.303163  0  -0.616873  -0.819437  0  1.983437  0
O  O225  1  0.50000026  0.13150023  0.49491964  1  -1.315794  0  -0.616876  -0.819408  0  1.983528  0
