# generated using pymatgen
data_ZnH13C18IN4O
_symmetry_space_group_name_H-M   'P 1'
_cell_length_a   8.67125206
_cell_length_b   12.83580908
_cell_length_c   17.24060147
_cell_angle_alpha   90.00001488
_cell_angle_beta   90.00010743
_cell_angle_gamma   89.99997593
_symmetry_Int_Tables_number   1
_chemical_formula_structural   ZnH13C18IN4O
_chemical_formula_sum   'Zn4 H52 C72 I4 N16 O4'
_cell_volume   1918.92266344
_cell_formula_units_Z   4
loop_
 _symmetry_equiv_pos_site_id
 _symmetry_equiv_pos_as_xyz
  1  'x, y, z'
loop_
 _atom_site_type_symbol
 _atom_site_label
 _atom_site_symmetry_multiplicity
 _atom_site_fract_x
 _atom_site_fract_y
 _atom_site_fract_z
 _atom_site_occupancy
 _atom_site_pbe_bader_charge
 _atom_site_pbe_bader_spin_density
 _atom_site_pbe_cm5_charge
 _atom_site_pbe_ddec_charge
 _atom_site_pbe_ddec_spin_density
 _atom_site_pbe_ddec_sum_bond_order
 _atom_site_pbe_magmom
Zn  Zn0  1  0.87179608  0.12503294  0.23992129  1  1.082889  0  0.577165  0.55538  0  2.621234  0
Zn  Zn1  1  0.62820335  0.87496709  0.73992178  1  1.082962  0  0.577136  0.555342  0  2.621285  0
Zn  Zn2  1  0.37179651  0.37496670  0.76007810  1  1.082923  0  0.577131  0.555325  0  2.621311  0
Zn  Zn3  1  0.12820323  0.62503270  0.26007863  1  1.082934  0  0.577156  0.555344  0  2.621295  0
H  H4  1  0.39483927  0.60342122  0.15372110  1  0.111887  0  0.121466  0.100826  0  0.989089  0
H  H5  1  0.10516123  0.39657970  0.65372032  1  0.111886  0  0.121468  0.100834  0  0.989089  0
H  H6  1  0.89483978  0.89658004  0.84627957  1  0.111902  0  0.121462  0.100812  0  0.989038  0
H  H7  1  0.60515890  0.10342002  0.34627940  1  0.111901  0  0.121457  0.100798  0  0.989063  0
H  H8  1  0.23849432  0.42747990  0.33929458  1  0.095798  0  0.115582  0.084712  0  1.022782  0
H  H9  1  0.26150688  0.57251953  0.83929514  1  0.095774  0  0.115568  0.084674  0  1.022808  0
H  H10  1  0.73849318  0.07251979  0.66070526  1  0.095784  0  0.115568  0.084682  0  1.022798  0
H  H11  1  0.76150480  0.92747944  0.16070540  1  0.095809  0  0.115575  0.08469  0  1.022778  0
H  H12  1  0.05652020  0.91083470  0.20973700  1  0.094492  0  0.11191  0.082191  0  1.000427  0
H  H13  1  0.44347935  0.08916546  0.70973706  1  0.094486  0  0.111902  0.082187  0  1.000426  0
H  H14  1  0.55651954  0.58916588  0.79026277  1  0.094489  0  0.111914  0.082195  0  1.000437  0
H  H15  1  0.94347893  0.41083417  0.29026298  1  0.094495  0  0.111916  0.082213  0  1.000422  0
H  H16  1  0.19891469  0.83087165  0.09954021  1  0.123919  0  0.104119  0.12097  0  1.016371  0
H  H17  1  0.30108561  0.16912847  0.59954015  1  0.123914  0  0.104102  0.120936  0  1.016343  0
H  H18  1  0.69891553  0.66912811  0.90045970  1  0.123911  0  0.104123  0.120959  0  1.01639  0
H  H19  1  0.80108680  0.33087119  0.40046034  1  0.123923  0  0.104125  0.120963  0  1.016368  0
H  H20  1  0.22054523  0.93336475  0.97428175  1  0.099459  0  0.093791  0.103948  0  1.024992  0
H  H21  1  0.27945532  0.06663628  0.47428174  1  0.099456  0  0.093785  0.103941  0  1.025003  0
H  H22  1  0.72054518  0.56663578  0.02571818  1  0.099459  0  0.093789  0.103937  0  1.024985  0
H  H23  1  0.77945691  0.43336339  0.52571815  1  0.099459  0  0.093803  0.103958  0  1.024982  0
H  H24  1  0.09268043  0.10766224  0.96590429  1  0.140585  0  0.103714  0.106412  0  1.066716  0
H  H25  1  0.40732009  0.89233801  0.46590456  1  0.140565  0  0.103715  0.106399  0  1.066759  0
H  H26  1  0.59268136  0.39233826  0.03409600  1  0.14058  0  0.103714  0.106397  0  1.066756  0
H  H27  1  0.90731961  0.60766248  0.53409612  1  0.140582  0  0.103708  0.106386  0  1.066747  0
H  H28  1  0.78492642  0.13748574  0.94162182  1  0.068294  0  0.098159  0.097247  0  1.013718  0
H  H29  1  0.71507376  0.86251358  0.44162190  1  0.068241  0  0.098181  0.097281  0  1.013698  0
H  H30  1  0.28492655  0.36251549  0.05837922  1  0.068239  0  0.098179  0.097285  0  1.013641  0
H  H31  1  0.21507359  0.63748540  0.55837859  1  0.068213  0  0.098181  0.097268  0  1.013669  0
H  H32  1  0.77049918  0.24287837  0.82042536  1  0.085494  0  0.092229  0.090269  0  1.026433  0
H  H33  1  0.72950055  0.75712090  0.32042485  1  0.085504  0  0.092229  0.090273  0  1.02643  0
H  H34  1  0.27049868  0.25712208  0.17957567  1  0.085561  0  0.092222  0.090269  0  1.026427  0
H  H35  1  0.22950077  0.74287807  0.67957566  1  0.085563  0  0.092225  0.090266  0  1.026439  0
H  H36  1  0.88897221  0.41806871  0.81570286  1  0.074527  0  0.091444  0.086933  0  1.045115  0
H  H37  1  0.61102866  0.58192978  0.31570453  1  0.074515  0  0.091442  0.086929  0  1.045095  0
H  H38  1  0.38897183  0.08193092  0.18429655  1  0.074508  0  0.09142  0.086875  0  1.045095  0
H  H39  1  0.11102879  0.91806845  0.68429703  1  0.074506  0  0.09144  0.086913  0  1.045124  0
H  H40  1  0.00992634  0.49335979  0.93473832  1  0.063018  0  0.095625  0.0906  0  1.015414  0
H  H41  1  0.49007521  0.50663967  0.43474033  1  0.063325  0  0.095604  0.090598  0  1.015437  0
H  H42  1  0.50992417  0.00664151  0.06526131  1  0.063016  0  0.095621  0.090614  0  1.01545  0
H  H43  1  0.99007576  0.99336001  0.56526101  1  0.063025  0  0.095625  0.090608  0  1.015409  0
H  H44  1  0.00899869  0.39331608  0.05764130  1  0.101063  0  0.096841  0.097605  0  1.019932  0
H  H45  1  0.49100146  0.60668403  0.55764209  1  0.100996  0  0.096856  0.097666  0  1.019986  0
H  H46  1  0.50899858  0.10668522  0.94235948  1  0.101088  0  0.096802  0.097549  0  1.019965  0
H  H47  1  0.99100161  0.89331643  0.44235867  1  0.101064  0  0.096825  0.097596  0  1.019953  0
H  H48  1  0.46270879  0.30568855  0.32953283  1  0.092491  0  0.113462  0.125538  0  0.991987  0
H  H49  1  0.03729237  0.69431087  0.82953379  1  0.092484  0  0.113477  0.12552  0  0.991989  0
H  H50  1  0.96270876  0.19431184  0.67046664  1  0.092476  0  0.113454  0.125524  0  0.992001  0
H  H51  1  0.53729041  0.80568816  0.17046712  1  0.092473  0  0.113458  0.125528  0  0.991971  0
H  H52  1  0.62791173  0.48867657  0.13765157  1  0.119613  0  0.104387  0.116072  0  1.049058  0
H  H53  1  0.87208847  0.51132342  0.63765107  1  0.119598  0  0.10437  0.116046  0  1.049111  0
H  H54  1  0.12791162  0.01132392  0.86234875  1  0.119603  0  0.10439  0.116059  0  1.049116  0
H  H55  1  0.37208850  0.98867551  0.36234900  1  0.119597  0  0.104384  0.116057  0  1.049126  0
C  C56  1  0.41369247  0.53557198  0.19044952  1  0.43679  0  0.047662  0.087291  0  3.916263  0
C  C57  1  0.08630933  0.46442817  0.69044990  1  0.436803  0  0.047668  0.087286  0  3.916265  0
C  C58  1  0.91369164  0.96442928  0.80955001  1  0.4368  0  0.047642  0.087285  0  3.916308  0
C  C59  1  0.58630805  0.03557077  0.30955039  1  0.4368  0  0.047629  0.087277  0  3.916283  0
C  C60  1  0.32646999  0.43822559  0.29496960  1  0.473109  0  0.046127  0.08193  0  3.949842  0
C  C61  1  0.17353219  0.56177460  0.79497008  1  0.473105  0  0.046161  0.082034  0  3.949684  0
C  C62  1  0.82646787  0.06177484  0.70503032  1  0.473094  0  0.046162  0.08203  0  3.949692  0
C  C63  1  0.67353028  0.93822440  0.20503038  1  0.4731  0  0.04617  0.082007  0  3.949662  0
C  C64  1  0.68518395  0.30813245  0.22105007  1  1.295891  0  0.214201  0.400009  0  4.14719  0
C  C65  1  0.81481772  0.69186758  0.72105012  1  1.295855  0  0.214215  0.399951  0  4.147286  0
C  C66  1  0.18518342  0.19186803  0.77894973  1  1.295895  0  0.214238  0.400027  0  4.147252  0
C  C67  1  0.31481178  0.80813371  0.27894931  1  1.295788  0  0.2142  0.399997  0  4.147397  0
C  C68  1  0.91004052  0.19569148  0.07915372  1  0.62313  0  0.137837  0.109835  0  3.918446  0
C  C69  1  0.58996177  0.80430849  0.57915416  1  0.623157  0  0.137853  0.109817  0  3.918412  0
C  C70  1  0.41003814  0.30430971  0.92084629  1  0.623137  0  0.137852  0.109864  0  3.918435  0
C  C71  1  0.08995990  0.69569131  0.42084622  1  0.623115  0  0.137827  0.10987  0  3.918404  0
C  C72  1  0.99627609  0.09669265  0.08116934  1  0.401991  0  0.114728  0.16206  0  3.989518  0
C  C73  1  0.50372506  0.90330733  0.58116914  1  0.402058  0  0.114711  0.162043  0  3.989473  0
C  C74  1  0.49627363  0.40330852  0.91883133  1  0.402051  0  0.114682  0.161942  0  3.989658  0
C  C75  1  0.00372439  0.59669249  0.41883058  1  0.402035  0  0.114694  0.161949  0  3.98963  0
C  C76  1  0.06387543  0.95047692  0.15385380  1  0.494448  0  0.048986  0.10129  0  3.960994  0
C  C77  1  0.43612507  0.04952245  0.65385327  1  0.49446  0  0.048972  0.101257  0  3.960993  0
C  C78  1  0.56387384  0.54952289  0.84614655  1  0.494449  0  0.048986  0.101283  0  3.961001  0
C  C79  1  0.93612483  0.45047718  0.34614676  1  0.494432  0  0.048984  0.101266  0  3.961019  0
C  C80  1  0.14403676  0.90641189  0.09188210  1  -0.029669  0  -0.084519  -0.127365  0  3.953109  0
C  C81  1  0.35596351  0.09358745  0.59188208  1  -0.029678  0  -0.0845  -0.127318  0  3.953091  0
C  C82  1  0.64403653  0.59358789  0.90811775  1  -0.029674  0  -0.084517  -0.127365  0  3.953157  0
C  C83  1  0.85596583  0.40641220  0.40811788  1  -0.029681  0  -0.08452  -0.127364  0  3.95319  0
C  C84  1  0.15321637  0.96306043  0.02304577  1  -0.072651  0  -0.066709  -0.015038  0  3.941239  0
C  C85  1  0.34678479  0.03694045  0.52304572  1  -0.072638  0  -0.066722  -0.015077  0  3.941275  0
C  C86  1  0.65321528  0.53694013  0.97695410  1  -0.072635  0  -0.066693  -0.014998  0  3.941172  0
C  C87  1  0.84678619  0.46305998  0.47695422  1  -0.072632  0  -0.066694  -0.01502  0  3.941234  0
C  C88  1  0.08038633  0.05961992  0.01760268  1  0.025018  0  -0.078072  -0.147831  0  3.925786  0
C  C89  1  0.41961482  0.94037940  0.51760288  1  0.024979  0  -0.078024  -0.147755  0  3.925744  0
C  C90  1  0.58038501  0.44037981  0.98239760  1  0.024949  0  -0.078039  -0.147775  0  3.925761  0
C  C91  1  0.91961533  0.55962031  0.48239723  1  0.024963  0  -0.078046  -0.147757  0  3.925787  0
C  C92  1  0.90102783  0.25756213  0.00703327  1  -0.006235  0  -0.007502  0.049947  0  3.995691  0
C  C93  1  0.59897419  0.74243703  0.50703313  1  -0.006261  0  -0.007464  0.050054  0  3.99562  0
C  C94  1  0.40102576  0.24243828  0.99296731  1  -0.006231  0  -0.007467  0.050009  0  3.995734  0
C  C95  1  0.09897486  0.75756042  0.49296610  1  -0.00622  0  -0.007487  0.049992  0  3.99561  0
C  C96  1  0.83386858  0.21566857  0.93991310  1  -0.102431  0  -0.088346  -0.1212  0  3.966729  0
C  C97  1  0.66613160  0.78432997  0.43991312  1  -0.10236  0  -0.088364  -0.121248  0  3.966718  0
C  C98  1  0.33386646  0.28433186  0.06008742  1  -0.102421  0  -0.088365  -0.121251  0  3.966735  0
C  C99  1  0.16613254  0.71566902  0.56008734  1  -0.102376  0  -0.088359  -0.121249  0  3.966788  0
C  C100  1  0.82731229  0.27418220  0.87179715  1  -0.063278  0  -0.096474  -0.077765  0  4.007964  0
C  C101  1  0.67268764  0.72581709  0.37179716  1  -0.063267  0  -0.096463  -0.077772  0  4.007968  0
C  C102  1  0.32731046  0.22581823  0.12820278  1  -0.063346  0  -0.096455  -0.077765  0  4.008149  0
C  C103  1  0.17268995  0.77418112  0.62820272  1  -0.063337  0  -0.096449  -0.077729  0  4.008085  0
C  C104  1  0.89370751  0.37312804  0.86922245  1  -0.001839  0  -0.093583  -0.070812  0  3.978077  0
C  C105  1  0.60629241  0.62687125  0.36922296  1  -0.001829  0  -0.09359  -0.070795  0  3.978048  0
C  C106  1  0.39370575  0.12687315  0.13077812  1  -0.001875  0  -0.093617  -0.070779  0  3.978154  0
C  C107  1  0.10629351  0.87312776  0.63077801  1  -0.001824  0  -0.093607  -0.070819  0  3.978104  0
C  C108  1  0.96126188  0.41507242  0.93587504  1  -0.065796  0  -0.095604  -0.081417  0  4.01749  0
C  C109  1  0.53874059  0.58492612  0.43587548  1  -0.066101  0  -0.095567  -0.081408  0  4.017354  0
C  C110  1  0.46125989  0.08492720  0.06412560  1  -0.065764  0  -0.09558  -0.081448  0  4.017415  0
C  C111  1  0.03874027  0.91507135  0.56412312  1  -0.065776  0  -0.095588  -0.08139  0  4.017474  0
C  C112  1  0.96205589  0.35876961  0.00491911  1  -0.054484  0  -0.085003  -0.111399  0  3.96078  0
C  C113  1  0.53794497  0.64123033  0.50492064  1  -0.054434  0  -0.085044  -0.111517  0  3.960763  0
C  C114  1  0.46205504  0.14123156  0.99508094  1  -0.05447  0  -0.084992  -0.111364  0  3.960766  0
C  C115  1  0.03794673  0.85877103  0.49508086  1  -0.054494  0  -0.085017  -0.111456  0  3.9608  0
C  C116  1  0.56024466  0.38618909  0.23093308  1  -0.062628  0  0.017165  0.052748  0  3.948372  0
C  C117  1  0.93975704  0.61381093  0.73093382  1  -0.062578  0  0.017105  0.052745  0  3.948426  0
C  C118  1  0.06024299  0.11381064  0.76906660  1  -0.062594  0  0.017142  0.05276  0  3.948415  0
C  C119  1  0.43975333  0.88618877  0.26906573  1  -0.062595  0  0.017136  0.052675  0  3.948533  0
C  C120  1  0.45132049  0.37108139  0.28974942  1  0.031894  0  -0.073339  -0.143958  0  3.938337  0
C  C121  1  0.04868052  0.62891880  0.78974979  1  0.031892  0  -0.073289  -0.143887  0  3.938407  0
C  C122  1  0.95131950  0.12891901  0.71025004  1  0.031892  0  -0.073312  -0.143951  0  3.938451  0
C  C123  1  0.54867867  0.87108100  0.21025055  1  0.031883  0  -0.073329  -0.14391  0  3.938354  0
C  C124  1  0.54164746  0.47179647  0.18152239  1  0.025472  0  -0.074759  -0.14934  0  3.94916  0
C  C125  1  0.95835291  0.52820354  0.68152197  1  0.025496  0  -0.074717  -0.149298  0  3.949053  0
C  C126  1  0.04164718  0.02820405  0.81847785  1  0.025465  0  -0.074717  -0.149294  0  3.94923  0
C  C127  1  0.45835163  0.97179615  0.31847760  1  0.025466  0  -0.074682  -0.149235  0  3.949218  0
I  I128  1  0.07654780  0.14039868  0.34739744  1  -0.546349  0  -0.276618  -0.464062  0  1.196322  0
I  I129  1  0.42345343  0.85960075  0.84739705  1  -0.546353  0  -0.276603  -0.464038  0  1.196346  0
I  I130  1  0.57654645  0.35960105  0.65260283  1  -0.546351  0  -0.276607  -0.464042  0  1.196355  0
I  I131  1  0.92345266  0.64039895  0.15260306  1  -0.546354  0  -0.276615  -0.464056  0  1.196359  0
N  N132  1  0.74864640  0.30489772  0.14948879  1  -0.656317  0  -0.240625  -0.315118  0  3.20985  0
N  N133  1  0.75135501  0.69510227  0.64948994  1  -0.656287  0  -0.240628  -0.315098  0  3.209903  0
N  N134  1  0.24864613  0.19510195  0.85051049  1  -0.65631  0  -0.240635  -0.31514  0  3.209913  0
N  N135  1  0.25135280  0.80489825  0.35051059  1  -0.656309  0  -0.240673  -0.315203  0  3.209956  0
N  N136  1  0.30630093  0.51879005  0.24585125  1  -1.262304  0  -0.327842  -0.198427  0  3.558379  0
N  N137  1  0.19370107  0.48121090  0.74585057  1  -1.262327  0  -0.327895  -0.198538  0  3.558348  0
N  N138  1  0.80629989  0.98121124  0.75414934  1  -1.262323  0  -0.327895  -0.198538  0  3.558285  0
N  N139  1  0.69369960  0.01878879  0.25414923  1  -1.26225  0  -0.327888  -0.198517  0  3.558292  0
N  N140  1  0.84379761  0.22186671  0.14443854  1  -0.827275  0  -0.223512  -0.112309  0  3.671087  0
N  N141  1  0.65620262  0.77813328  0.64443904  1  -0.827289  0  -0.223512  -0.11231  0  3.671068  0
N  N142  1  0.34379615  0.27813372  0.85556141  1  -0.827262  0  -0.223506  -0.112284  0  3.671057  0
N  N143  1  0.15620164  0.72186649  0.35556083  1  -0.827283  0  -0.223441  -0.11221  0  3.671045  0
N  N144  1  0.99101862  0.04205255  0.14857301  1  -1.25307  0  -0.327557  -0.271953  0  3.552638  0
N  N145  1  0.50898162  0.95794745  0.64857341  1  -1.253126  0  -0.327563  -0.271925  0  3.552622  0
N  N146  1  0.49101820  0.45794784  0.85142707  1  -1.253084  0  -0.327559  -0.271912  0  3.552665  0
N  N147  1  0.00898074  0.54205315  0.35142631  1  -1.253128  0  -0.327571  -0.271931  0  3.552656  0
O  O148  1  0.71491796  0.24770229  0.27788568  1  -1.156947  0  -0.306525  -0.495788  0  2.31364  0
O  O149  1  0.78508507  0.75229775  0.77788630  1  -1.156952  0  -0.306557  -0.495795  0  2.313687  0
O  O150  1  0.21491487  0.25229818  0.72211414  1  -1.156963  0  -0.306562  -0.495816  0  2.313694  0
O  O151  1  0.28507551  0.74770588  0.22211253  1  -1.15687  0  -0.306557  -0.495796  0  2.313791  0
