# generated using pymatgen
data_NiH8C10(SN3)2
_symmetry_space_group_name_H-M   'P 1'
_cell_length_a   6.94707942
_cell_length_b   7.22070694
_cell_length_c   12.53688690
_cell_angle_alpha   90.08103512
_cell_angle_beta   102.41707982
_cell_angle_gamma   90.10099977
_symmetry_Int_Tables_number   1
_chemical_formula_structural   NiH8C10(SN3)2
_chemical_formula_sum   'Ni2 H16 C20 S4 N12'
_cell_volume   614.17291537
_cell_formula_units_Z   2
loop_
 _symmetry_equiv_pos_site_id
 _symmetry_equiv_pos_as_xyz
  1  'x, y, z'
loop_
 _atom_site_type_symbol
 _atom_site_label
 _atom_site_symmetry_multiplicity
 _atom_site_fract_x
 _atom_site_fract_y
 _atom_site_fract_z
 _atom_site_occupancy
 _atom_site_pbe_cm5_charge
 _atom_site_pbe_ddec_charge
 _atom_site_pbe_ddec_spin_density
 _atom_site_pbe_ddec_sum_bond_order
 _atom_site_pbe_magmom
Ni  Ni0  1  0.50000693  0.49999987  0.50000404  1  0.67895  0.58786  -0.094973  2.816747  -0.005
Ni  Ni1  1  0.99999742  0.99999971  0.99999993  1  0.693418  0.62514  1.840693  2.756727  1.498
H  H2  1  0.44607354  0.16376301  0.32730849  1  0.118033  0.096972  -0.000451  1.027125  -0.001
H  H3  1  0.05257698  0.66485462  0.17258035  1  0.119456  0.099389  0.001376  1.025782  0.002
H  H4  1  0.55392997  0.83623672  0.67269769  1  0.118025  0.096969  -0.000451  1.027137  -0.001
H  H5  1  0.94740847  0.33514231  0.82741349  1  0.119414  0.099317  0.001375  1.025813  0.002
H  H6  1  0.54705082  0.18388110  0.66561743  1  0.119142  0.101425  -7.4e-05  1.023249  0.0
H  H7  1  0.95192378  0.68229670  0.83424387  1  0.120394  0.104353  0.001422  1.021566  0.002
H  H8  1  0.45295264  0.81611724  0.33438714  1  0.119075  0.101282  -7.4e-05  1.023332  0.0
H  H9  1  0.04806624  0.31770300  0.16575446  1  0.120398  0.104305  0.001422  1.021592  0.002
H  H10  1  0.86359477  0.68709407  0.62625755  1  0.120636  0.099014  -0.001604  1.021935  -0.002
H  H11  1  0.63648830  0.18366831  0.87212373  1  0.119076  0.096859  0.001344  1.022745  0.002
H  H12  1  0.13641450  0.31290982  0.37374526  1  0.120645  0.09904  -0.001604  1.021919  -0.002
H  H13  1  0.36350458  0.81633417  0.12787252  1  0.119056  0.096837  0.001343  1.02271  0.002
H  H14  1  0.77704955  0.30671570  0.37064099  1  0.11498  0.087821  -0.00159  1.048543  -0.002
H  H15  1  0.72351351  0.81002581  0.13048905  1  0.114315  0.086887  0.001291  1.050735  0.002
H  H16  1  0.22295818  0.69328680  0.62936006  1  0.115025  0.087894  -0.00159  1.048459  -0.002
H  H17  1  0.27647649  0.18998082  0.86950848  1  0.114272  0.086811  0.001292  1.05077  0.002
C  C18  1  0.51531114  0.53066012  0.74547299  1  0.13161  0.233068  0.008784  4.365899  0.014
C  C19  1  0.98435431  0.03108860  0.75261227  1  0.13146  0.23588  0.005444  4.371331  0.011
C  C20  1  0.48468173  0.46935620  0.25452247  1  0.131592  0.233133  0.008783  4.365694  0.014
C  C21  1  0.01563265  0.96891802  0.24738254  1  0.131433  0.23579  0.005443  4.37141  0.011
C  C22  1  0.47084163  0.09132678  0.40518307  1  0.05357  0.043985  -0.000985  3.917267  -0.001
C  C23  1  0.02841530  0.59229983  0.09464965  1  0.055351  0.045204  0.001791  3.90364  0.002
C  C24  1  0.52917352  0.90867157  0.59482037  1  0.053611  0.043949  -0.000985  3.917419  -0.001
C  C25  1  0.97157021  0.40769986  0.90534579  1  0.055419  0.045388  0.001791  3.903298  0.002
C  C26  1  0.52550900  0.10113198  0.59148768  1  0.054963  0.057193  -0.000188  3.916644  0.0
C  C27  1  0.97391069  0.60051392  0.90854390  1  0.056198  0.057241  0.001958  3.903892  0.002
C  C28  1  0.47449315  0.89885806  0.40852153  1  0.055039  0.057283  -0.000188  3.916793  0.0
C  C29  1  0.02608072  0.39948856  0.09145218  1  0.056209  0.057362  0.001957  3.903877  0.002
C  C30  1  0.92416622  0.60245223  0.56976840  1  0.055973  0.052262  -0.003946  3.89125  -0.003
C  C31  1  0.57559855  0.10098911  0.92937904  1  0.056254  0.055793  0.000522  3.899522  0.001
C  C32  1  0.07584744  0.39755027  0.43023408  1  0.055956  0.052243  -0.003946  3.891212  -0.003
C  C33  1  0.42442223  0.89900647  0.07061783  1  0.05623  0.055734  0.000525  3.899061  0.001
C  C34  1  0.87503624  0.39473307  0.42863246  1  0.056625  0.053671  -0.00429  3.909512  -0.003
C  C35  1  0.62488987  0.89617039  0.07197230  1  0.055503  0.053522  0.000594  3.917526  0.001
C  C36  1  0.12497005  0.60527220  0.57136922  1  0.056561  0.053563  -0.00429  3.909495  -0.003
C  C37  1  0.37511639  0.10383348  0.92802858  1  0.055564  0.053554  0.000592  3.917614  0.001
S  S38  1  0.45018929  0.57781233  0.85830843  1  -0.162175  -0.298223  0.012601  2.339869  0.014
S  S39  1  0.05073002  0.07962785  0.64037673  1  -0.163383  -0.301084  0.011276  2.350209  0.013
S  S40  1  0.54980225  0.42217353  0.14169165  1  -0.162138  -0.298202  0.012587  2.340004  0.014
S  S41  1  0.94926882  0.92037464  0.35962176  1  -0.163386  -0.301081  0.011277  2.350166  0.013
N  N42  1  0.56760283  0.49778982  0.66266135  1  -0.413679  -0.496357  0.029158  3.353009  0.034
N  N43  1  0.93245245  0.99630477  0.83523943  1  -0.417737  -0.511397  0.033468  3.330612  0.043
N  N44  1  0.43240957  0.50219469  0.33734737  1  -0.413654  -0.496424  0.02916  3.352757  0.034
N  N45  1  0.06754490  0.00369217  0.16475889  1  -0.417731  -0.511287  0.033467  3.330653  0.043
N  N46  1  0.49618065  0.19337272  0.49667920  1  -0.292656  -0.173844  -0.00321  3.505809  -0.003
N  N47  1  0.00251262  0.69444135  0.00316424  1  -0.28919  -0.170939  0.046072  3.49312  0.066
N  N48  1  0.50381986  0.80662700  0.50332505  1  -0.292647  -0.173659  -0.003212  3.506029  -0.003
N  N49  1  0.99747588  0.30554866  0.99683312  1  -0.289232  -0.171105  0.046074  3.492911  0.066
N  N50  1  0.79816005  0.49770624  0.49826980  1  -0.297232  -0.149979  -0.058587  3.567552  -0.056
N  N51  1  0.70096793  0.99766316  0.00147233  1  -0.303735  -0.165237  0.044977  3.580117  0.065
N  N52  1  0.20184765  0.50229210  0.50173044  1  -0.297237  -0.150042  -0.058594  3.567553  -0.056
N  N53  1  0.29901898  0.00235038  0.99852088  1  -0.303621  -0.165132  0.044973  3.579726  0.065
