# generated using pymatgen
data_InH10C18O5F6
_symmetry_space_group_name_H-M   'P 1'
_cell_length_a   13.16303220
_cell_length_b   13.17661773
_cell_length_c   14.31194129
_cell_angle_alpha   105.14170952
_cell_angle_beta   117.37511490
_cell_angle_gamma   90.00375999
_symmetry_Int_Tables_number   1
_chemical_formula_structural   InH10C18O5F6
_chemical_formula_sum   'In4 H40 C72 O20 F24'
_cell_volume   2106.79833529
_cell_formula_units_Z   4
loop_
 _symmetry_equiv_pos_site_id
 _symmetry_equiv_pos_as_xyz
  1  'x, y, z'
loop_
 _atom_site_type_symbol
 _atom_site_label
 _atom_site_symmetry_multiplicity
 _atom_site_fract_x
 _atom_site_fract_y
 _atom_site_fract_z
 _atom_site_occupancy
 _atom_site_pbe_bader_charge
 _atom_site_pbe_bader_spin_density
 _atom_site_pbe_cm5_charge
 _atom_site_pbe_ddec_charge
 _atom_site_pbe_ddec_spin_density
 _atom_site_pbe_ddec_sum_bond_order
 _atom_site_pbe_magmom
In  In0  1  0.00000041  0.50000026  0.00000028  1  1.942748  0  0.783047  1.492731  0  2.882437  0
In  In1  1  0.00000000  0.00000000  0.00000000  1  1.969845  0  0.782948  1.492196  0  2.884351  0
In  In2  1  0.11093170  0.24997861  0.00000853  1  1.938315  0  0.771139  1.45994  0  2.774098  0
In  In3  1  0.88906734  0.75002049  0.99999115  1  1.938308  0  0.771132  1.459896  0  2.774165  0
H  H4  1  0.55242932  0.74597772  0.34257975  1  0.09169  0  0.1044  0.11621  0  0.995802  0
H  H5  1  0.20980925  0.75398251  0.65735547  1  0.108997  0  0.10419  0.116274  0  0.995677  0
H  H6  1  0.44757095  0.25402298  0.65741970  1  0.091691  0  0.104411  0.116217  0  0.995817  0
H  H7  1  0.79019110  0.24601739  0.34264480  1  0.108993  0  0.104188  0.116273  0  0.995687  0
H  H8  1  0.44832230  0.39668824  0.05949893  1  0.104689  0  0.108924  0.118661  0  0.99051  0
H  H9  1  0.38882311  0.10328221  0.94048015  1  0.113057  0  0.109014  0.118577  0  0.990311  0
H  H10  1  0.55167686  0.60331166  0.94050100  1  0.104696  0  0.108941  0.118692  0  0.990454  0
H  H11  1  0.61117654  0.89671769  0.05951942  1  0.113074  0  0.109018  0.118582  0  0.990328  0
H  H12  1  0.72453138  0.62458669  0.63657097  1  0.115125  0  0.107498  0.114734  0  0.993684  0
H  H13  1  0.08797445  0.87540660  0.36342986  1  0.091377  0  0.107618  0.11495  0  0.993867  0
H  H14  1  0.27546848  0.37541321  0.36342965  1  0.115111  0  0.107483  0.114703  0  0.993678  0
H  H15  1  0.91202302  0.12459330  0.63657009  1  0.091395  0  0.107594  0.114907  0  0.993916  0
H  H16  1  0.87278239  0.93520339  0.68348010  1  0.105266  0  0.111687  0.117945  0  0.993235  0
H  H17  1  0.18930270  0.56478347  0.31650057  1  0.102017  0  0.111633  0.117778  0  0.992701  0
H  H18  1  0.12721776  0.06479651  0.31651910  1  0.1053  0  0.111689  0.117929  0  0.993225  0
H  H19  1  0.81069707  0.43521722  0.68349924  1  0.102005  0  0.111623  0.117757  0  0.992717  0
H  H20  1  0.68976116  0.56896036  0.44328977  1  0.112614  0  0.099556  0.107712  0  1.015808  0
H  H21  1  0.24648808  0.93108007  0.55673639  1  0.099251  0  0.099746  0.108083  0  1.015865  0
H  H22  1  0.31023870  0.43103954  0.55671085  1  0.112604  0  0.09957  0.107713  0  1.015815  0
H  H23  1  0.75351170  0.06892063  0.44326342  1  0.099257  0  0.099733  0.108066  0  1.01591  0
H  H24  1  0.84699175  0.87966541  0.49391902  1  0.081611  0  0.096855  0.104906  0  1.023695  0
H  H25  1  0.35304223  0.62035628  0.50608398  1  0.075336  0  0.09705  0.105393  0  1.023433  0
H  H26  1  0.15300848  0.12033369  0.50608100  1  0.081607  0  0.096862  0.104905  0  1.023682  0
H  H27  1  0.64695722  0.37964362  0.49391452  1  0.075407  0  0.097047  0.10539  0  1.023417  0
H  H28  1  0.65033038  0.48497519  0.16078610  1  0.107079  0  0.099042  0.107821  0  1.015897  0
H  H29  1  0.48952095  0.01499502  0.83921201  1  0.09204  0  0.098862  0.107931  0  1.015971  0
H  H30  1  0.34966915  0.51502391  0.83921322  1  0.107108  0  0.099036  0.107823  0  1.015879  0
H  H31  1  0.51047870  0.98500488  0.16078756  1  0.092048  0  0.09886  0.107925  0  1.015974  0
H  H32  1  0.34864659  0.66034066  0.23283070  1  0.068277  0  0.107666  0.111432  0  1.005603  0
H  H33  1  0.11584860  0.83965635  0.76715334  1  0.093414  0  0.107675  0.111382  0  1.006278  0
H  H34  1  0.65135364  0.33965844  0.76716932  1  0.068266  0  0.107656  0.111416  0  1.005615  0
H  H35  1  0.88415118  0.16034434  0.23284647  1  0.093412  0  0.107678  0.111385  0  1.006259  0
H  H36  1  0.84125783  0.35128263  0.03456406  1  0.046029  0  0.10312  0.073946  0  0.985404  0
H  H37  1  0.80667548  0.14868684  0.96541652  1  0.06098  0  0.103202  0.074083  0  0.987028  0
H  H38  1  0.15874252  0.64871727  0.96543621  1  0.046026  0  0.103111  0.073942  0  0.985404  0
H  H39  1  0.19332405  0.85131226  0.03458281  1  0.06099  0  0.103204  0.074082  0  0.987049  0
H  H40  1  0.94607294  0.28943883  0.12673702  1  0.050811  0  0.099034  0.067622  0  0.972478  0
H  H41  1  0.81936947  0.21053392  0.87325996  1  0.047032  0  0.099081  0.068259  0  0.972115  0
H  H42  1  0.05392729  0.71056027  0.87326300  1  0.050813  0  0.099047  0.067643  0  0.972456  0
H  H43  1  0.18063150  0.78946677  0.12674019  1  0.047029  0  0.099065  0.068238  0  0.972174  0
C  C44  1  0.26548992  0.46802753  0.08340841  1  1.540995  0  0.246008  0.61181  0  4.161853  0
C  C45  1  0.18211134  0.03194543  0.91657588  1  1.552578  0  0.246078  0.61267  0  4.16162  0
C  C46  1  0.73450981  0.53197157  0.91659197  1  1.540392  0  0.246032  0.611828  0  4.161834  0
C  C47  1  0.81788901  0.96805446  0.08342439  1  1.552547  0  0.246114  0.61269  0  4.161497  0
C  C48  1  0.82129660  0.81687442  0.78762810  1  1.545294  0  0.236802  0.600489  0  4.190932  0
C  C49  1  0.03368329  0.68311371  0.21236996  1  1.560007  0  0.23727  0.601845  0  4.190986  0
C  C50  1  0.17870375  0.18312548  0.21237217  1  1.545301  0  0.236741  0.600397  0  4.190888  0
C  C51  1  0.96631788  0.31688698  0.78763125  1  1.560025  0  0.237273  0.601807  0  4.191052  0
C  C52  1  0.61663544  0.62151767  0.26050253  1  -0.07059  0  -0.014342  0.086448  0  3.946824  0
C  C53  1  0.35615881  0.87843640  0.73951124  1  -0.040971  0  -0.014402  0.086973  0  3.946335  0
C  C54  1  0.38336491  0.37848222  0.73949774  1  -0.070605  0  -0.014341  0.08644  0  3.946785  0
C  C55  1  0.64384084  0.12156350  0.26048833  1  -0.040998  0  -0.014404  0.086976  0  3.946366  0
C  C56  1  0.52999625  0.67064755  0.27874127  1  -0.072815  0  -0.091383  -0.127581  0  3.974057  0
C  C57  1  0.25124409  0.82930207  0.72120009  1  -0.066702  0  -0.091216  -0.128431  0  3.975373  0
C  C58  1  0.47000410  0.32935235  0.72125900  1  -0.072824  0  -0.09139  -0.127598  0  3.974091  0
C  C59  1  0.74875569  0.17069862  0.27879972  1  -0.066677  0  -0.091207  -0.128449  0  3.975351  0
C  C60  1  0.47178060  0.47447934  0.11998682  1  -0.055512  0  -0.0785  -0.077066  0  3.961847  0
C  C61  1  0.35181309  0.02547397  0.88002353  1  -0.005036  0  -0.07901  -0.07678  0  3.961358  0
C  C62  1  0.52821885  0.52552056  0.88001169  1  -0.055545  0  -0.078512  -0.077101  0  3.961867  0
C  C63  1  0.64818656  0.97452592  0.11997604  1  -0.005042  0  -0.07904  -0.076842  0  3.961436  0
C  C64  1  0.74964722  0.67981295  0.60354573  1  0.03159  0  -0.078676  -0.071854  0  3.954488  0
C  C65  1  0.14610383  0.82018582  0.39647433  1  0.027373  0  -0.07848  -0.071167  0  3.955254  0
C  C66  1  0.25035313  0.32018694  0.39645453  1  0.031628  0  -0.078695  -0.071856  0  3.954269  0
C  C67  1  0.85389533  0.17981408  0.60352560  1  0.027177  0  -0.07845  -0.071111  0  3.955205  0
C  C68  1  0.83352163  0.85478089  0.63002132  1  -0.046482  0  -0.077211  -0.071711  0  3.947948  0
C  C69  1  0.20344792  0.64519650  0.36997011  1  -0.01166  0  -0.077494  -0.071097  0  3.946455  0
C  C70  1  0.16647881  0.14521821  0.36997976  1  -0.046205  0  -0.0772  -0.071616  0  3.947814  0
C  C71  1  0.79655185  0.35480419  0.63002970  1  -0.011285  0  -0.077482  -0.071081  0  3.946435  0
C  C72  1  0.73139129  0.64901675  0.49595471  1  -0.08467  0  -0.09144  -0.129481  0  3.970632  0
C  C73  1  0.23546175  0.85102371  0.50408266  1  -0.084074  0  -0.092335  -0.131142  0  3.971769  0
C  C74  1  0.26860890  0.35098394  0.50404722  1  -0.084659  0  -0.091401  -0.129423  0  3.970459  0
C  C75  1  0.76453783  0.14897698  0.49591609  1  -0.084073  0  -0.092339  -0.13114  0  3.971813  0
C  C76  1  0.79965210  0.78353726  0.67112455  1  0.005792  0  -0.01652  -0.036413  0  3.97127  0
C  C77  1  0.12847821  0.71644969  0.32890550  1  0.009554  0  -0.016511  -0.037685  0  3.971002  0
C  C78  1  0.20034907  0.21646343  0.32887666  1  0.005803  0  -0.016509  -0.03643  0  3.971052  0
C  C79  1  0.87152177  0.28355100  0.67109537  1  0.009785  0  -0.016478  -0.0376  0  3.970894  0
C  C80  1  0.38642460  0.52303268  0.13992930  1  -0.006951  0  -0.017737  -0.040141  0  3.983653  0
C  C81  1  0.24651188  0.97692381  0.86004742  1  -0.024815  0  -0.016974  -0.039521  0  3.98216  0
C  C82  1  0.61357526  0.47696721  0.86007133  1  -0.006625  0  -0.017738  -0.040151  0  3.983685  0
C  C83  1  0.75348757  0.02307609  0.13995109  1  -0.024765  0  -0.016937  -0.039494  0  3.982158  0
C  C84  1  0.76520483  0.72013973  0.45405893  1  -0.0702  0  -0.013839  0.088903  0  3.943199  0
C  C85  1  0.31111301  0.77986098  0.54595090  1  -0.053805  0  -0.01318  0.090178  0  3.942854  0
C  C86  1  0.23479491  0.27985937  0.54594145  1  -0.070233  0  -0.01383  0.088902  0  3.943178  0
C  C87  1  0.68888726  0.22013972  0.45404855  1  -0.053814  0  -0.013198  0.090106  0  3.94287  0
C  C88  1  0.81799614  0.82297073  0.52286708  1  -0.025293  0  -0.09673  -0.140825  0  3.980074  0
C  C89  1  0.29504738  0.67701673  0.47713406  1  -0.038152  0  -0.097021  -0.141838  0  3.979894  0
C  C90  1  0.18200351  0.17702917  0.47713249  1  -0.02562  0  -0.09675  -0.140871  0  3.98008  0
C  C91  1  0.70495289  0.32298397  0.52286539  1  -0.038608  0  -0.097018  -0.141838  0  3.979859  0
C  C92  1  0.58583953  0.52435440  0.17838848  1  0.056016  0  -0.094915  -0.134514  0  3.982214  0
C  C93  1  0.40746297  0.97559151  0.82162858  1  -0.04271  0  -0.094714  -0.135322  0  3.982236  0
C  C94  1  0.41416082  0.47564550  0.82161178  1  0.055982  0  -0.094919  -0.134515  0  3.982214  0
C  C95  1  0.59253681  0.02440918  0.17837124  1  -0.042724  0  -0.094688  -0.13528  0  3.982292  0
C  C96  1  0.83401572  0.60503230  0.33289571  1  1.712313  0  0.300866  0.67619  0  3.973831  0
C  C97  1  0.50109895  0.89498215  0.66706822  1  1.719367  0  0.301288  0.676177  0  3.973908  0
C  C98  1  0.16598398  0.39496601  0.66710195  1  1.712306  0  0.300848  0.676164  0  3.973752  0
C  C99  1  0.49890012  0.10501854  0.33293089  1  1.719202  0  0.30125  0.676122  0  3.973881  0
C  C100  1  0.75167759  0.76986510  0.28567503  1  1.728714  0  0.303313  0.67772  0  3.965322  0
C  C101  1  0.46597882  0.73013646  0.71430991  1  1.725286  0  0.302905  0.675654  0  3.972009  0
C  C102  1  0.24832276  0.23013480  0.71432524  1  1.728702  0  0.303308  0.677688  0  3.965383  0
C  C103  1  0.53402071  0.26986264  0.28568942  1  1.725246  0  0.302903  0.675669  0  3.971881  0
C  C104  1  0.74147366  0.67903825  0.33370536  1  0.061574  0  -0.010071  -0.273739  0  3.84553  0
C  C105  1  0.40776898  0.82096058  0.66628348  1  0.054584  0  -0.010236  -0.273876  0  3.846519  0
C  C106  1  0.25852657  0.32096085  0.66629466  1  0.061583  0  -0.01009  -0.273683  0  3.84545  0
C  C107  1  0.59223067  0.17903932  0.33371608  1  0.054611  0  -0.010237  -0.273811  0  3.846433  0
C  C108  1  0.41575923  0.62282199  0.21800690  1  -0.005015  0  -0.080626  -0.081586  0  3.967313  0
C  C109  1  0.19778295  0.87713479  0.78195018  1  -0.022048  0  -0.080753  -0.081048  0  3.968387  0
C  C110  1  0.58424100  0.37717712  0.78199312  1  -0.005013  0  -0.080617  -0.081559  0  3.967308  0
C  C111  1  0.80221670  0.12286510  0.21804939  1  -0.022081  0  -0.080775  -0.081044  0  3.968362  0
C  C112  1  0.91173929  0.30293037  0.04527322  1  0.450083  0  -0.077294  0.046485  0  3.96931  0
C  C113  1  0.86646835  0.19704670  0.95473032  1  0.410622  0  -0.077348  0.044969  0  3.972346  0
C  C114  1  0.08826037  0.69706953  0.95472634  1  0.45008  0  -0.077287  0.046489  0  3.969261  0
C  C115  1  0.13353200  0.80295320  0.04526994  1  0.410618  0  -0.077349  0.044966  0  3.972459  0
O  O116  1  0.00329809  0.35788798  0.04200758  1  -1.135162  0  -0.356706  -0.632763  0  2.408144  0
O  O117  1  0.96129775  0.14209467  0.95803759  1  -1.129781  0  -0.356666  -0.631766  0  2.409742  0
O  O118  1  0.99670177  0.64211192  0.95799305  1  -1.13516  0  -0.356728  -0.632769  0  2.408113  0
O  O119  1  0.03870248  0.85790444  0.04196243  1  -1.129773  0  -0.356638  -0.631738  0  2.409754  0
O  O120  1  0.85441507  0.91511934  0.84064155  1  -1.188226  0  -0.296171  -0.593422  0  2.350075  0
O  O121  1  0.01383522  0.58487230  0.15938143  1  -1.189575  0  -0.296167  -0.593774  0  2.350418  0
O  O122  1  0.14558610  0.08488135  0.15935966  1  -1.188231  0  -0.296135  -0.593377  0  2.350086  0
O  O123  1  0.98616476  0.41512839  0.84061944  1  -1.189592  0  -0.296178  -0.59378  0  2.350459  0
O  O124  1  0.80604528  0.74395401  0.82540054  1  -1.160972  0  -0.286254  -0.568511  0  2.312663  0
O  O125  1  0.98066589  0.75601042  0.17455584  1  -1.165867  0  -0.2865  -0.569114  0  2.313263  0
O  O126  1  0.19395684  0.25604509  0.17460052  1  -1.160972  0  -0.28625  -0.5685  0  2.312634  0
O  O127  1  0.01933196  0.24398868  0.82544351  1  -1.165876  0  -0.2865  -0.569124  0  2.31329  0
O  O128  1  0.24952410  0.36793362  0.03944402  1  -1.146315  0  -0.277452  -0.546611  0  2.308149  0
O  O129  1  0.21011737  0.13203408  0.96056281  1  -1.154074  0  -0.277633  -0.547591  0  2.308533  0
O  O130  1  0.75047534  0.63206628  0.96055448  1  -1.146295  0  -0.277441  -0.546573  0  2.308164  0
O  O131  1  0.78988158  0.86796582  0.03943606  1  -1.154054  0  -0.277624  -0.547585  0  2.308507  0
O  O132  1  0.18869342  0.52591460  0.08591345  1  -1.169387  0  -0.282106  -0.57536  0  2.342113  0
O  O133  1  0.10279982  0.97406084  0.91407789  1  -1.176531  0  -0.282106  -0.575932  0  2.343489  0
O  O134  1  0.81130681  0.47408450  0.91408657  1  -1.16909  0  -0.282118  -0.575375  0  2.342088  0
O  O135  1  0.89720320  0.02593826  0.08592493  1  -1.176533  0  -0.282144  -0.575944  0  2.343462  0
F  F136  1  0.81566660  0.51404717  0.35480773  1  -0.618106  0  -0.095597  -0.201292  0  1.317703  0
F  F137  1  0.46082796  0.98596083  0.64517222  1  -0.614683  0  -0.09585  -0.201387  0  1.318654  0
F  F138  1  0.18433224  0.48595194  0.64519089  1  -0.618094  0  -0.095623  -0.201326  0  1.317694  0
F  F139  1  0.53917170  0.01403906  0.35482735  1  -0.614665  0  -0.09586  -0.201399  0  1.318613  0
F  F140  1  0.94242027  0.65309729  0.41107409  1  -0.617655  0  -0.101036  -0.205176  0  1.31917  0
F  F141  1  0.53128231  0.84688695  0.58886975  1  -0.619865  0  -0.101254  -0.205212  0  1.319201  0
F  F142  1  0.05757964  0.34690102  0.58892463  1  -0.617675  0  -0.101013  -0.20516  0  1.319125  0
F  F143  1  0.46871685  0.15311295  0.41113018  1  -0.619871  0  -0.101233  -0.205208  0  1.31917  0
F  F144  1  0.68664185  0.84638950  0.30207863  1  -0.628663  0  -0.091837  -0.203963  0  1.353302  0
F  F145  1  0.38451557  0.65362861  0.69789530  1  -0.619449  0  -0.09171  -0.203585  0  1.356824  0
F  F146  1  0.31336002  0.15361118  0.69792328  1  -0.62866  0  -0.091813  -0.203952  0  1.353317  0
F  F147  1  0.61548515  0.34637049  0.30210436  1  -0.619442  0  -0.091712  -0.203578  0  1.356766  0
F  F148  1  0.71257942  0.73313203  0.17549838  1  -0.615691  0  -0.088958  -0.193241  0  1.347508  0
F  F149  1  0.53702941  0.76685297  0.82447783  1  -0.614645  0  -0.088846  -0.192805  0  1.348581  0
F  F150  1  0.28741855  0.26686786  0.82450122  1  -0.615698  0  -0.088993  -0.193261  0  1.347498  0
F  F151  1  0.46297061  0.23314614  0.17552114  1  -0.614664  0  -0.088846  -0.192808  0  1.348536  0
F  F152  1  0.83501498  0.57535087  0.23475642  1  -0.609011  0  -0.091026  -0.194308  0  1.341305  0
F  F153  1  0.60025352  0.92469106  0.76520184  1  -0.612715  0  -0.090805  -0.193941  0  1.341486  0
F  F154  1  0.16498336  0.42464824  0.76524257  1  -0.60898  0  -0.091002  -0.194279  0  1.34128  0
F  F155  1  0.39974588  0.07531043  0.23479858  1  -0.612563  0  -0.090793  -0.193911  0  1.341527  0
F  F156  1  0.86191028  0.81937145  0.33190766  1  -0.617826  0  -0.095536  -0.20551  0  1.330481  0
F  F157  1  0.53000874  0.68062623  0.66810102  1  -0.621342  0  -0.095357  -0.20453  0  1.331235  0
F  F158  1  0.13809033  0.18062686  0.66809175  1  -0.617823  0  -0.095524  -0.2055  0  1.330498  0
F  F159  1  0.46999071  0.31937367  0.33189749  1  -0.621327  0  -0.095352  -0.204552  0  1.331201  0
