# generated using pymatgen
data_CdH8C6(N5O)2
_symmetry_space_group_name_H-M   'P 1'
_cell_length_a   7.94370486
_cell_length_b   8.86443468
_cell_length_c   10.43753229
_cell_angle_alpha   80.17066129
_cell_angle_beta   67.62414985
_cell_angle_gamma   63.36370772
_symmetry_Int_Tables_number   1
_chemical_formula_structural   CdH8C6(N5O)2
_chemical_formula_sum   'Cd2 H16 C12 N20 O4'
_cell_volume   607.50589093
_cell_formula_units_Z   2
loop_
 _symmetry_equiv_pos_site_id
 _symmetry_equiv_pos_as_xyz
  1  'x, y, z'
loop_
 _atom_site_type_symbol
 _atom_site_label
 _atom_site_symmetry_multiplicity
 _atom_site_fract_x
 _atom_site_fract_y
 _atom_site_fract_z
 _atom_site_occupancy
 _atom_site_hle17_bader_spin_density
 _atom_site_hle17_ddec_charge
 _atom_site_hle17_ddec_spin_density
 _atom_site_hle17_ddec_sum_bond_order
 _atom_site_hle17_magmom
 _atom_site_hse06_10hf_bader_spin_density
 _atom_site_hse06_10hf_ddec_charge
 _atom_site_hse06_10hf_ddec_spin_density
 _atom_site_hse06_10hf_ddec_sum_bond_order
 _atom_site_hse06_10hf_magmom
 _atom_site_hse06_bader_spin_density
 _atom_site_hse06_ddec_charge
 _atom_site_hse06_ddec_spin_density
 _atom_site_hse06_ddec_sum_bond_order
 _atom_site_hse06_magmom
 _atom_site_pbe_bader_spin_density
 _atom_site_pbe_cm5_charge
 _atom_site_pbe_ddec_charge
 _atom_site_pbe_ddec_spin_density
 _atom_site_pbe_ddec_sum_bond_order
 _atom_site_pbe_magmom
Cd  Cd0  1  0.56721035  0.49998858  0.49997369  1  0  1.069227  0  1.827364  0  0  0.862402  0  2.29937  0  0  0.911575  0  2.252898  0  0  0.839708  0.826887  0  2.3321  0
Cd  Cd1  1  0.81727175  0.00003404  0.00001324  1  0  1.068491  0  1.828244  0  0  0.861513  0  2.300577  0  0  0.910672  0  2.254142  0  0  0.839396  0.826005  0  2.333288  0
H  H2  1  0.65301836  0.42111347  0.04372571  1  0  0.291551  0  0.959543  0  0  0.256037  0  1.051712  0  0  0.265285  0  1.044665  0  0  0.303205  0.249075  0  1.057308  0
H  H3  1  0.11795688  0.57893019  0.95628125  1  0  0.291965  0  0.960872  0  0  0.255725  0  1.053932  0  0  0.265049  0  1.046769  0  0  0.303649  0.249195  0  1.058849  0
H  H4  1  0.82413569  0.07904509  0.54376727  1  0  0.29106  0  0.961019  0  0  0.255318  0  1.053563  0  0  0.26456  0  1.046527  0  0  0.30301  0.248341  0  1.059156  0
H  H5  1  0.44695236  0.92085880  0.45618278  1  0  0.291095  0  0.960517  0  0  0.255584  0  1.052727  0  0  0.264886  0  1.045591  0  0  0.303488  0.249072  0  1.057622  0
H  H6  1  0.40884326  0.66384489  0.01284137  1  0  0.138308  0  0.948331  0  0  0.151677  0  1.014038  0  0  0.154564  0  1.012793  0  0  0.09694  0.149555  0  1.015108  0
H  H7  1  0.08541720  0.33624990  0.98712898  1  0  0.138418  0  0.949794  0  0  0.151672  0  1.015473  0  0  0.154577  0  1.0142  0  0  0.09697  0.149551  0  1.016467  0
H  H8  1  0.82228791  0.83628176  0.51308252  1  0  0.138874  0  0.949306  0  0  0.151865  0  1.015181  0  0  0.154799  0  1.013895  0  0  0.096908  0.149718  0  1.016275  0
H  H9  1  0.17168253  0.16357106  0.48713197  1  0  0.138161  0  0.948763  0  0  0.15149  0  1.014406  0  0  0.154429  0  1.013075  0  0  0.096926  0.149361  0  1.015403  0
H  H10  1  0.46378706  0.79714797  0.08312380  1  0  0.157184  0  0.920964  0  0  0.176246  0  0.977131  0  0  0.179122  0  0.97602  0  0  0.106564  0.174189  0  0.977986  0
H  H11  1  0.34404167  0.20290032  0.91687249  1  0  0.156966  0  0.921511  0  0  0.176034  0  0.977662  0  0  0.178929  0  0.976511  0  0  0.106486  0.173965  0  0.978523  0
H  H12  1  0.01053140  0.70300525  0.58344398  1  0  0.156476  0  0.92099  0  0  0.175421  0  0.977344  0  0  0.178312  0  0.976209  0  0  0.105778  0.173349  0  0.978217  0
H  H13  1  0.29699943  0.29679541  0.41668782  1  0  0.156801  0  0.920472  0  0  0.17582  0  0.976696  0  0  0.178691  0  0.975582  0  0  0.105933  0.173768  0  0.977542  0
H  H14  1  0.22233806  0.79741912  0.16009565  1  0  0.147666  0  0.970509  0  0  0.154228  0  1.047901  0  0  0.15792  0  1.045201  0  0  0.097365  0.151538  0  1.049849  0
H  H15  1  0.17985225  0.20271834  0.83985879  1  0  0.147644  0  0.969551  0  0  0.153967  0  1.047282  0  0  0.157705  0  1.044555  0  0  0.097451  0.151257  0  1.049267  0
H  H16  1  0.76925664  0.70292618  0.66046746  1  0  0.146913  0  0.971676  0  0  0.153226  0  1.049391  0  0  0.156948  0  1.046702  0  0  0.097288  0.150537  0  1.051314  0
H  H17  1  0.13237751  0.29712330  0.33988416  1  0  0.148886  0  0.971059  0  0  0.155166  0  1.048591  0  0  0.158878  0  1.045907  0  0  0.09826  0.152492  0  1.050533  0
C  C18  1  0.71239056  0.29692536  0.21796069  1  0  0.506703  0  3.815358  0  0  0.4525  0  4.101161  0  0  0.473484  0  4.114053  0  0  0.331057  0.438338  0  4.092049  0
C  C19  1  0.22725232  0.70311475  0.78199751  1  0  0.504807  0  3.814355  0  0  0.451692  0  4.098461  0  0  0.472673  0  4.111397  0  0  0.330891  0.437579  0  4.089538  0
C  C20  1  0.75935704  0.20320949  0.71798019  1  0  0.506915  0  3.81553  0  0  0.452426  0  4.1014  0  0  0.473413  0  4.114286  0  0  0.331381  0.438243  0  4.092279  0
C  C21  1  0.68060575  0.79671605  0.28190983  1  0  0.504565  0  3.817502  0  0  0.450938  0  4.10259  0  0  0.471939  0  4.115492  0  0  0.331155  0.436822  0  4.093667  0
C  C22  1  0.45586179  0.58411340  0.21003550  1  0  0.680321  0  3.716163  0  0  0.640367  0  3.999556  0  0  0.670887  0  3.99733  0  0  0.253045  0.619718  0  4.000206  0
C  C23  1  0.24981970  0.41604720  0.78994755  1  0  0.677737  0  3.718392  0  0  0.638733  0  4.000448  0  0  0.668925  0  3.998801  0  0  0.252594  0.618201  0  4.001007  0
C  C24  1  0.78955810  0.91624044  0.71016590  1  0  0.680541  0  3.713463  0  0  0.640539  0  3.997128  0  0  0.670832  0  3.995261  0  0  0.253054  0.619938  0  3.997669  0
C  C25  1  0.41590519  0.08374510  0.28987369  1  0  0.679273  0  3.71641  0  0  0.640443  0  3.998239  0  0  0.670899  0  3.996122  0  0  0.254078  0.619776  0  3.999034  0
C  C26  1  0.38192652  0.71696033  0.10985401  1  0  -0.452509  0  3.631942  0  0  -0.525271  0  3.864997  0  0  -0.532312  0  3.86645  0  0  -0.243772  -0.520241  0  3.864097  0
C  C27  1  0.20871669  0.28312773  0.89011773  1  0  -0.452426  0  3.632508  0  0  -0.525052  0  3.865564  0  0  -0.532043  0  3.867007  0  0  -0.244096  -0.519996  0  3.864525  0
C  C28  1  0.84846034  0.78328330  0.61015204  1  0  -0.451876  0  3.633416  0  0  -0.523516  0  3.866244  0  0  -0.530588  0  3.867772  0  0  -0.242731  -0.518482  0  3.865328  0
C  C29  1  0.24182025  0.21659184  0.39003622  1  0  -0.453482  0  3.633239  0  0  -0.526113  0  3.865921  0  0  -0.533201  0  3.867357  0  0  -0.244535  -0.521063  0  3.86492  0
N  N30  1  0.83351781  0.12908878  0.36675923  1  0  -0.078042  0  3.063334  0  0  -0.053564  0  3.349438  0  0  -0.055019  0  3.36253  0  0  -0.08604  -0.052367  0  3.340952  0
N  N31  1  0.32957290  0.87081597  0.63320165  1  0  -0.077859  0  3.063019  0  0  -0.053791  0  3.349471  0  0  -0.055263  0  3.362506  0  0  -0.085128  -0.052636  0  3.340492  0
N  N32  1  0.71279104  0.37096419  0.86674458  1  0  -0.079141  0  3.063404  0  0  -0.055042  0  3.349737  0  0  -0.056511  0  3.362833  0  0  -0.085568  -0.05384  0  3.341247  0
N  N33  1  0.95060782  0.62893958  0.13314826  1  0  -0.078013  0  3.062297  0  0  -0.053418  0  3.348554  0  0  -0.054895  0  3.361575  0  0  -0.085803  -0.052269  0  3.339601  0
N  N34  1  0.70504563  0.28872617  0.34937783  1  0  -0.393908  0  3.161277  0  0  -0.332534  0  3.458069  0  0  -0.353121  0  3.470717  0  0  -0.256058  -0.318326  0  3.449375  0
N  N35  1  0.34315952  0.71128017  0.65056223  1  0  -0.393366  0  3.161167  0  0  -0.332167  0  3.457725  0  0  -0.35276  0  3.470344  0  0  -0.256212  -0.318021  0  3.448827  0
N  N36  1  0.74392642  0.21137521  0.84938594  1  0  -0.393287  0  3.161035  0  0  -0.331494  0  3.457594  0  0  -0.352104  0  3.470296  0  0  -0.255955  -0.317274  0  3.448872  0
N  N37  1  0.80469938  0.78855441  0.15049751  1  0  -0.393381  0  3.161314  0  0  -0.332111  0  3.457697  0  0  -0.35274  0  3.470388  0  0  -0.256324  -0.317954  0  3.448772  0
N  N38  1  0.84081189  0.14590170  0.15565514  1  0  -0.405261  0  3.074706  0  0  -0.342313  0  3.367607  0  0  -0.362823  0  3.37986  0  0  -0.248428  -0.327802  0  3.359026  0
N  N39  1  0.14241780  0.85409534  0.84431832  1  0  -0.402637  0  3.070326  0  0  -0.33994  0  3.362707  0  0  -0.360529  0  3.375015  0  0  -0.247574  -0.325988  0  3.354312  0
N  N40  1  0.73667722  0.35423075  0.65567132  1  0  -0.405461  0  3.07374  0  0  -0.341967  0  3.366162  0  0  -0.362461  0  3.378368  0  0  -0.248253  -0.327492  0  3.357658  0
N  N41  1  0.74671610  0.64570728  0.34423640  1  0  -0.402425  0  3.074079  0  0  -0.339262  0  3.365984  0  0  -0.3599  0  3.378396  0  0  -0.247371  -0.325259  0  3.357492  0
N  N42  1  0.91346583  0.04405387  0.25240739  1  0  -0.049437  0  2.973838  0  0  -0.047858  0  3.264747  0  0  -0.045401  0  3.276676  0  0  -0.085237  -0.049237  0  3.256377  0
N  N43  1  0.21015245  0.95585926  0.74756465  1  0  -0.050651  0  2.9696  0  0  -0.049021  0  3.260592  0  0  -0.046561  0  3.272566  0  0  -0.086837  -0.050376  0  3.252383  0
N  N44  1  0.70758198  0.45603384  0.75240267  1  0  -0.049168  0  2.971657  0  0  -0.047651  0  3.262434  0  0  -0.045195  0  3.274365  0  0  -0.086199  -0.049027  0  3.254076  0
N  N45  1  0.91617765  0.54389348  0.24750703  1  0  -0.050793  0  2.972457  0  0  -0.049436  0  3.26349  0  0  -0.046973  0  3.275454  0  0  -0.086382  -0.050793  0  3.255288  0
N  N46  1  0.61167684  0.43540360  0.15045107  1  0  -0.499819  0  3.303686  0  0  -0.438125  0  3.552525  0  0  -0.462844  0  3.55752  0  0  -0.386682  -0.421053  0  3.549045  0
N  N47  1  0.19749183  0.56467857  0.84952150  1  0  -0.49904  0  3.306911  0  0  -0.437381  0  3.555289  0  0  -0.462048  0  3.560436  0  0  -0.38612  -0.420443  0  3.551272  0
N  N48  1  0.79703654  0.06477896  0.65050512  1  0  -0.49928  0  3.304808  0  0  -0.437424  0  3.553975  0  0  -0.462111  0  3.559154  0  0  -0.385916  -0.420286  0  3.550348  0
N  N49  1  0.51230175  0.93512178  0.34944238  1  0  -0.498889  0  3.304543  0  0  -0.438147  0  3.553257  0  0  -0.462856  0  3.558222  0  0  -0.387218  -0.421223  0  3.549394  0
O  O50  1  0.38302415  0.61075797  0.33734957  1  0  -0.577492  0  1.944117  0  0  -0.522655  0  2.175477  0  0  -0.545516  0  2.165918  0  0  -0.30186  -0.506646  0  2.181444  0
O  O51  1  0.33067097  0.38952259  0.66259501  1  0  -0.575482  0  1.942805  0  0  -0.521443  0  2.174236  0  0  -0.544225  0  2.164897  0  0  -0.302085  -0.50576  0  2.180403  0
O  O52  1  0.74310478  0.88981735  0.83755928  1  0  -0.577008  0  1.941653  0  0  -0.522782  0  2.173881  0  0  -0.545509  0  2.164342  0  0  -0.302115  -0.506809  0  2.179819  0
O  O53  1  0.47035347  0.11037269  0.16253408  1  0  -0.576418  0  1.944359  0  0  -0.521551  0  2.174761  0  0  -0.544443  0  2.165307  0  0  -0.302082  -0.505806  0  2.181  0
