# generated using pymatgen
data_AlH3C10N2ClO9
_symmetry_space_group_name_H-M   'P 1'
_cell_length_a   6.64619236
_cell_length_b   11.26242570
_cell_length_c   11.05672888
_cell_angle_alpha   84.53723690
_cell_angle_beta   73.73232126
_cell_angle_gamma   71.58088893
_symmetry_Int_Tables_number   1
_chemical_formula_structural   AlH3C10N2ClO9
_chemical_formula_sum   'Al2 H6 C20 N4 Cl2 O18'
_cell_volume   753.76462434
_cell_formula_units_Z   2
loop_
 _symmetry_equiv_pos_site_id
 _symmetry_equiv_pos_as_xyz
  1  'x, y, z'
loop_
 _atom_site_type_symbol
 _atom_site_label
 _atom_site_symmetry_multiplicity
 _atom_site_fract_x
 _atom_site_fract_y
 _atom_site_fract_z
 _atom_site_occupancy
 _atom_site_pbe_bader_charge
 _atom_site_pbe_bader_spin_density
 _atom_site_pbe_cm5_charge
 _atom_site_pbe_ddec_charge
 _atom_site_pbe_ddec_spin_density
 _atom_site_pbe_ddec_sum_bond_order
 _atom_site_pbe_magmom
Al  Al0  1  0.48749750  0.50582260  0.50202455  1  2.50451  0  0.39584  1.644652  0  2.572845  0
Al  Al1  1  0.98790361  0.50770428  0.49970378  1  2.501032  0  0.39588  1.645707  0  2.565485  0
H  H2  1  0.25766941  0.37208120  0.59953922  1  0.614973  0  0.346608  0.427817  0  0.869183  0
H  H3  1  0.77387909  0.57196861  0.35107350  1  0.611718  0  0.342556  0.421338  0  0.882787  0
H  H4  1  0.66140872  0.58276066  0.13384243  1  0.128513  0  0.106022  0.12012  0  1.038954  0
H  H5  1  0.33323388  0.41794794  0.86430403  1  0.144493  0  0.109961  0.124647  0  1.023222  0
H  H6  1  0.25030265  0.22739240  0.32419162  1  0.146359  0  0.120513  0.134437  0  1.030012  0
H  H7  1  0.47791737  0.76308296  0.36031518  1  0.126772  0  0.130226  0.138601  0  1.030765  0
C  C8  1  0.86131106  0.27979860  0.48679782  1  1.663315  0  0.271626  0.640838  0  4.113674  0
C  C9  1  0.63823728  0.51085967  0.72621414  1  1.574254  0  0.27804  0.669399  0  4.058857  0
C  C10  1  0.12093610  0.73195026  0.50896290  1  1.650129  0  0.275473  0.643442  0  4.098276  0
C  C11  1  0.34266290  0.50028667  0.27260878  1  1.573838  0  0.27108  0.663513  0  4.061465  0
C  C12  1  0.57297115  0.50726588  0.86672539  1  0.058072  0  -0.00543  -0.074458  0  3.904681  0
C  C13  1  0.41829507  0.49530641  0.13233845  1  0.066491  0  -0.0095  -0.07483  0  3.931795  0
C  C14  1  0.66998772  0.55126827  0.94436670  1  0.02934  0  0.028163  0.140798  0  4.008758  0
C  C15  1  0.32790348  0.44655832  0.05451978  1  0.098416  0  0.022607  0.13124  0  4.004418  0
C  C16  1  0.58950943  0.54588759  0.07466612  1  0.062042  0  -0.084559  -0.151932  0  3.963177  0
C  C17  1  0.40434974  0.45442777  0.92428175  1  -0.010595  0  -0.081068  -0.1422  0  3.959484  0
C  C18  1  0.93441890  0.13899035  0.48474287  1  0.098912  0  0.019469  -0.077849  0  3.855323  0
C  C19  1  0.14546608  0.06751367  0.41315579  1  0.052335  0  0.023166  0.096655  0  3.899507  0
C  C20  1  0.79133313  0.07660537  0.55574712  1  0.278496  0  0.099356  0.021594  0  3.90875  0
C  C21  1  0.29619132  0.12609807  0.33393658  1  0.134418  0  -0.060382  -0.137034  0  3.889132  0
C  C22  1  0.50014335  0.05569046  0.26762167  1  0.207917  0  0.091162  0.03824  0  3.938741  0
C  C23  1  0.05648066  0.87248658  0.49718487  1  0.070469  0  0.019728  -0.080086  0  3.853969  0
C  C24  1  0.84889953  0.94524709  0.55974182  1  0.181536  0  0.0965  0.019072  0  3.915664  0
C  C25  1  0.20753909  0.93336786  0.42054254  1  -0.026145  0  0.022729  0.091761  0  3.900949  0
C  C26  1  0.42063406  0.86408229  0.35095727  1  0.161023  0  -0.052237  -0.114234  0  3.86968  0
C  C27  1  0.56417608  0.92353863  0.27796225  1  0.187042  0  0.09096  0.03176  0  3.92301  0
N  N28  1  0.68528667  0.88746856  0.64178261  1  0.443972  0  0.062661  0.510354  0  4.241529  0
N  N29  1  0.57702578  0.14977518  0.63732810  1  0.42592  0  0.063194  0.508935  0  4.234743  0
N  N30  1  0.63997947  0.12151389  0.17756701  1  0.414875  0  0.059769  0.510298  0  4.253347  0
N  N31  1  0.79323677  0.84633895  0.22676564  1  0.382589  0  0.066784  0.528995  0  4.194152  0
Cl  Cl32  1  0.88362994  0.61416142  0.88891507  1  -0.148213  0  0.034548  -0.010604  0  1.620818  0
Cl  Cl33  1  0.12764999  0.37249763  0.11051966  1  -0.176147  0  0.022011  -0.038045  0  1.581448  0
O  O34  1  0.66685836  0.33216986  0.47779889  1  -1.240149  0  -0.226807  -0.582025  0  2.382264  0
O  O35  1  0.82510847  0.52345608  0.67000629  1  -1.254272  0  -0.230335  -0.592385  0  2.405429  0
O  O36  1  0.98381062  0.68066930  0.49599325  1  -1.235038  0  -0.222073  -0.560751  0  2.338394  0
O  O37  1  0.47271129  0.51884056  0.32956480  1  -1.268962  0  -0.23616  -0.597375  0  2.354604  0
O  O38  1  0.30752800  0.67801375  0.52805829  1  -1.232592  0  -0.216221  -0.549583  0  2.35659  0
O  O39  1  0.15260422  0.49046551  0.32639880  1  -1.263473  0  -0.236542  -0.608112  0  2.422808  0
O  O40  1  0.99739017  0.33167951  0.49974260  1  -1.235924  0  -0.219802  -0.558576  0  2.35391  0
O  O41  1  0.50148907  0.49814780  0.67125301  1  -1.258669  0  -0.231062  -0.590107  0  2.36493  0
O  O42  1  0.24303114  0.45023768  0.55238617  1  -1.41492  0  -0.448828  -0.991328  0  2.20792  0
O  O43  1  0.73643934  0.55913672  0.44192504  1  -1.413167  0  -0.45043  -0.988953  0  2.191094  0
O  O44  1  0.69746715  0.86502534  0.75139883  1  -0.403361  0  -0.103646  -0.294045  0  1.912535  0
O  O45  1  0.54916891  0.87037791  0.59486990  1  -0.422565  0  -0.092251  -0.275355  0  1.955156  0
O  O46  1  0.40883467  0.15031771  0.60966542  1  -0.423626  0  -0.100273  -0.294328  0  1.931899  0
O  O47  1  0.58469800  0.20429539  0.72677565  1  -0.413634  0  -0.09006  -0.27343  0  1.909024  0
O  O48  1  0.66634380  0.21315610  0.21725305  1  -0.449392  0  -0.118  -0.307695  0  1.927826  0
O  O49  1  0.71275507  0.08206393  0.06853908  1  -0.416167  0  -0.116819  -0.30083  0  1.878294  0
O  O50  1  0.82670895  0.73682481  0.19804132  1  -0.454398  0  -0.11105  -0.316793  0  1.955167  0
O  O51  1  0.93825469  0.89538938  0.22165119  1  -0.432361  0  -0.123094  -0.321268  0  1.912491  0
