# generated using pymatgen
data_Zr3H23C44N2O16F5
_symmetry_space_group_name_H-M   'P 1'
_cell_length_a   19.22042507
_cell_length_b   19.19486501
_cell_length_c   19.19221439
_cell_angle_alpha   59.33740091
_cell_angle_beta   59.96144082
_cell_angle_gamma   59.94911980
_symmetry_Int_Tables_number   1
_chemical_formula_structural   Zr3H23C44N2O16F5
_chemical_formula_sum   'Zr6 H46 C88 N4 O32 F10'
_cell_volume   4977.88762091
_cell_formula_units_Z   2
loop_
 _symmetry_equiv_pos_site_id
 _symmetry_equiv_pos_as_xyz
  1  'x, y, z'
loop_
 _atom_site_type_symbol
 _atom_site_label
 _atom_site_symmetry_multiplicity
 _atom_site_fract_x
 _atom_site_fract_y
 _atom_site_fract_z
 _atom_site_occupancy
 _atom_site_pbe_bader_charge
 _atom_site_pbe_bader_spin_density
 _atom_site_pbe_cm5_charge
 _atom_site_pbe_ddec_charge
 _atom_site_pbe_ddec_spin_density
 _atom_site_pbe_ddec_sum_bond_order
 _atom_site_pbe_magmom
Zr  Zr0  1  0.90807589  0.40665203  0.59332889  1  2.634653  0  1.625425  2.372727  0  2.757602  0
Zr  Zr1  1  0.09190025  0.59281491  0.40719930  1  2.634031  0  1.625015  2.372642  0  2.757627  0
Zr  Zr2  1  0.09190002  0.40664172  0.59342360  1  2.635667  0  1.625829  2.372538  0  2.758189  0
Zr  Zr3  1  0.90801589  0.59289561  0.40718343  1  2.630472  0  1.62544  2.372914  0  2.75705  0
Zr  Zr4  1  0.90833143  0.59137511  0.59194614  1  2.634097  0  1.628842  2.372432  0  2.766575  0
Zr  Zr5  1  0.09166349  0.40809386  0.40859434  1  2.633258  0  1.62898  2.37291  0  2.765721  0
H  H6  1  0.92790898  0.42523114  0.71898521  1  0.60639  0  0.331845  0.423076  0  0.856444  0
H  H7  1  0.92787213  0.71842629  0.42577955  1  0.595194  0  0.331914  0.423146  0  0.857261  0
H  H8  1  0.21715415  0.42760159  0.42810242  1  0.627134  0  0.331118  0.422734  0  0.857182  0
H  H9  1  0.92712187  0.42765888  0.42803884  1  0.617595  0  0.331215  0.422719  0  0.856999  0
H  H10  1  0.32042311  0.61394017  0.17657243  1  0.135018  0  0.117506  0.144516  0  0.980347  0
H  H11  1  0.67739055  0.38800984  0.82114758  1  0.12908  0  0.116119  0.144433  0  0.981623  0
H  H12  1  0.67715500  0.61399189  0.81729727  1  0.079336  0  0.110513  0.118903  0  0.987974  0
H  H13  1  0.55046140  0.61315100  0.94511640  1  0.107141  0  0.100168  0.11151  0  1.048041  0
H  H14  1  0.31702366  0.39115132  0.17755269  1  0.096061  0  0.109909  0.118321  0  0.988383  0
H  H15  1  0.44520944  0.39028538  0.05123209  1  0.096199  0  0.099263  0.110698  0  1.048953  0
H  H16  1  0.11317839  0.82071015  0.38852233  1  0.096927  0  0.116071  0.142445  0  0.983768  0
H  H17  1  0.88889481  0.17631751  0.61423995  1  0.097419  0  0.117674  0.144762  0  0.980558  0
H  H18  1  0.11412785  0.17708143  0.39147344  1  0.114062  0  0.110234  0.118606  0  0.987729  0
H  H19  1  0.11289291  0.05091522  0.39058289  1  0.131533  0  0.09943  0.110786  0  1.048617  0
H  H20  1  0.89118810  0.81695549  0.61440158  1  0.102573  0  0.110257  0.118853  0  0.988329  0
H  H21  1  0.89076339  0.94494153  0.61341193  1  0.127545  0  0.100194  0.111361  0  1.048206  0
H  H22  1  0.31790555  0.17869569  0.39045088  1  0.1031  0  0.11787  0.145027  0  0.98038  0
H  H23  1  0.67945627  0.81802205  0.61287442  1  0.1195  0  0.117757  0.144943  0  0.980825  0
H  H24  1  0.67594220  0.82048779  0.38936099  1  0.079156  0  0.109721  0.117044  0  0.988921  0
H  H25  1  0.54953350  0.94843571  0.38941515  1  0.1481  0  0.100015  0.111753  0  1.048839  0
H  H26  1  0.31978594  0.17486019  0.61549574  1  0.092533  0  0.108463  0.115252  0  0.992108  0
H  H27  1  0.44835883  0.04886762  0.61338458  1  0.127738  0  0.099159  0.110044  0  1.050402  0
H  H28  1  0.89001640  0.61257775  0.81829159  1  0.127648  0  0.117899  0.145175  0  0.980605  0
H  H29  1  0.11317098  0.39013582  0.17906815  1  0.123892  0  0.117899  0.144953  0  0.980622  0
H  H30  1  0.89018547  0.61521189  0.17517485  1  0.078541  0  0.108238  0.115051  0  0.992093  0
H  H31  1  0.88977572  0.61321163  0.04907225  1  0.110432  0  0.098928  0.110023  0  1.050889  0
H  H32  1  0.11439194  0.38890956  0.82093438  1  0.080548  0  0.109608  0.117223  0  0.988932  0
H  H33  1  0.11296858  0.38916253  0.94870544  1  0.091857  0  0.100163  0.111774  0  1.04837  0
H  H34  1  0.11344747  0.81636665  0.17784840  1  0.04356  0  0.102006  0.102406  0  1.032775  0
H  H35  1  0.89062033  0.81816607  0.17985002  1  0.044218  0  0.101808  0.102875  0  1.032605  0
H  H36  1  0.89250458  0.17716486  0.81666544  1  0.059769  0  0.102048  0.104309  0  1.02944  0
H  H37  1  0.11121951  0.17951247  0.81874375  1  0.062213  0  0.101631  0.102683  0  1.031998  0
H  H38  1  0.31969131  0.38769941  0.61493490  1  0.14602  0  0.117215  0.144172  0  0.98157  0
H  H39  1  0.67763223  0.61414988  0.38844823  1  0.098948  0  0.116941  0.144197  0  0.981383  0
H  H40  1  0.67643430  0.38865595  0.61581497  1  0.09843  0  0.109609  0.117176  0  0.988836  0
H  H41  1  0.55008922  0.38856495  0.61468109  1  0.13559  0  0.099877  0.111478  0  1.047567  0
H  H42  1  0.31893794  0.61515742  0.38955880  1  0.074432  0  0.109558  0.117668  0  0.988718  0
H  H43  1  0.44650662  0.61401524  0.38945051  1  0.106503  0  0.099432  0.110994  0  1.048457  0
H  H44  1  0.19830064  0.11579350  0.86901683  1  0.422354  0  0.297178  0.287095  0  0.97041  0
H  H45  1  0.25142789  0.02604868  0.93148553  1  0.43097  0  0.298856  0.28643  0  0.959192  0
H  H46  1  0.18297394  0.88383670  0.13124938  1  0.41755  0  0.297589  0.287766  0  0.968696  0
H  H47  1  0.20772299  0.97415780  0.06922948  1  0.423258  0  0.298981  0.285884  0  0.959593  0
H  H48  1  0.80165154  0.13101451  0.88463804  1  0.423255  0  0.297557  0.287087  0  0.969847  0
H  H49  1  0.74902120  0.06837415  0.97463603  1  0.427914  0  0.2991  0.285935  0  0.959677  0
H  H50  1  0.81668362  0.86877376  0.11656189  1  0.420608  0  0.297088  0.28689  0  0.971316  0
H  H51  1  0.79129471  0.93060721  0.02655279  1  0.432571  0  0.298989  0.286208  0  0.959539  0
C  C52  1  0.76401716  0.50117815  0.73224125  1  1.55355  0  0.236197  0.639716  0  4.099786  0
C  C53  1  0.00239907  0.73172131  0.50174371  1  1.554165  0  0.23663  0.63945  0  4.10106  0
C  C54  1  0.23113719  0.50328011  0.26332038  1  1.552327  0  0.236464  0.640703  0  4.101602  0
C  C55  1  0.00225124  0.26285805  0.50364000  1  1.577164  0  0.237492  0.641812  0  4.09922  0
C  C56  1  0.00223185  0.26104423  0.73428524  1  1.527433  0  0.235462  0.644922  0  4.086958  0
C  C57  1  0.76368341  0.50180150  0.50273014  1  1.555656  0  0.235585  0.638202  0  4.100714  0
C  C58  1  0.00235377  0.73384664  0.26160739  1  1.530824  0  0.235696  0.644677  0  4.0849  0
C  C59  1  0.23175593  0.50205444  0.50248696  1  1.554964  0  0.235519  0.638572  0  4.101477  0
C  C60  1  0.00281253  0.50072604  0.73238929  1  1.562684  0  0.23649  0.640348  0  4.100073  0
C  C61  1  0.23114001  0.26284655  0.50414075  1  1.563449  0  0.236659  0.64006  0  4.101633  0
C  C62  1  0.00199761  0.50371635  0.26329053  1  1.562532  0  0.237001  0.641037  0  4.101571  0
C  C63  1  0.76418802  0.73190789  0.50123253  1  1.544693  0  0.236298  0.639325  0  4.100886  0
C  C64  1  0.30910280  0.50259736  0.18604304  1  0.006259  0  -0.014623  -0.012839  0  3.994119  0
C  C65  1  0.68637493  0.50144178  0.80980319  1  0.029191  0  -0.014138  -0.011523  0  3.994642  0
C  C66  1  0.34741133  0.56435739  0.14946219  1  0.016601  0  -0.091737  -0.215684  0  3.988342  0
C  C67  1  0.42037318  0.56264000  0.07829605  1  0.359676  0  0.10286  0.242951  0  3.998247  0
C  C68  1  0.64989753  0.43785504  0.84807313  1  0.023735  0  -0.093604  -0.220718  0  3.994427  0
C  C69  1  0.57846443  0.43787435  0.92082679  1  0.370832  0  0.10238  0.243  0  3.998796  0
C  C70  1  0.64908331  0.56421128  0.84643938  1  -0.012323  0  -0.08697  -0.101059  0  3.998299  0
C  C71  1  0.57725443  0.56312346  0.91915688  1  -0.022484  0  -0.090058  -0.118237  0  3.977063  0
C  C72  1  0.34611949  0.43992345  0.14931280  1  -0.017677  0  -0.086955  -0.101345  0  3.999428  0
C  C73  1  0.41901042  0.43979280  0.07769704  1  -0.018577  0  -0.090037  -0.11931  0  3.982195  0
C  C74  1  0.46032739  0.50120579  0.03783599  1  0.071487  0  -0.006309  -0.013861  0  3.954385  0
C  C75  1  0.53764963  0.49997901  0.96063510  1  0.00244  0  -0.005976  -0.014769  0  3.953413  0
C  C76  1  0.00206835  0.80941867  0.50189683  1  0.016297  0  -0.014599  -0.011315  0  3.992943  0
C  C77  1  0.00211060  0.18566880  0.50290661  1  0.063483  0  -0.014548  -0.013197  0  3.993745  0
C  C78  1  0.06381278  0.84774229  0.43827361  1  0.047214  0  -0.093572  -0.219075  0  3.993688  0
C  C79  1  0.06238577  0.92058275  0.43819700  1  0.344684  0  0.102033  0.243253  0  3.997659  0
C  C80  1  0.93851162  0.14921253  0.56463011  1  0.011832  0  -0.092225  -0.216171  0  3.98863  0
C  C81  1  0.93828921  0.07811169  0.56290735  1  0.385523  0  0.102984  0.242791  0  3.99858  0
C  C82  1  0.06445203  0.14890109  0.44025230  1  -0.092241  0  -0.087425  -0.101404  0  3.998465  0
C  C83  1  0.06316057  0.07736348  0.44011348  1  -0.063707  0  -0.090323  -0.119564  0  3.979328  0
C  C84  1  0.93988143  0.84611704  0.56462092  1  -0.030043  0  -0.086749  -0.101692  0  3.997791  0
C  C85  1  0.93999151  0.91892763  0.56343055  1  -0.01293  0  -0.089728  -0.117796  0  3.97754  0
C  C86  1  0.00127128  0.96041073  0.50028353  1  0.053648  0  -0.006071  -0.014621  0  3.952853  0
C  C87  1  0.00019698  0.03760108  0.50151178  1  0.064448  0  -0.00599  -0.01349  0  3.951425  0
C  C88  1  0.30921453  0.18568737  0.50374271  1  -0.062635  0  -0.014967  -0.01405  0  3.994825  0
C  C89  1  0.68674042  0.80970247  0.50097484  1  -0.000692  0  -0.014147  -0.012319  0  3.993411  0
C  C90  1  0.34601289  0.15055087  0.44000185  1  0.077852  0  -0.091463  -0.215553  0  3.989648  0
C  C91  1  0.41898943  0.07939765  0.43942935  1  0.431673  0  0.102227  0.242688  0  4.000597  0
C  C92  1  0.65130457  0.84620670  0.56334890  1  0.078778  0  -0.092283  -0.217212  0  3.991321  0
C  C93  1  0.57980839  0.91888786  0.56240080  1  0.356145  0  0.102472  0.242847  0  4.001701  0
C  C94  1  0.64854631  0.84821466  0.43856280  1  -0.041529  0  -0.086303  -0.097983  0  3.996058  0
C  C95  1  0.57681426  0.92101741  0.43902360  1  -0.078161  0  -0.090349  -0.120931  0  3.97838  0
C  C96  1  0.34780317  0.14762536  0.56575976  1  -0.021021  0  -0.08807  -0.099708  0  4.002101  0
C  C97  1  0.42083313  0.07616481  0.56397961  1  -0.032342  0  -0.091814  -0.122804  0  3.98077  0
C  C98  1  0.46061791  0.03767196  0.50085888  1  -0.022551  0  -0.005324  -0.012249  0  3.950921  0
C  C99  1  0.53805025  0.96054610  0.50109503  1  0.097229  0  -0.006575  -0.014426  0  3.953452  0
C  C100  1  0.00284886  0.50061107  0.81005138  1  -0.027557  0  -0.014685  -0.013691  0  3.993296  0
C  C101  1  0.00162805  0.50344173  0.18600343  1  -0.044307  0  -0.01462  -0.013906  0  3.996998  0
C  C102  1  0.93951880  0.56307652  0.84646721  1  0.012663  0  -0.092297  -0.216901  0  3.991171  0
C  C103  1  0.93934694  0.56225259  0.91905255  1  0.379112  0  0.101962  0.242465  0  4.001789  0
C  C104  1  0.06370825  0.43971148  0.15086757  1  0.039396  0  -0.091716  -0.215251  0  3.989345  0
C  C105  1  0.06252049  0.43918835  0.07964707  1  0.404826  0  0.10323  0.243284  0  4.000003  0
C  C106  1  0.93914447  0.56551188  0.14789090  1  0.039061  0  -0.087873  -0.10017  0  4.002592  0
C  C107  1  0.93939396  0.56378824  0.07637981  1  -0.068019  0  -0.091392  -0.121967  0  3.98075  0
C  C108  1  0.06491150  0.43816885  0.84861031  1  0.005175  0  -0.085692  -0.09762  0  3.995385  0
C  C109  1  0.06348381  0.43875192  0.92129837  1  0.033075  0  -0.090679  -0.121116  0  3.977441  0
C  C110  1  0.00072695  0.50093025  0.96072512  1  0.013239  0  -0.006131  -0.013966  0  3.953586  0
C  C111  1  0.00126230  0.50069164  0.03785125  1  0.066046  0  -0.006279  -0.013418  0  3.951741  0
C  C112  1  0.06517285  0.84894610  0.14723117  1  -0.015319  0  -0.095633  -0.153708  0  3.961034  0
C  C113  1  0.06587689  0.92352708  0.07412175  1  0.037592  0  -0.010596  0.005801  0  4.033257  0
C  C114  1  0.12912213  0.96316254  0.03657831  1  0.405827  0  0.074289  0.125781  0  4.076708  0
C  C115  1  0.93848004  0.84922677  0.14756768  1  -0.021473  0  -0.095195  -0.1539  0  3.961949  0
C  C116  1  0.93677025  0.92326104  0.07391439  1  0.001229  0  -0.011099  0.005197  0  4.033425  0
C  C117  1  0.87235470  0.96191544  0.03543731  1  0.434053  0  0.073769  0.125677  0  4.07313  0
C  C118  1  0.93873658  0.14665576  0.84932060  1  -0.032829  0  -0.095909  -0.155329  0  3.959439  0
C  C119  1  0.93653325  0.07360298  0.92395215  1  -0.009934  0  -0.010712  0.006298  0  4.032935  0
C  C120  1  0.87118390  0.03609065  0.96357397  1  0.373196  0  0.074515  0.125567  0  4.076824  0
C  C121  1  0.06466497  0.14714930  0.84975903  1  -0.03166  0  -0.095094  -0.153353  0  3.959996  0
C  C122  1  0.06598842  0.07349454  0.92377809  1  0.003889  0  -0.011401  0.005442  0  4.034252  0
C  C123  1  0.13023129  0.03504325  0.96242366  1  0.406761  0  0.07395  0.124929  0  4.076187  0
C  C124  1  0.00217747  0.81231786  0.18348504  1  -0.052212  0  -0.028235  -0.041738  0  4.036966  0
C  C125  1  0.00128733  0.96127389  0.03618908  1  0.046596  0  -0.007812  -0.010751  0  3.97997  0
C  C126  1  0.00204646  0.18295540  0.81276177  1  -0.040483  0  -0.027521  -0.041952  0  4.037161  0
C  C127  1  0.00125877  0.03570082  0.96174971  1  -4e-06  0  -0.008288  -0.011897  0  3.981188  0
C  C128  1  0.30951139  0.50207253  0.50219631  1  0.035549  0  -0.013608  -0.010318  0  3.989759  0
C  C129  1  0.68624530  0.50136588  0.50279121  1  -0.048247  0  -0.014414  -0.011113  0  3.988201  0
C  C130  1  0.34693595  0.43803455  0.56493311  1  -0.03953  0  -0.093247  -0.219055  0  3.991944  0
C  C131  1  0.41954835  0.43802379  0.56375886  1  0.406455  0  0.1031  0.24451  0  3.998986  0
C  C132  1  0.65010091  0.56411099  0.43876136  1  0.080713  0  -0.092801  -0.218563  0  3.991038  0
C  C133  1  0.57863147  0.56297266  0.43880505  1  0.399904  0  0.102913  0.244185  0  3.997874  0
C  C134  1  0.64870142  0.43827711  0.56570984  1  0.002168  0  -0.087209  -0.100178  0  3.997643  0
C  C135  1  0.57691697  0.43862950  0.56452628  1  -0.092401  0  -0.090771  -0.120857  0  3.979702  0
C  C136  1  0.34718288  0.56503149  0.43916171  1  -0.001978  0  -0.08751  -0.101739  0  3.999557  0
C  C137  1  0.41980535  0.56383111  0.43950381  1  1.2e-05  0  -0.090311  -0.119217  0  3.978951  0
C  C138  1  0.46024431  0.50036761  0.50188904  1  0.006546  0  -0.006678  -0.015618  0  3.952088  0
C  C139  1  0.53744826  0.50111385  0.50115171  1  0.050983  0  -0.00615  -0.013843  0  3.953515  0
N  N140  1  0.19341271  0.07086779  0.92866693  1  -1.223822  0  -0.607286  -0.609526  0  3.31096  0
N  N141  1  0.19319395  0.92858026  0.07151180  1  -1.186117  0  -0.607175  -0.608212  0  3.310867  0
N  N142  1  0.80673522  0.07109305  0.92902744  1  -1.192637  0  -0.606987  -0.607247  0  3.312163  0
N  N143  1  0.80701814  0.92824272  0.07132713  1  -1.208984  0  -0.607878  -0.610207  0  3.312254  0
O  O144  1  0.79450315  0.44133207  0.70295575  1  -1.179238  0  -0.355248  -0.617853  0  2.277273  0
O  O145  1  0.06116579  0.70232423  0.44200352  1  -1.182791  0  -0.355135  -0.617331  0  2.277131  0
O  O146  1  0.20148323  0.56230894  0.29340495  1  -1.178138  0  -0.354233  -0.617027  0  2.276466  0
O  O147  1  0.94279405  0.29291871  0.56269533  1  -1.183988  0  -0.3547  -0.617838  0  2.275892  0
O  O148  1  0.06098842  0.29256140  0.70338241  1  -1.185899  0  -0.361157  -0.624786  0  2.287354  0
O  O149  1  0.79419362  0.56140724  0.44244236  1  -1.183079  0  -0.354192  -0.617376  0  2.273253  0
O  O150  1  0.94299497  0.70292733  0.29310811  1  -1.189411  0  -0.361243  -0.624762  0  2.286052  0
O  O151  1  0.20192097  0.44174870  0.56202418  1  -1.17971  0  -0.354305  -0.617281  0  2.275529  0
O  O152  1  0.94315528  0.55978162  0.70200038  1  -1.188058  0  -0.355935  -0.617475  0  2.280772  0
O  O153  1  0.20074747  0.29389551  0.44446291  1  -1.178641  0  -0.355798  -0.616759  0  2.282391  0
O  O154  1  0.06096122  0.44399936  0.29439293  1  -1.189935  0  -0.356454  -0.617396  0  2.282882  0
O  O155  1  0.79511496  0.70151149  0.56033177  1  -1.176996  0  -0.355915  -0.617075  0  2.282448  0
O  O156  1  0.20134520  0.29291816  0.56320234  1  -1.179757  0  -0.354854  -0.618952  0  2.281907  0
O  O157  1  0.94255960  0.56269400  0.29344470  1  -1.179166  0  -0.354448  -0.618942  0  2.281464  0
O  O158  1  0.79453023  0.70226621  0.44169321  1  -1.176526  0  -0.354578  -0.618612  0  2.280275  0
O  O159  1  0.06157847  0.44112956  0.70281894  1  -1.179891  0  -0.3547  -0.619051  0  2.280937  0
O  O160  1  0.94284966  0.29256549  0.70334197  1  -1.182143  0  -0.362131  -0.626103  0  2.286046  0
O  O161  1  0.20167344  0.56163083  0.44235228  1  -1.183634  0  -0.354706  -0.619953  0  2.278864  0
O  O162  1  0.06113166  0.70292220  0.29314974  1  -1.188296  0  -0.362115  -0.625841  0  2.284688  0
O  O163  1  0.79437464  0.44167093  0.56227346  1  -1.182831  0  -0.354822  -0.619774  0  2.279928  0
O  O164  1  0.06122376  0.29399349  0.44407577  1  -1.188315  0  -0.356303  -0.619763  0  2.284721  0
O  O165  1  0.79495979  0.56025927  0.70176030  1  -1.172411  0  -0.355428  -0.618733  0  2.283985  0
O  O166  1  0.94288177  0.70121529  0.56083121  1  -1.181028  0  -0.35544  -0.618212  0  2.285549  0
O  O167  1  0.20069187  0.44362937  0.29448593  1  -1.178953  0  -0.355614  -0.619265  0  2.285579  0
O  O168  1  0.94793799  0.44810150  0.44850313  1  -1.247311  0  -0.694597  -1.070209  0  2.361535  0
O  O169  1  0.15543110  0.44803068  0.44860156  1  -1.25806  0  -0.694494  -1.070532  0  2.362513  0
O  O170  1  0.94818901  0.65621855  0.44741181  1  -1.225775  0  -0.695054  -1.068025  0  2.366088  0
O  O171  1  0.94819207  0.44684978  0.65677104  1  -1.234385  0  -0.694773  -1.067207  0  2.362943  0
O  O172  1  0.03843215  0.53786082  0.53840246  1  -1.198604  0  -0.7913  -1.149132  0  2.12377  0
O  O173  1  0.88527890  0.53787911  0.53838664  1  -1.197025  0  -0.791167  -1.149203  0  2.12359  0
O  O174  1  0.03801006  0.53892541  0.38502522  1  -1.19332  0  -0.791812  -1.148783  0  2.129844  0
O  O175  1  0.03800000  0.38459315  0.53937407  1  -1.193956  0  -0.791885  -1.148044  0  2.129361  0
F  F176  1  0.45217499  0.62613868  0.04902009  1  -0.635578  0  -0.096219  -0.145497  0  1.363495  0
F  F177  1  0.54927626  0.37167674  0.95260055  1  -0.63601  0  -0.099159  -0.149106  0  1.361005  0
F  F178  1  0.12591185  0.95243097  0.37190710  1  -0.637934  0  -0.098692  -0.148861  0  1.36019  0
F  F179  1  0.87217823  0.04893685  0.62635459  1  -0.635983  0  -0.096315  -0.145584  0  1.363007  0
F  F180  1  0.44901773  0.05139083  0.37341280  1  -0.634524  0  -0.09634  -0.145884  0  1.362051  0
F  F181  1  0.55142615  0.94864038  0.62672285  1  -0.635985  0  -0.097422  -0.146658  0  1.362373  0
F  F182  1  0.87375217  0.62671347  0.94865935  1  -0.636761  0  -0.097497  -0.146962  0  1.362129  0
F  F183  1  0.12648645  0.37315510  0.05167019  1  -0.635641  0  -0.096383  -0.145684  0  1.362616  0
F  F184  1  0.45021455  0.37155476  0.62845934  1  -0.637231  0  -0.097922  -0.147331  0  1.36255  0
F  F185  1  0.54968564  0.62772069  0.37236993  1  -0.635788  0  -0.098024  -0.147946  0  1.360197  0
