# generated using pymatgen
data_KHoH5C9NO10
_symmetry_space_group_name_H-M   'P 1'
_cell_length_a   6.57089626
_cell_length_b   12.50352770
_cell_length_c   14.05753251
_cell_angle_alpha   89.99896984
_cell_angle_beta   89.99988950
_cell_angle_gamma   89.99942129
_symmetry_Int_Tables_number   1
_chemical_formula_structural   KHoH5C9NO10
_chemical_formula_sum   'K4 Ho4 H20 C36 N4 O40'
_cell_volume   1154.95820267
_cell_formula_units_Z   4
loop_
 _symmetry_equiv_pos_site_id
 _symmetry_equiv_pos_as_xyz
  1  'x, y, z'
loop_
 _atom_site_type_symbol
 _atom_site_label
 _atom_site_symmetry_multiplicity
 _atom_site_fract_x
 _atom_site_fract_y
 _atom_site_fract_z
 _atom_site_occupancy
 _atom_site_hle17_bader_spin_density
 _atom_site_hle17_ddec_charge
 _atom_site_hle17_ddec_spin_density
 _atom_site_hle17_ddec_sum_bond_order
 _atom_site_hle17_magmom
 _atom_site_hse06_10hf_bader_spin_density
 _atom_site_hse06_10hf_ddec_charge
 _atom_site_hse06_10hf_ddec_spin_density
 _atom_site_hse06_10hf_ddec_sum_bond_order
 _atom_site_hse06_10hf_magmom
 _atom_site_hse06_bader_spin_density
 _atom_site_hse06_ddec_charge
 _atom_site_hse06_ddec_spin_density
 _atom_site_hse06_ddec_sum_bond_order
 _atom_site_hse06_magmom
 _atom_site_pbe_bader_spin_density
 _atom_site_pbe_cm5_charge
 _atom_site_pbe_ddec_charge
 _atom_site_pbe_ddec_spin_density
 _atom_site_pbe_ddec_sum_bond_order
 _atom_site_pbe_magmom
K  K0  1  0.10225445  0.64267356  0.47251660  1  0  0.951518  0  0.410022  0  0  0.910314  0  0.577699  0  0  0.925686  0  0.555525  0  0  0.749039  0.899133  0  0.594072  0
K  K1  1  0.39780195  0.35730343  0.97250618  1  0  0.951514  0  0.410062  0  0  0.910289  0  0.577746  0  0  0.925668  0  0.555563  0  0  0.749003  0.899107  0  0.594116  0
K  K2  1  0.89777716  0.14268428  0.02750681  1  0  0.951498  0  0.410057  0  0  0.910245  0  0.577784  0  0  0.925633  0  0.555589  0  0  0.749023  0.899076  0  0.594145  0
K  K3  1  0.60226473  0.85734069  0.52750011  1  0  0.951513  0  0.410035  0  0  0.91028  0  0.577761  0  0  0.925658  0  0.555583  0  0  0.749046  0.899118  0  0.594114  0
Ho  Ho4  1  0.11291674  0.35320682  0.27540962  1  0  2.264955  0  1.674082  0  0  2.116052  0  2.156096  0  0  2.246755  0  1.957947  0  0  1.556553  2.08096  0  2.185488  0
Ho  Ho5  1  0.38707496  0.64679576  0.77540955  1  0  2.264982  0  1.674015  0  0  2.11612  0  2.155943  0  0  2.246786  0  1.957869  0  0  1.556494  2.081037  0  2.185333  0
Ho  Ho6  1  0.88707733  0.85320179  0.22459194  1  0  2.264988  0  1.673975  0  0  2.116165  0  2.155852  0  0  2.246801  0  1.957828  0  0  1.556514  2.081076  0  2.185243  0
Ho  Ho7  1  0.61291513  0.14679839  0.72459013  1  0  2.26499  0  1.674023  0  0  2.116201  0  2.155857  0  0  2.246795  0  1.957885  0  0  1.556545  2.081111  0  2.185253  0
H  H8  1  0.36109543  0.56362739  0.29451929  1  0  0.436236  0  0.86169  0  0  0.408881  0  0.918939  0  0  0.420118  0  0.902683  0  0  0.297605  0.401266  0  0.930003  0
H  H9  1  0.13890228  0.43636921  0.79451854  1  0  0.436238  0  0.861682  0  0  0.408887  0  0.918923  0  0  0.420122  0  0.902671  0  0  0.297597  0.401273  0  0.929985  0
H  H10  1  0.63889662  0.06361987  0.20548474  1  0  0.436279  0  0.861617  0  0  0.408942  0  0.918847  0  0  0.42018  0  0.902589  0  0  0.297587  0.401327  0  0.929911  0
H  H11  1  0.86109895  0.93637110  0.70548294  1  0  0.436326  0  0.861555  0  0  0.408984  0  0.918782  0  0  0.42022  0  0.902529  0  0  0.297656  0.401368  0  0.929847  0
H  H12  1  0.32979270  0.53766231  0.18529053  1  0  0.45525  0  0.839122  0  0  0.423969  0  0.903103  0  0  0.435291  0  0.886419  0  0  0.306476  0.416133  0  0.91476  0
H  H13  1  0.17020391  0.46233331  0.68528862  1  0  0.455165  0  0.839233  0  0  0.423887  0  0.903215  0  0  0.435209  0  0.886529  0  0  0.306396  0.416052  0  0.914871  0
H  H14  1  0.67019681  0.03766280  0.31471605  1  0  0.455177  0  0.839228  0  0  0.423922  0  0.903156  0  0  0.435244  0  0.886472  0  0  0.306408  0.416087  0  0.914812  0
H  H15  1  0.82978161  0.96233794  0.81471031  1  0  0.455202  0  0.839205  0  0  0.423934  0  0.903167  0  0  0.435256  0  0.886484  0  0  0.306472  0.4161  0  0.914822  0
H  H16  1  0.11338625  0.99868462  0.59408773  1  0  0.123608  0  0.947313  0  0  0.134744  0  1.006593  0  0  0.138809  0  1.003014  0  0  0.12678  0.131801  0  1.009064  0
H  H17  1  0.38660004  0.00131285  0.09408744  1  0  0.12358  0  0.947319  0  0  0.134703  0  1.006614  0  0  0.13878  0  1.003019  0  0  0.126791  0.131761  0  1.009085  0
H  H18  1  0.88662900  0.49868851  0.90590849  1  0  0.123671  0  0.947235  0  0  0.134795  0  1.006535  0  0  0.138869  0  1.002943  0  0  0.12677  0.13185  0  1.009007  0
H  H19  1  0.61340387  0.50131438  0.40590621  1  0  0.123563  0  0.947419  0  0  0.134732  0  1.006671  0  0  0.138764  0  1.003137  0  0  0.126751  0.131792  0  1.009136  0
H  H20  1  0.60906965  0.66570062  0.34417501  1  0  0.424167  0  0.87134  0  0  0.395458  0  0.936008  0  0  0.405433  0  0.921326  0  0  0.305815  0.388385  0  0.946494  0
H  H21  1  0.89092692  0.33430112  0.84417137  1  0  0.424212  0  0.871374  0  0  0.395553  0  0.935923  0  0  0.405527  0  0.92124  0  0  0.305868  0.388472  0  0.946421  0
H  H22  1  0.39092651  0.16570102  0.15582811  1  0  0.424127  0  0.871336  0  0  0.395473  0  0.935991  0  0  0.405446  0  0.921311  0  0  0.30584  0.388394  0  0.946487  0
H  H23  1  0.10907477  0.83429840  0.65582818  1  0  0.424183  0  0.871467  0  0  0.395522  0  0.935971  0  0  0.405497  0  0.921288  0  0  0.305849  0.38844  0  0.946471  0
H  H24  1  0.40739493  0.72654253  0.32951273  1  0  0.42895  0  0.848333  0  0  0.398392  0  0.927192  0  0  0.409704  0  0.910243  0  0  0.309694  0.390398  0  0.937858  0
H  H25  1  0.09259656  0.27345495  0.82950964  1  0  0.428877  0  0.848372  0  0  0.398328  0  0.927262  0  0  0.409639  0  0.910314  0  0  0.309714  0.390336  0  0.937877  0
H  H26  1  0.59259702  0.22654077  0.17049369  1  0  0.428931  0  0.848353  0  0  0.398349  0  0.927273  0  0  0.409667  0  0.910311  0  0  0.309718  0.390354  0  0.937945  0
H  H27  1  0.90740325  0.77345651  0.67048803  1  0  0.42893  0  0.84838  0  0  0.398349  0  0.927279  0  0  0.409665  0  0.910321  0  0  0.309693  0.390357  0  0.937967  0
C  C28  1  0.11413067  0.36224194  0.50476986  1  0  0.644305  0  3.9347  0  0  0.592852  0  4.243636  0  0  0.625118  0  4.239127  0  0  0.213272  0.571114  0  4.247997  0
C  C29  1  0.38587118  0.63775415  0.00478505  1  0  0.644574  0  3.934725  0  0  0.593074  0  4.243735  0  0  0.625346  0  4.239225  0  0  0.213391  0.571334  0  4.248098  0
C  C30  1  0.88585830  0.86224581  0.99521573  1  0  0.644446  0  3.934639  0  0  0.592983  0  4.243637  0  0  0.625245  0  4.239149  0  0  0.213339  0.571249  0  4.247995  0
C  C31  1  0.61412705  0.13775847  0.49523203  1  0  0.644548  0  3.93453  0  0  0.59301  0  4.243564  0  0  0.625278  0  4.239052  0  0  0.213342  0.571274  0  4.247924  0
C  C32  1  0.12030757  0.24252626  0.49004276  1  0  0.085708  0  3.734222  0  0  0.078471  0  3.987205  0  0  0.079625  0  4.008076  0  0  0.117778  0.07733  0  3.975895  0
C  C33  1  0.37967723  0.75747117  0.99004378  1  0  0.085505  0  3.734288  0  0  0.078287  0  3.987263  0  0  0.079426  0  4.008153  0  0  0.117735  0.077146  0  3.975948  0
C  C34  1  0.87967494  0.74252802  0.00995558  1  0  0.08566  0  3.734182  0  0  0.078423  0  3.987151  0  0  0.079565  0  4.008041  0  0  0.117779  0.077276  0  3.97584  0
C  C35  1  0.62030919  0.25747572  0.50995912  1  0  0.085525  0  3.734233  0  0  0.07839  0  3.987125  0  0  0.079544  0  4.007985  0  0  0.117756  0.077244  0  3.975819  0
C  C36  1  0.11890044  0.16702522  0.56398379  1  0  -0.072986  0  3.647017  0  0  -0.061967  0  3.892356  0  0  -0.066791  0  3.907626  0  0  0.017928  -0.05921  0  3.882687  0
C  C37  1  0.38109053  0.83297366  0.06398308  1  0  -0.072891  0  3.647276  0  0  -0.061894  0  3.892527  0  0  -0.066716  0  3.907803  0  0  0.018043  -0.059129  0  3.882846  0
C  C38  1  0.88109839  0.66702791  0.93601344  1  0  -0.073163  0  3.647329  0  0  -0.062093  0  3.892609  0  0  -0.066919  0  3.907884  0  0  0.01793  -0.059319  0  3.882911  0
C  C39  1  0.61890393  0.33297356  0.43601525  1  0  -0.072997  0  3.647192  0  0  -0.062009  0  3.892476  0  0  -0.06683  0  3.907733  0  0  0.017899  -0.059243  0  3.882796  0
C  C40  1  0.11329651  0.05910795  0.53856768  1  0  -0.022053  0  3.607075  0  0  -0.063114  0  3.863067  0  0  -0.058412  0  3.873918  0  0  -0.045285  -0.066036  0  3.855511  0
C  C41  1  0.38669760  0.94088905  0.03856524  1  0  -0.022039  0  3.607106  0  0  -0.063148  0  3.863197  0  0  -0.058455  0  3.874048  0  0  -0.045337  -0.066074  0  3.855642  0
C  C42  1  0.88671658  0.55911170  0.96142843  1  0  -0.022111  0  3.606833  0  0  -0.06321  0  3.862903  0  0  -0.058513  0  3.873749  0  0  -0.045275  -0.06613  0  3.855338  0
C  C43  1  0.61330086  0.44089166  0.46142852  1  0  -0.022151  0  3.607174  0  0  -0.063258  0  3.86318  0  0  -0.058538  0  3.874056  0  0  -0.04529  -0.066183  0  3.855613  0
C  C44  1  0.10714866  0.02790654  0.44308460  1  0  -0.05194  0  3.617313  0  0  -0.037075  0  3.855288  0  0  -0.040112  0  3.867935  0  0  0.023205  -0.035032  0  3.846287  0
C  C45  1  0.39285610  0.97209264  0.94308290  1  0  -0.051877  0  3.617355  0  0  -0.037037  0  3.855284  0  0  -0.040079  0  3.867937  0  0  0.023212  -0.034995  0  3.846282  0
C  C46  1  0.89287299  0.52790568  0.05691289  1  0  -0.051584  0  3.616972  0  0  -0.036779  0  3.854957  0  0  -0.039817  0  3.867601  0  0  0.023232  -0.034745  0  3.845953  0
C  C47  1  0.60714749  0.47209630  0.55691090  1  0  -0.051684  0  3.617086  0  0  -0.036851  0  3.855093  0  0  -0.039889  0  3.867723  0  0  0.023295  -0.034813  0  3.846089  0
C  C48  1  0.11636137  0.10879159  0.37381575  1  0  0.113308  0  3.685629  0  0  0.107482  0  3.930591  0  0  0.110487  0  3.947142  0  0  0.1322  0.105198  0  3.921599  0
C  C49  1  0.38363909  0.89120499  0.87381179  1  0  0.113166  0  3.685661  0  0  0.107395  0  3.930549  0  0  0.110393  0  3.947111  0  0  0.132218  0.105115  0  3.921535  0
C  C50  1  0.88364503  0.60879097  0.12618472  1  0  0.113216  0  3.685203  0  0  0.107398  0  3.93023  0  0  0.1104  0  3.946784  0  0  0.132232  0.105123  0  3.921221  0
C  C51  1  0.61635541  0.39121360  0.62618472  1  0  0.113338  0  3.685528  0  0  0.107496  0  3.930472  0  0  0.110504  0  3.947023  0  0  0.132199  0.105223  0  3.921462  0
C  C52  1  0.12935390  0.08915097  0.26819779  1  0  0.693252  0  3.844846  0  0  0.64086  0  4.144572  0  0  0.677154  0  4.134552  0  0  0.23832  0.616652  0  4.153893  0
C  C53  1  0.37063783  0.91086215  0.76819140  1  0  0.693242  0  3.844692  0  0  0.640875  0  4.144345  0  0  0.67716  0  4.134337  0  0  0.238409  0.616673  0  4.153653  0
C  C54  1  0.87064223  0.58913628  0.23180442  1  0  0.693296  0  3.844455  0  0  0.640864  0  4.144266  0  0  0.677153  0  4.134254  0  0  0.238376  0.61666  0  4.15358  0
C  C55  1  0.62934868  0.41085895  0.73180408  1  0  0.693127  0  3.845149  0  0  0.640853  0  4.144685  0  0  0.677143  0  4.134668  0  0  0.238363  0.616645  0  4.154001  0
C  C56  1  0.11910846  0.19525539  0.66833118  1  0  0.76139  0  3.827752  0  0  0.710405  0  4.121363  0  0  0.749274  0  4.108944  0  0  0.248794  0.684319  0  4.131504  0
C  C57  1  0.38088364  0.80474537  0.16832879  1  0  0.761282  0  3.828543  0  0  0.710449  0  4.121876  0  0  0.749323  0  4.109453  0  0  0.248732  0.684356  0  4.132026  0
C  C58  1  0.88088525  0.69525621  0.83166915  1  0  0.761439  0  3.828476  0  0  0.710434  0  4.122088  0  0  0.749308  0  4.109671  0  0  0.24873  0.684334  0  4.132229  0
C  C59  1  0.61910985  0.30474259  0.33166857  1  0  0.76135  0  3.828134  0  0  0.710404  0  4.121657  0  0  0.749278  0  4.109237  0  0  0.248758  0.68431  0  4.1318  0
C  C60  1  0.09271293  0.90978831  0.42190673  1  0  0.708496  0  3.927506  0  0  0.65527  0  4.23645  0  0  0.689746  0  4.228439  0  0  0.218525  0.631159  0  4.245068  0
C  C61  1  0.40730713  0.09020330  0.92190127  1  0  0.708399  0  3.92739  0  0  0.655214  0  4.23627  0  0  0.6897  0  4.228238  0  0  0.218464  0.631107  0  4.244885  0
C  C62  1  0.90732570  0.40979316  0.07809179  1  0  0.707902  0  3.928439  0  0  0.654841  0  4.2371  0  0  0.689325  0  4.229085  0  0  0.218332  0.630735  0  4.245707  0
C  C63  1  0.59271297  0.59021239  0.57809220  1  0  0.708449  0  3.92734  0  0  0.655274  0  4.236207  0  0  0.689767  0  4.228157  0  0  0.218516  0.631164  0  4.24482  0
N  N64  1  0.12260148  0.21199739  0.39881362  1  0  -0.422232  0  3.37809  0  0  -0.380341  0  3.6418  0  0  -0.401138  0  3.663641  0  0  -0.387563  -0.372337  0  3.628927  0
N  N65  1  0.37738519  0.78800108  0.89881345  1  0  -0.422104  0  3.378212  0  0  -0.380255  0  3.641921  0  0  -0.401041  0  3.663765  0  0  -0.387639  -0.372247  0  3.629041  0
N  N66  1  0.87738466  0.71199732  0.10118521  1  0  -0.42223  0  3.378136  0  0  -0.380356  0  3.641878  0  0  -0.401139  0  3.663724  0  0  -0.387644  -0.372355  0  3.629004  0
N  N67  1  0.62260218  0.28800697  0.60118826  1  0  -0.422237  0  3.378011  0  0  -0.380387  0  3.641695  0  0  -0.401169  0  3.663529  0  0  -0.387608  -0.372388  0  3.628825  0
O  O68  1  0.12124801  0.41953213  0.42857182  1  0  -0.781244  0  2.059544  0  0  -0.734692  0  2.327431  0  0  -0.772334  0  2.315806  0  0  -0.45264  -0.716691  0  2.332815  0
O  O69  1  0.37875529  0.58046655  0.92857494  1  0  -0.781432  0  2.059184  0  0  -0.73485  0  2.327014  0  0  -0.772494  0  2.31538  0  0  -0.452675  -0.716847  0  2.332403  0
O  O70  1  0.87873565  0.91953105  0.07142869  1  0  -0.7814  0  2.059089  0  0  -0.734775  0  2.326832  0  0  -0.77241  0  2.315201  0  0  -0.452715  -0.716779  0  2.332224  0
O  O71  1  0.62124521  0.08046584  0.57142580  1  0  -0.781236  0  2.059623  0  0  -0.734683  0  2.327563  0  0  -0.772312  0  2.315944  0  0  -0.452609  -0.716689  0  2.33295  0
O  O72  1  0.09824041  0.39740801  0.58758071  1  0  -0.586286  0  1.981093  0  0  -0.537873  0  2.208727  0  0  -0.559758  0  2.199816  0  0  -0.294755  -0.521882  0  2.213471  0
O  O73  1  0.40175656  0.60258559  0.08758008  1  0  -0.586316  0  1.981653  0  0  -0.537853  0  2.209271  0  0  -0.559706  0  2.200294  0  0  -0.294737  -0.521865  0  2.214015  0
O  O74  1  0.90174332  0.89741828  0.91242282  1  0  -0.58618  0  1.981568  0  0  -0.537824  0  2.20928  0  0  -0.559674  0  2.2003  0  0  -0.294713  -0.521835  0  2.214025  0
O  O75  1  0.59824235  0.10259088  0.41241551  1  0  -0.586399  0  1.980897  0  0  -0.53798  0  2.208575  0  0  -0.559857  0  2.199637  0  0  -0.294825  -0.521986  0  2.213319  0
O  O76  1  0.28630913  0.21518970  0.70945196  1  0  -0.717994  0  2.049775  0  0  -0.669613  0  2.30907  0  0  -0.708195  0  2.293693  0  0  -0.38072  -0.649912  0  2.315852  0
O  O77  1  0.21367977  0.78481342  0.20944933  1  0  -0.717879  0  2.049854  0  0  -0.669585  0  2.309133  0  0  -0.708181  0  2.293752  0  0  -0.380702  -0.649883  0  2.315915  0
O  O78  1  0.71367507  0.71518984  0.79055233  1  0  -0.717921  0  2.049793  0  0  -0.669494  0  2.309021  0  0  -0.708091  0  2.293638  0  0  -0.380661  -0.649842  0  2.315929  0
O  O79  1  0.78631714  0.28480979  0.29055190  1  0  -0.717924  0  2.049878  0  0  -0.669521  0  2.309124  0  0  -0.708125  0  2.293739  0  0  -0.380685  -0.649825  0  2.315918  0
O  O80  1  0.95016704  0.19223601  0.71125370  1  0  -0.732426  0  2.090684  0  0  -0.677181  0  2.347534  0  0  -0.717103  0  2.331102  0  0  -0.385824  -0.657079  0  2.354819  0
O  O81  1  0.54982547  0.80776284  0.21125086  1  0  -0.732424  0  2.090982  0  0  -0.677221  0  2.347729  0  0  -0.717151  0  2.331294  0  0  -0.385808  -0.657117  0  2.355018  0
O  O82  1  0.04981761  0.69223169  0.78874313  1  0  -0.732474  0  2.091067  0  0  -0.677208  0  2.347915  0  0  -0.717144  0  2.331483  0  0  -0.38582  -0.657101  0  2.355208  0
O  O83  1  0.45016795  0.30776102  0.28874715  1  0  -0.732429  0  2.090819  0  0  -0.677168  0  2.347629  0  0  -0.717109  0  2.331188  0  0  -0.385799  -0.657063  0  2.354915  0
O  O84  1  0.23932206  0.85211356  0.44556134  1  0  -0.671075  0  1.954153  0  0  -0.632654  0  2.198231  0  0  -0.655701  0  2.186807  0  0  -0.432767  -0.615959  0  2.206028  0
O  O85  1  0.26068422  0.14788397  0.94555226  1  0  -0.67116  0  1.953601  0  0  -0.63274  0  2.197651  0  0  -0.6558  0  2.186222  0  0  -0.432871  -0.616043  0  2.20545  0
O  O86  1  0.76071008  0.35211326  0.05443526  1  0  -0.670919  0  1.954047  0  0  -0.632531  0  2.198004  0  0  -0.65559  0  2.186584  0  0  -0.43274  -0.615835  0  2.205797  0
O  O87  1  0.73932259  0.64788957  0.55444314  1  0  -0.671029  0  1.954055  0  0  -0.632631  0  2.19812  0  0  -0.655683  0  2.18668  0  0  -0.432774  -0.615934  0  2.205918  0
O  O88  1  0.92383892  0.87538659  0.38618838  1  0  -0.808721  0  2.007553  0  0  -0.757691  0  2.270441  0  0  -0.79542  0  2.253507  0  0  -0.463017  -0.739581  0  2.279909  0
O  O89  1  0.57617576  0.12460551  0.88618625  1  0  -0.808589  0  2.007763  0  0  -0.75756  0  2.270607  0  0  -0.795289  0  2.25367  0  0  -0.462909  -0.739449  0  2.280069  0
O  O90  1  0.07618972  0.37539350  0.11381354  1  0  -0.80849  0  2.008234  0  0  -0.757494  0  2.271026  0  0  -0.79524  0  2.254085  0  0  -0.46295  -0.739383  0  2.280483  0
O  O91  1  0.42383911  0.62461237  0.61381236  1  0  -0.808755  0  2.00758  0  0  -0.757736  0  2.270446  0  0  -0.795473  0  2.253494  0  0  -0.463028  -0.739623  0  2.279909  0
O  O92  1  0.13183954  0.99448778  0.23762406  1  0  -0.694624  0  2.056481  0  0  -0.643443  0  2.309553  0  0  -0.678545  0  2.295977  0  0  -0.364002  -0.626051  0  2.315948  0
O  O93  1  0.36814773  0.00551238  0.73762211  1  0  -0.694509  0  2.056764  0  0  -0.643355  0  2.309845  0  0  -0.678444  0  2.296276  0  0  -0.364026  -0.62597  0  2.316243  0
O  O94  1  0.86814571  0.49448669  0.26237526  1  0  -0.694505  0  2.056696  0  0  -0.643316  0  2.30984  0  0  -0.678417  0  2.296259  0  0  -0.36401  -0.62593  0  2.316235  0
O  O95  1  0.63184965  0.50552152  0.76237840  1  0  -0.694465  0  2.056608  0  0  -0.643322  0  2.309626  0  0  -0.678427  0  2.296053  0  0  -0.363986  -0.625925  0  2.316026  0
O  O96  1  0.14393720  0.17235839  0.21490398  1  0  -0.739935  0  2.044121  0  0  -0.687532  0  2.294468  0  0  -0.720464  0  2.277685  0  0  -0.380322  -0.671476  0  2.303707  0
O  O97  1  0.35605320  0.82764542  0.71489324  1  0  -0.740005  0  2.043703  0  0  -0.687612  0  2.294003  0  0  -0.720557  0  2.277259  0  0  -0.380336  -0.671548  0  2.303237  0
O  O98  1  0.85606340  0.67235309  0.28510259  1  0  -0.74013  0  2.04366  0  0  -0.687698  0  2.293985  0  0  -0.720636  0  2.277239  0  0  -0.380391  -0.671641  0  2.303218  0
O  O99  1  0.64392578  0.32764985  0.78509716  1  0  -0.740101  0  2.044372  0  0  -0.687749  0  2.294634  0  0  -0.720684  0  2.277901  0  0  -0.380418  -0.671689  0  2.303871  0
O  O100  1  0.29736346  0.51141154  0.25010938  1  0  -0.940995  0  1.863805  0  0  -0.890348  0  2.060027  0  0  -0.920682  0  2.021644  0  0  -0.659315  -0.876798  0  2.082152  0
O  O101  1  0.20263442  0.48858596  0.75010561  1  0  -0.940932  0  1.863861  0  0  -0.890277  0  2.060041  0  0  -0.920611  0  2.021685  0  0  -0.659217  -0.876729  0  2.082162  0
O  O102  1  0.70262199  0.01140599  0.24989975  1  0  -0.940974  0  1.863802  0  0  -0.890338  0  2.059949  0  0  -0.920676  0  2.0216  0  0  -0.659239  -0.87679  0  2.082073  0
O  O103  1  0.79736429  0.98858808  0.74989006  1  0  -0.941053  0  1.863755  0  0  -0.890437  0  2.059979  0  0  -0.92074  0  2.021569  0  0  -0.659355  -0.876884  0  2.082105  0
O  O104  1  0.46396005  0.66441877  0.36336480  1  0  -0.848572  0  1.840699  0  0  -0.799617  0  2.019635  0  0  -0.818484  0  1.988279  0  0  -0.615697  -0.785799  0  2.039655  0
O  O105  1  0.03603740  0.33558043  0.86336078  1  0  -0.848552  0  1.840807  0  0  -0.799669  0  2.019572  0  0  -0.818538  0  1.988224  0  0  -0.615749  -0.785848  0  2.039553  0
O  O106  1  0.53603919  0.16441799  0.13663905  1  0  -0.84857  0  1.840673  0  0  -0.799684  0  2.019526  0  0  -0.81856  0  1.988175  0  0  -0.61577  -0.785863  0  2.039551  0
O  O107  1  0.96396578  0.83557997  0.63663661  1  0  -0.848651  0  1.840911  0  0  -0.799743  0  2.019604  0  0  -0.818619  0  1.988252  0  0  -0.615788  -0.785923  0  2.039646  0
