# generated using pymatgen
data_CuH6(C3N)3
_symmetry_space_group_name_H-M   'P 1'
_cell_length_a   7.86279109
_cell_length_b   7.89776645
_cell_length_c   15.90661132
_cell_angle_alpha   85.00750184
_cell_angle_beta   79.87180090
_cell_angle_gamma   60.09350470
_symmetry_Int_Tables_number   1
_chemical_formula_structural   CuH6(C3N)3
_chemical_formula_sum   'Cu4 H24 C36 N12'
_cell_volume   842.90110157
_cell_formula_units_Z   4
loop_
 _symmetry_equiv_pos_site_id
 _symmetry_equiv_pos_as_xyz
  1  'x, y, z'
loop_
 _atom_site_type_symbol
 _atom_site_label
 _atom_site_symmetry_multiplicity
 _atom_site_fract_x
 _atom_site_fract_y
 _atom_site_fract_z
 _atom_site_occupancy
 _atom_site_hle17_bader_spin_density
 _atom_site_hle17_ddec_charge
 _atom_site_hle17_ddec_spin_density
 _atom_site_hle17_ddec_sum_bond_order
 _atom_site_hle17_magmom
 _atom_site_hse06_10hf_bader_spin_density
 _atom_site_hse06_10hf_ddec_charge
 _atom_site_hse06_10hf_ddec_spin_density
 _atom_site_hse06_10hf_ddec_sum_bond_order
 _atom_site_hse06_10hf_magmom
 _atom_site_hse06_bader_spin_density
 _atom_site_hse06_ddec_charge
 _atom_site_hse06_ddec_spin_density
 _atom_site_hse06_ddec_sum_bond_order
 _atom_site_hse06_magmom
 _atom_site_pbe_bader_spin_density
 _atom_site_pbe_cm5_charge
 _atom_site_pbe_ddec_charge
 _atom_site_pbe_ddec_spin_density
 _atom_site_pbe_ddec_sum_bond_order
 _atom_site_pbe_magmom
Cu  Cu0  1  0.92952746  0.81942952  0.82997364  1  0  0.579746  0  2.03701  0  0  0.467605  0  2.556212  0  0  0.465067  0  2.50559  0  0  0.611609  0.472231  0  2.58898  0
Cu  Cu1  1  0.25068803  0.81947399  0.67008146  1  0  0.579741  0  2.035748  0  0  0.467479  0  2.555081  0  0  0.46496  0  2.50441  0  0  0.611345  0.47219  0  2.587397  0
Cu  Cu2  1  0.07048614  0.18055246  0.17002327  1  0  0.579704  0  2.037256  0  0  0.467573  0  2.556508  0  0  0.465028  0  2.505889  0  0  0.611551  0.472196  0  2.58915  0
Cu  Cu3  1  0.74929886  0.18053283  0.32991774  1  0  0.579761  0  2.035515  0  0  0.467522  0  2.554853  0  0  0.464971  0  2.504124  0  0  0.611355  0.472232  0  2.587204  0
H  H4  1  0.38506414  0.35471554  0.49686220  1  0  0.07883  0  0.98073  0  0  0.090518  0  1.045618  0  0  0.092746  0  1.044844  0  0  0.0915  0.089  0  1.04612  0
H  H5  1  0.26010805  0.35480475  0.00319395  1  0  0.078673  0  0.981101  0  0  0.090462  0  1.045847  0  0  0.092744  0  1.045004  0  0  0.09136  0.088861  0  1.046487  0
H  H6  1  0.61491912  0.64530005  0.50314512  1  0  0.078848  0  0.980673  0  0  0.090533  0  1.045564  0  0  0.092766  0  1.044791  0  0  0.091523  0.089014  0  1.046064  0
H  H7  1  0.73991310  0.64517723  0.99680556  1  0  0.078627  0  0.980988  0  0  0.090474  0  1.045688  0  0  0.092733  0  1.044876  0  0  0.09138  0.088876  0  1.046323  0
H  H8  1  0.66337511  0.79389447  0.61987758  1  0  0.09237  0  0.954447  0  0  0.106593  0  1.010309  0  0  0.109476  0  1.008523  0  0  0.097806  0.104533  0  1.011673  0
H  H9  1  0.54301362  0.79379703  0.88004945  1  0  0.09242  0  0.954682  0  0  0.106546  0  1.010609  0  0  0.109428  0  1.008819  0  0  0.097745  0.104455  0  1.012028  0
H  H10  1  0.33661177  0.20612696  0.38012801  1  0  0.092294  0  0.954384  0  0  0.106465  0  1.010329  0  0  0.109348  0  1.008545  0  0  0.097762  0.104422  0  1.011671  0
H  H11  1  0.45700509  0.20620247  0.11995150  1  0  0.092421  0  0.954703  0  0  0.106529  0  1.01064  0  0  0.109411  0  1.008851  0  0  0.097735  0.104437  0  1.012055  0
H  H12  1  0.15936904  0.65690425  0.96646256  1  0  0.086952  0  0.957758  0  0  0.096961  0  1.020778  0  0  0.099013  0  1.019845  0  0  0.116042  0.0953  0  1.021886  0
H  H13  1  0.18375128  0.65697688  0.53348413  1  0  0.086803  0  0.957996  0  0  0.096966  0  1.020865  0  0  0.099089  0  1.019854  0  0  0.116034  0.095222  0  1.022056  0
H  H14  1  0.84063092  0.34309234  0.03353292  1  0  0.086984  0  0.957823  0  0  0.097049  0  1.020775  0  0  0.099102  0  1.019837  0  0  0.116064  0.095344  0  1.021926  0
H  H15  1  0.81623533  0.34302556  0.46651335  1  0  0.086904  0  0.957896  0  0  0.097067  0  1.020746  0  0  0.099177  0  1.019749  0  0  0.116048  0.095326  0  1.021935  0
H  H16  1  0.83973907  0.26658820  0.82268807  1  0  0.126137  0  0.948197  0  0  0.148923  0  1.00601  0  0  0.149793  0  1.006331  0  0  0.098975  0.147934  0  1.006129  0
H  H17  1  0.89341479  0.26686447  0.67738123  1  0  0.126036  0  0.948341  0  0  0.148921  0  1.005995  0  0  0.149795  0  1.006315  0  0  0.098929  0.147954  0  1.006094  0
H  H18  1  0.16025652  0.73342446  0.17731029  1  0  0.126189  0  0.948155  0  0  0.148931  0  1.006025  0  0  0.149802  0  1.006346  0  0  0.098978  0.147944  0  1.006141  0
H  H19  1  0.10657354  0.73313212  0.32261508  1  0  0.12599  0  0.948298  0  0  0.148843  0  1.005998  0  0  0.149716  0  1.006317  0  0  0.09892  0.147895  0  1.006079  0
H  H20  1  0.68158023  0.42361426  0.91048896  1  0  0.121085  0  0.940533  0  0  0.145884  0  0.99368  0  0  0.146565  0  0.994231  0  0  0.096709  0.145269  0  0.993387  0
H  H21  1  0.89445900  0.42363310  0.58960761  1  0  0.121599  0  0.940265  0  0  0.146357  0  0.993471  0  0  0.147044  0  0.994011  0  0  0.096877  0.145712  0  0.99321  0
H  H22  1  0.31841854  0.57638671  0.08951085  1  0  0.121057  0  0.940539  0  0  0.145853  0  0.993682  0  0  0.146534  0  0.994235  0  0  0.096698  0.145235  0  0.993395  0
H  H23  1  0.10552831  0.57636495  0.41039312  1  0  0.12157  0  0.94029  0  0  0.14635  0  0.993467  0  0  0.147035  0  0.994009  0  0  0.096906  0.145707  0  0.993206  0
H  H24  1  0.63511960  0.24308506  0.87592830  1  0  0.132077  0  0.958594  0  0  0.15204  0  1.018791  0  0  0.152941  0  1.0199  0  0  0.098061  0.151116  0  1.01823  0
H  H25  1  0.12170040  0.24302315  0.62409130  1  0  0.131984  0  0.958541  0  0  0.152183  0  1.018489  0  0  0.153081  0  1.019602  0  0  0.098067  0.151256  0  1.01792  0
H  H26  1  0.36488402  0.75691737  0.12406482  1  0  0.132022  0  0.958652  0  0  0.152007  0  1.018817  0  0  0.152909  0  1.019926  0  0  0.098002  0.151084  0  1.018254  0
H  H27  1  0.87828950  0.75697491  0.37590925  1  0  0.132008  0  0.958606  0  0  0.152241  0  1.018517  0  0  0.153138  0  1.019629  0  0  0.098125  0.151314  0  1.017951  0
C  C28  1  0.43356317  0.19893331  0.49936596  1  0  -0.139025  0  3.793075  0  0  -0.157141  0  4.048593  0  0  -0.159144  0  4.067193  0  0  -0.109281  -0.155393  0  4.035504  0
C  C29  1  0.36746530  0.19899070  0.00066394  1  0  -0.138577  0  3.793021  0  0  -0.156737  0  4.048274  0  0  -0.158799  0  4.066888  0  0  -0.109005  -0.15506  0  4.035437  0
C  C30  1  0.56643736  0.80108665  0.50063871  1  0  -0.139001  0  3.793144  0  0  -0.157149  0  4.048636  0  0  -0.159161  0  4.067253  0  0  -0.109317  -0.155396  0  4.035536  0
C  C31  1  0.63254605  0.80100296  0.99933712  1  0  -0.13865  0  3.792994  0  0  -0.156869  0  4.048296  0  0  -0.158912  0  4.066925  0  0  -0.109103  -0.155196  0  4.035456  0
C  C32  1  0.59188627  0.88517134  0.56729584  1  0  -0.137799  0  3.784842  0  0  -0.155549  0  4.040167  0  0  -0.156448  0  4.057493  0  0  -0.107465  -0.154925  0  4.028299  0
C  C33  1  0.52313810  0.88511605  0.93264811  1  0  -0.138003  0  3.785246  0  0  -0.155665  0  4.040582  0  0  -0.156551  0  4.057899  0  0  -0.107633  -0.154989  0  4.028914  0
C  C34  1  0.40809880  0.11484571  0.43271193  1  0  -0.137705  0  3.784912  0  0  -0.155417  0  4.040162  0  0  -0.156311  0  4.057483  0  0  -0.107454  -0.154805  0  4.028282  0
C  C35  1  0.47687483  0.11487178  0.06735367  1  0  -0.138155  0  3.78544  0  0  -0.15578  0  4.040722  0  0  -0.156661  0  4.058045  0  0  -0.107739  -0.155103  0  4.029046  0
C  C36  1  0.55196745  0.17636035  0.63845943  1  0  -0.249245  0  4.012182  0  0  -0.228634  0  4.257485  0  0  -0.245513  0  4.282698  0  0  -0.060028  -0.216095  0  4.239007  0
C  C37  1  0.27183559  0.17637108  0.86152792  1  0  -0.248718  0  4.011723  0  0  -0.228403  0  4.257337  0  0  -0.245164  0  4.282427  0  0  -0.060157  -0.216184  0  4.239208  0
C  C38  1  0.44803433  0.82365960  0.36154578  1  0  -0.249145  0  4.012312  0  0  -0.228625  0  4.257668  0  0  -0.245474  0  4.282847  0  0  -0.060008  -0.216083  0  4.239162  0
C  C39  1  0.72817894  0.82361090  0.13847459  1  0  -0.248454  0  4.011476  0  0  -0.22834  0  4.257317  0  0  -0.245102  0  4.282406  0  0  -0.060144  -0.21613  0  4.239173  0
C  C40  1  0.08811281  0.81164756  0.98181165  1  0  0.032849  0  3.647919  0  0  -0.002965  0  3.899117  0  0  -0.001341  0  3.91565  0  0  0.048823  -0.004809  0  3.889631  0
C  C41  1  0.10027046  0.81169867  0.51816158  1  0  0.03299  0  3.648285  0  0  -0.002969  0  3.899573  0  0  -0.001438  0  3.916077  0  0  0.048856  -0.004786  0  3.890174  0
C  C42  1  0.91189050  0.18834756  0.01818301  1  0  0.032785  0  3.647991  0  0  -0.003066  0  3.899159  0  0  -0.001435  0  3.915696  0  0  0.048812  -0.004879  0  3.889689  0
C  C43  1  0.89972395  0.18830376  0.48183472  1  0  0.032732  0  3.648326  0  0  -0.003224  0  3.899678  0  0  -0.001685  0  3.91618  0  0  0.048789  -0.005045  0  3.890289  0
C  C44  1  0.66990496  0.06365324  0.69895451  1  0  0.329094  0  3.871282  0  0  0.306764  0  4.136699  0  0  0.320922  0  4.15665  0  0  0.177007  0.297258  0  4.122688  0
C  C45  1  0.26652449  0.06363906  0.80105801  1  0  0.328809  0  3.870665  0  0  0.306592  0  4.13608  0  0  0.320698  0  4.156037  0  0  0.177076  0.297308  0  4.121983  0
C  C46  1  0.33010494  0.93633459  0.30105440  1  0  0.328933  0  3.871158  0  0  0.306625  0  4.136588  0  0  0.32077  0  4.156549  0  0  0.176921  0.297115  0  4.12252  0
C  C47  1  0.73350449  0.93632685  0.19894466  1  0  0.328694  0  3.870514  0  0  0.306543  0  4.135962  0  0  0.320649  0  4.155907  0  0  0.176994  0.297256  0  4.121873  0
C  C48  1  0.52545059  0.08691900  0.56835445  1  0  0.086778  0  3.852131  0  0  0.093964  0  4.090499  0  0  0.09656  0  4.11561  0  0  -0.020317  0.092302  0  4.072954  0
C  C49  1  0.38770608  0.08693408  0.93163428  1  0  0.086342  0  3.852826  0  0  0.093637  0  4.091151  0  0  0.096194  0  4.116255  0  0  -0.020501  0.091874  0  4.073777  0
C  C50  1  0.47454654  0.91310242  0.43165167  1  0  0.086679  0  3.852823  0  0  0.09398  0  4.091048  0  0  0.096564  0  4.116162  0  0  -0.020228  0.092318  0  4.073499  0
C  C51  1  0.61231116  0.91305812  0.06836641  1  0  0.086267  0  3.852593  0  0  0.093638  0  4.090911  0  0  0.09619  0  4.116009  0  0  -0.020483  0.09188  0  4.073533  0
C  C52  1  0.46233004  0.37746036  0.64736703  1  0  0.320476  0  3.870299  0  0  0.304953  0  4.126439  0  0  0.319108  0  4.146139  0  0  0.176061  0.295412  0  4.112528  0
C  C53  1  0.16022780  0.37748097  0.85263077  1  0  0.320544  0  3.870085  0  0  0.305141  0  4.126233  0  0  0.31925  0  4.145884  0  0  0.176345  0.29557  0  4.112637  0
C  C54  1  0.53767628  0.62253769  0.35263800  1  0  0.320596  0  3.87008  0  0  0.3051  0  4.126221  0  0  0.31924  0  4.1459  0  0  0.176166  0.295555  0  4.112319  0
C  C55  1  0.83976527  0.62252438  0.14736363  1  0  0.320345  0  3.869731  0  0  0.305007  0  4.125949  0  0  0.319116  0  4.145611  0  0  0.176209  0.295435  0  4.112305  0
C  C56  1  0.88016051  0.12967937  0.94496382  1  0  0.261873  0  3.71746  0  0  0.268405  0  3.966455  0  0  0.27214  0  3.987261  0  0  0.124144  0.265219  0  3.953448  0
C  C57  1  0.99001115  0.12971081  0.55507056  1  0  0.2622  0  3.717783  0  0  0.268773  0  3.966889  0  0  0.272492  0  3.987692  0  0  0.124213  0.265545  0  3.953943  0
C  C58  1  0.11984948  0.87031283  0.05502984  1  0  0.261872  0  3.71745  0  0  0.268384  0  3.966469  0  0  0.272127  0  3.987277  0  0  0.124079  0.265197  0  3.953473  0
C  C59  1  0.00997439  0.87028871  0.44492647  1  0  0.262023  0  3.71771  0  0  0.268636  0  3.966815  0  0  0.272352  0  3.98762  0  0  0.124164  0.26541  0  3.953872  0
C  C60  1  0.75126779  0.27475028  0.88553481  1  0  -0.372065  0  3.702729  0  0  -0.454741  0  3.932586  0  0  -0.457035  0  3.941506  0  0  -0.236772  -0.452626  0  3.926905  0
C  C61  1  0.97377141  0.27481376  0.61451951  1  0  -0.372568  0  3.70322  0  0  -0.455393  0  3.932947  0  0  -0.457732  0  3.941936  0  0  -0.236847  -0.453238  0  3.927243  0
C  C62  1  0.24872434  0.72525946  0.11446013  1  0  -0.372098  0  3.703085  0  0  -0.454723  0  3.932937  0  0  -0.457018  0  3.941857  0  0  -0.236691  -0.452604  0  3.927233  0
C  C63  1  0.02621866  0.72518429  0.38547851  1  0  -0.372499  0  3.703236  0  0  -0.45536  0  3.933034  0  0  -0.457694  0  3.942021  0  0  -0.236933  -0.453231  0  3.927317  0
N  N64  1  0.97041778  0.93644900  0.92717619  1  0  -0.294652  0  3.310533  0  0  -0.227507  0  3.594586  0  0  -0.233282  0  3.601124  0  0  -0.336572  -0.224813  0  3.591539  0
N  N65  1  0.09302698  0.93651595  0.57283729  1  0  -0.294939  0  3.310998  0  0  -0.227872  0  3.595353  0  0  -0.233564  0  3.601814  0  0  -0.336795  -0.225233  0  3.592335  0
N  N66  1  0.02958257  0.06355197  0.07281911  1  0  -0.294621  0  3.310227  0  0  -0.227507  0  3.594376  0  0  -0.233305  0  3.600936  0  0  -0.336547  -0.224813  0  3.591282  0
N  N67  1  0.90696012  0.06348795  0.42716136  1  0  -0.294858  0  3.310916  0  0  -0.227842  0  3.595309  0  0  -0.233521  0  3.601735  0  0  -0.336784  -0.225205  0  3.592303  0
N  N68  1  0.77498641  0.96630422  0.74868296  1  0  -0.533188  0  3.200945  0  0  -0.484796  0  3.566977  0  0  -0.491492  0  3.557522  0  0  -0.436996  -0.480804  0  3.573262  0
N  N69  1  0.25859897  0.96637353  0.75133945  1  0  -0.532844  0  3.199337  0  0  -0.48444  0  3.565206  0  0  -0.491162  0  3.555799  0  0  -0.436942  -0.480621  0  3.571134  0
N  N70  1  0.22501593  0.03369236  0.25131549  1  0  -0.533251  0  3.200462  0  0  -0.484848  0  3.566498  0  0  -0.491542  0  3.557049  0  0  -0.437037  -0.480841  0  3.572671  0
N  N71  1  0.74139645  0.03361576  0.24866353  1  0  -0.532758  0  3.199391  0  0  -0.484365  0  3.565256  0  0  -0.491065  0  3.555805  0  0  -0.436813  -0.480548  0  3.571206  0
N  N72  1  0.38739457  0.54830425  0.65453801  1  0  -0.522227  0  3.145868  0  0  -0.471243  0  3.486681  0  0  -0.480046  0  3.481181  0  0  -0.428821  -0.465681  0  3.489828  0
N  N73  1  0.06438652  0.54829123  0.84542827  1  0  -0.522243  0  3.146689  0  0  -0.471318  0  3.487486  0  0  -0.480095  0  3.481954  0  0  -0.429287  -0.465972  0  3.491117  0
N  N74  1  0.61259690  0.45171863  0.34546469  1  0  -0.522183  0  3.146098  0  0  -0.471219  0  3.486899  0  0  -0.480002  0  3.481359  0  0  -0.428839  -0.465662  0  3.49007  0
N  N75  1  0.93563688  0.45168198  0.15456448  1  0  -0.52224  0  3.145936  0  0  -0.471313  0  3.486717  0  0  -0.480091  0  3.4812  0  0  -0.429225  -0.465943  0  3.490225  0
