# generated using pymatgen
data_CuH9C7N3O4
_symmetry_space_group_name_H-M   'P 1'
_cell_length_a   7.37901198
_cell_length_b   9.65776404
_cell_length_c   16.11367399
_cell_angle_alpha   89.99974927
_cell_angle_beta   90.00032663
_cell_angle_gamma   90.00012227
_symmetry_Int_Tables_number   1
_chemical_formula_structural   CuH9C7N3O4
_chemical_formula_sum   'Cu4 H36 C28 N12 O16'
_cell_volume   1148.33705306
_cell_formula_units_Z   4
loop_
 _symmetry_equiv_pos_site_id
 _symmetry_equiv_pos_as_xyz
  1  'x, y, z'
loop_
 _atom_site_type_symbol
 _atom_site_label
 _atom_site_symmetry_multiplicity
 _atom_site_fract_x
 _atom_site_fract_y
 _atom_site_fract_z
 _atom_site_occupancy
 _atom_site_hle17_ddec_charge
 _atom_site_hle17_ddec_spin_density
 _atom_site_hle17_ddec_sum_bond_order
 _atom_site_hle17_magmom
 _atom_site_hse06_10hf_ddec_charge
 _atom_site_hse06_10hf_ddec_spin_density
 _atom_site_hse06_10hf_ddec_sum_bond_order
 _atom_site_hse06_10hf_magmom
 _atom_site_hse06_ddec_charge
 _atom_site_hse06_ddec_spin_density
 _atom_site_hse06_ddec_sum_bond_order
 _atom_site_hse06_magmom
 _atom_site_pbe_cm5_charge
 _atom_site_pbe_ddec_charge
 _atom_site_pbe_ddec_spin_density
 _atom_site_pbe_ddec_sum_bond_order
 _atom_site_pbe_magmom
Cu  Cu0  1  0.74859974  0.83941134  0.83476109  1  0.865938  0.685568  1.799982  0.516  0.838605  0.775313  2.200185  0.63  0.930154  0.835573  2.126833  0.71  0.726261  0.781025  0.735553  2.253077  0.58
Cu  Cu1  1  0.25140247  0.66058978  0.33475987  1  0.865922  0.68556  1.799953  0.516  0.838603  0.775306  2.200161  0.629  0.93014  0.835566  2.126798  0.71  0.726242  0.781018  0.735544  2.253054  0.58
Cu  Cu2  1  0.75140153  0.33940675  0.16523846  1  0.865824  0.68554  1.800037  0.516  0.838537  0.775293  2.200176  0.629  0.929965  0.83555  2.1269  0.71  0.726212  0.780944  0.735532  2.253069  0.58
Cu  Cu3  1  0.24859724  0.16059395  0.66523947  1  0.865853  0.685533  1.799943  0.516  0.838506  0.775256  2.20008  0.629  0.930012  0.835545  2.126778  0.71  0.726223  0.780975  0.735529  2.252977  0.58
H  H4  1  0.70816270  0.23111414  0.84769061  1  0.070773  0.002517  0.932277  0.003  0.076392  0.001814  0.999218  0.002  0.077734  0.001298  0.99927  0.001  0.111191  0.075665  0.002315  0.998994  0.002
H  H5  1  0.29183833  0.26888419  0.34769107  1  0.070753  0.002516  0.932275  0.003  0.076362  0.001814  0.99924  0.002  0.077705  0.001299  0.999292  0.001  0.111172  0.075637  0.002315  0.999019  0.002
H  H6  1  0.79183964  0.73110619  0.15231544  1  0.070778  0.002515  0.932287  0.003  0.076359  0.001814  0.999278  0.002  0.0777  0.001299  0.999333  0.001  0.1112  0.075637  0.002316  0.999052  0.002
H  H7  1  0.20816167  0.76889315  0.65231543  1  0.070743  0.002515  0.932283  0.003  0.076338  0.001815  0.999273  0.002  0.077679  0.001299  0.999327  0.001  0.111192  0.075619  0.002316  0.999046  0.002
H  H8  1  0.60019593  0.02067786  0.93492969  1  0.305873  -0.001166  0.868511  -0.001  0.308369  0.000239  0.906691  0.0  0.314178  -0.000115  0.904804  0.0  0.311169  0.304202  0.000518  0.908338  0.0
H  H9  1  0.39980348  0.47932294  0.43492926  1  0.305852  -0.001171  0.868567  -0.001  0.308335  0.000239  0.90676  0.0  0.314143  -0.000115  0.904874  0.0  0.311154  0.304171  0.000518  0.908405  0.0
H  H10  1  0.89980991  0.52067384  0.06507628  1  0.305916  -0.00117  0.868495  -0.001  0.308398  0.000238  0.906697  0.0  0.314207  -0.000115  0.904804  0.0  0.311193  0.304235  0.000518  0.90834  0.0
H  H11  1  0.10018896  0.97932615  0.56507544  1  0.305874  -0.001174  0.868515  -0.001  0.308356  0.000238  0.906716  0.0  0.314163  -0.000115  0.904828  0.0  0.311176  0.304193  0.000518  0.908359  0.0
H  H12  1  0.53785907  0.03287354  0.83533716  1  0.308948  -0.001154  0.92502  -0.002  0.297155  0.000153  0.985599  0.0  0.305726  -0.000212  0.979524  -0.001  0.29153  0.291452  0.000511  0.989562  0.0
H  H13  1  0.46213910  0.46712592  0.33533693  1  0.308956  -0.001156  0.925022  -0.002  0.297161  0.000153  0.985594  0.0  0.305731  -0.000212  0.97952  -0.001  0.29154  0.291458  0.000511  0.989558  0.0
H  H14  1  0.96214410  0.53286786  0.16466878  1  0.308987  -0.001154  0.924996  -0.002  0.297208  0.000152  0.985544  0.0  0.30577  -0.000212  0.979477  -0.001  0.291535  0.291506  0.000511  0.989508  0.0
H  H15  1  0.03785737  0.96713036  0.66466843  1  0.308971  -0.001158  0.924993  -0.002  0.297186  0.000153  0.985552  0.0  0.305748  -0.000212  0.979487  -0.001  0.291529  0.291483  0.000511  0.989518  0.0
H  H16  1  0.94414193  0.05563334  0.96286227  1  0.124147  -0.000784  0.923284  0.0  0.136689  -0.00031  0.984475  0.0  0.139387  -0.000292  0.982437  0.0  0.105977  0.134521  -0.000288  0.986423  0.0
H  H17  1  0.05585783  0.44436622  0.46286041  1  0.124166  -0.000782  0.923256  0.0  0.13672  -0.00031  0.984422  0.0  0.139416  -0.000292  0.982388  0.0  0.105996  0.134556  -0.000287  0.986369  0.0
H  H18  1  0.55586266  0.55563205  0.03714113  1  0.124212  -0.000785  0.92325  0.0  0.136705  -0.00031  0.984455  0.0  0.139403  -0.000292  0.982412  0.0  0.106024  0.13454  -0.000287  0.9864  0.0
H  H19  1  0.44413723  0.94436607  0.53714066  1  0.124211  -0.000795  0.923263  0.0  0.136715  -0.000309  0.984476  0.0  0.139412  -0.000291  0.982437  0.0  0.106023  0.134547  -0.000288  0.986423  0.0
H  H20  1  0.01678874  0.21650535  0.92187578  1  0.118771  -0.00078  0.91476  -0.001  0.133478  -0.000277  0.97007  0.0  0.135864  -0.000257  0.969175  0.0  0.107671  0.131984  -0.000254  0.970584  0.0
H  H21  1  0.98321186  0.28349244  0.42187429  1  0.118772  -0.000772  0.914779  -0.001  0.133468  -0.000277  0.970086  0.0  0.135853  -0.000257  0.969192  0.0  0.107662  0.131974  -0.000253  0.970599  0.0
H  H22  1  0.48322332  0.71650551  0.07812465  1  0.118806  -0.00078  0.914731  -0.001  0.133491  -0.000277  0.970019  0.0  0.135877  -0.000257  0.969121  0.0  0.107703  0.131996  -0.000254  0.970533  0.0
H  H23  1  0.51678114  0.78349541  0.57812727  1  0.118769  -0.000785  0.914713  -0.001  0.133473  -0.000277  0.97001  0.0  0.135859  -0.000257  0.969114  0.0  0.107677  0.131977  -0.000254  0.970522  0.0
H  H24  1  0.86683626  0.52120202  0.87466752  1  0.08726  -3e-05  0.934578  0.0  0.100774  8.1e-05  0.991141  0.0  0.102833  4.7e-05  0.988521  0.0  0.13559  0.09895  0.000147  0.993192  0.0
H  H25  1  0.13316916  0.97880398  0.37466454  1  0.087301  -2.6e-05  0.934518  0.0  0.100767  8.1e-05  0.991125  0.0  0.102824  4.7e-05  0.988511  0.0  0.135583  0.098946  0.000147  0.993176  0.0
H  H26  1  0.63316145  0.02119442  0.12533100  1  0.087298  -2.6e-05  0.934466  0.0  0.100755  8.1e-05  0.9911  0.0  0.102814  4.7e-05  0.988482  0.0  0.135554  0.098933  0.000147  0.99315  0.0
H  H27  1  0.36683954  0.47880450  0.62533086  1  0.087273  -2.7e-05  0.9345  0.0  0.100732  8.1e-05  0.991134  0.0  0.10279  4.8e-05  0.988516  0.0  0.13555  0.098912  0.000147  0.993185  0.0
H  H28  1  0.95898992  0.35778376  0.75563541  1  0.311002  0.000112  0.939266  0.0  0.291524  0.000193  1.001038  0.0  0.300319  0.000107  0.994612  0.0  0.308514  0.284163  0.000716  1.007014  0.001
H  H29  1  0.04101133  0.14222042  0.25563182  1  0.311054  0.000113  0.93916  0.0  0.291574  0.000193  1.000927  0.0  0.300371  0.000107  0.9945  0.0  0.308555  0.284215  0.000716  1.006904  0.001
H  H30  1  0.54100599  0.85777264  0.24436347  1  0.311042  0.000112  0.939095  0.0  0.291448  0.000193  1.001  0.0  0.300244  0.000107  0.994576  0.0  0.308518  0.284087  0.000717  1.006973  0.001
H  H31  1  0.45899375  0.64222706  0.74436321  1  0.311076  0.000113  0.939046  0.0  0.29149  0.000193  1.000954  0.0  0.300287  0.000107  0.994529  0.0  0.308542  0.284127  0.000717  1.006927  0.001
H  H32  1  0.96793216  0.48510774  0.61733036  1  0.122207  0.00063  0.962104  0.001  0.132394  0.000525  1.020964  0.0  0.13623  0.000375  1.018234  0.0  0.122424  0.129516  0.000751  1.023034  0.001
H  H33  1  0.03206331  0.01489435  0.11732957  1  0.122187  0.000629  0.96209  0.001  0.132361  0.000525  1.020965  0.0  0.136186  0.000375  1.018245  0.0  0.122417  0.129482  0.000751  1.023035  0.001
H  H34  1  0.53206544  0.98509456  0.38266633  1  0.122078  0.000626  0.962143  0.001  0.132324  0.000525  1.020964  0.0  0.13612  0.000375  1.018285  0.0  0.12239  0.129447  0.000751  1.023033  0.001
H  H35  1  0.46793330  0.51490413  0.88266705  1  0.122109  0.000629  0.962147  0.001  0.132359  0.000525  1.020945  0.0  0.136165  0.000375  1.018254  0.0  0.122408  0.129483  0.000751  1.023014  0.001
H  H36  1  0.86301762  0.75640841  0.65390936  1  0.107133  0.000107  0.948911  0.0  0.118522  0.000391  1.004603  0.0  0.121014  0.000297  1.003238  0.0  0.118956  0.116387  0.000642  1.006406  0.001
H  H37  1  0.13697693  0.74359507  0.15390700  1  0.107164  0.000106  0.948901  0.0  0.118546  0.000391  1.004592  0.0  0.121039  0.000297  1.003228  0.0  0.118976  0.116411  0.000641  1.006398  0.001
H  H38  1  0.63697665  0.25639506  0.34609165  1  0.107186  0.000107  0.94889  0.0  0.11853  0.000391  1.004625  0.0  0.121023  0.000297  1.00326  0.0  0.118964  0.116394  0.000642  1.006431  0.001
H  H39  1  0.36302300  0.24360432  0.84609274  1  0.107211  0.000107  0.948899  0.0  0.118573  0.000391  1.004606  0.0  0.121066  0.000297  1.003241  0.0  0.118967  0.116436  0.000641  1.00641  0.001
C  C40  1  0.89711427  0.09521867  0.78771030  1  0.648564  -0.003394  3.812891  -0.002  0.607948  0.000266  4.108347  0.001  0.643309  -0.000403  4.10224  0.0  0.218544  0.583685  0.001133  4.111949  0.001
C  C41  1  0.10288466  0.40478113  0.28770805  1  0.648456  -0.003397  3.812889  -0.002  0.607859  0.000268  4.108323  0.001  0.643217  -0.000404  4.102217  0.0  0.2185  0.583589  0.001134  4.111927  0.001
C  C42  1  0.60288500  0.59521307  0.21228866  1  0.648525  -0.003395  3.812942  -0.002  0.607966  0.000266  4.108286  0.001  0.643318  -0.000401  4.102186  0.0  0.218595  0.583707  0.001133  4.111886  0.001
C  C43  1  0.39711299  0.90478583  0.71228879  1  0.648509  -0.003399  3.812783  -0.002  0.607941  0.000267  4.108187  0.001  0.643282  -0.0004  4.102111  0.0  0.218597  0.583686  0.001133  4.111785  0.001
C  C44  1  0.77876425  0.13335653  0.86175156  1  0.073357  0.000143  3.649822  -0.001  0.056861  0.001983  3.895327  0.0  0.056981  0.000768  3.909969  0.0  -0.005009  0.057005  0.003094  3.88489  0.001
C  C45  1  0.22123696  0.36664274  0.36175095  1  0.073399  0.000158  3.649774  -0.001  0.056872  0.001984  3.895285  0.0  0.056994  0.000771  3.909927  0.0  -0.005008  0.057019  0.003095  3.884851  0.001
C  C46  1  0.72124054  0.63335167  0.13824730  1  0.073332  0.000153  3.650187  -0.001  0.056843  0.001983  3.895617  0.0  0.056965  0.000765  3.910256  0.0  -0.004962  0.056986  0.003094  3.88518  0.001
C  C47  1  0.27875924  0.86664674  0.63824598  1  0.073399  0.000153  3.650074  -0.001  0.056884  0.001982  3.895562  0.0  0.057011  0.000766  3.910205  0.0  -0.004984  0.057013  0.003094  3.885136  0.001
C  C48  1  0.89605959  0.15563583  0.93861807  1  -0.298632  0.010757  3.64308  0.012  -0.340053  0.006082  3.888193  0.007  -0.346012  0.003987  3.89507  0.005  -0.162062  -0.335755  0.007971  3.883288  0.009
C  C49  1  0.10394121  0.34436183  0.43861722  1  -0.298684  0.010751  3.643185  0.012  -0.340072  0.006083  3.888251  0.007  -0.346033  0.003989  3.895131  0.005  -0.162075  -0.335769  0.007971  3.883344  0.009
C  C50  1  0.60394932  0.65563341  0.06138507  1  -0.298647  0.010754  3.643458  0.012  -0.339925  0.006081  3.888386  0.007  -0.345875  0.003987  3.895253  0.005  -0.162092  -0.335635  0.007968  3.8835  0.009
C  C51  1  0.39605357  0.84436557  0.56138473  1  -0.298604  0.010773  3.643394  0.012  -0.339961  0.006081  3.888385  0.007  -0.345917  0.003986  3.895257  0.005  -0.162057  -0.33567  0.007968  3.883508  0.009
C  C52  1  0.79600937  0.23507473  0.00722752  1  0.656951  -0.008732  3.90286  -0.008  0.621711  -0.00259  4.214594  -0.003  0.656707  -0.003043  4.211115  -0.003  0.185935  0.597969  -0.001958  4.215762  -0.003
C  C53  1  0.20398880  0.26492403  0.50722813  1  0.656891  -0.008722  3.902918  -0.008  0.621628  -0.002591  4.214669  -0.003  0.656624  -0.003044  4.211195  -0.003  0.185879  0.597892  -0.001958  4.215847  -0.003
C  C54  1  0.70399163  0.73506462  0.99277355  1  0.656937  -0.008729  3.90292  -0.008  0.621661  -0.002589  4.214648  -0.003  0.656655  -0.003043  4.211178  -0.003  0.185902  0.597922  -0.001957  4.215819  -0.003
C  C55  1  0.29601390  0.76493016  0.49277465  1  0.656927  -0.008739  3.902879  -0.008  0.621745  -0.002589  4.21449  -0.003  0.656742  -0.003043  4.211016  -0.003  0.185867  0.597996  -0.001956  4.21566  -0.003
C  C56  1  0.88231494  0.55092240  0.81023279  1  0.210051  -0.008609  3.686751  -0.004  0.154696  -0.003323  3.96014  -0.001  0.171056  -0.004321  3.97334  -0.002  0.139603  0.144474  -0.002084  3.951253  0.0
C  C57  1  0.11768291  0.94907889  0.31023046  1  0.210019  -0.008654  3.686747  -0.005  0.154726  -0.003323  3.960128  -0.001  0.171085  -0.004321  3.973327  -0.002  0.139613  0.1445  -0.002084  3.951245  0.0
C  C58  1  0.61767879  0.05091534  0.18976690  1  0.209997  -0.008634  3.686692  -0.005  0.154623  -0.003323  3.960022  -0.001  0.170982  -0.004321  3.973218  -0.002  0.139625  0.144398  -0.002084  3.951131  0.0
C  C59  1  0.38232029  0.44908415  0.68976688  1  0.210018  -0.008641  3.686729  -0.005  0.154652  -0.003322  3.960061  -0.001  0.171012  -0.004321  3.97326  -0.002  0.139626  0.144423  -0.002083  3.951182  0.0
C  C60  1  0.93064033  0.53491302  0.67512775  1  -0.006804  0.003499  3.678881  0.004  -0.043869  0.001961  3.935716  0.002  -0.041648  0.001651  3.952458  0.002  0.002669  -0.045165  0.002375  3.924474  0.003
C  C61  1  0.06935313  0.96508823  0.17512773  1  -0.006715  0.00351  3.678826  0.004  -0.04377  0.00196  3.935661  0.002  -0.041533  0.001651  3.952403  0.002  0.002691  -0.045067  0.002375  3.924415  0.003
C  C62  1  0.56935606  0.03490489  0.32487013  1  -0.006466  0.003518  3.678913  0.004  -0.043638  0.00196  3.935683  0.002  -0.04138  0.001651  3.952454  0.002  0.002766  -0.044936  0.002375  3.92444  0.003
C  C63  1  0.43064062  0.46509361  0.82487143  1  -0.00657  0.003513  3.678913  0.004  -0.043728  0.001961  3.935696  0.002  -0.041478  0.001651  3.952461  0.002  0.002742  -0.045028  0.002375  3.924449  0.003
C  C64  1  0.88105676  0.66821706  0.69450794  1  -0.016445  -0.00051  3.747061  0.001  -0.046965  0.000815  4.02104  0.001  -0.044447  -7.2e-05  4.042127  0.0  -0.010869  -0.048582  0.001441  4.008223  0.002
C  C65  1  0.11893830  0.83178405  0.19450716  1  -0.01657  -0.00051  3.747046  0.001  -0.047074  0.000816  4.021044  0.001  -0.044558  -7.2e-05  4.042125  0.0  -0.010933  -0.048694  0.001442  4.008227  0.002
C  C66  1  0.61893864  0.16820811  0.30549082  1  -0.016607  -0.000513  3.747091  0.001  -0.04712  0.000816  4.021129  0.001  -0.044604  -7.2e-05  4.042198  0.0  -0.010911  -0.048736  0.001442  4.008312  0.002
C  C67  1  0.38105916  0.33179156  0.80549110  1  -0.01661  -0.000516  3.747143  0.001  -0.047149  0.000816  4.021171  0.001  -0.044632  -7.2e-05  4.042246  0.0  -0.010916  -0.048763  0.001441  4.00835  0.002
N  N68  1  0.64663403  0.02097839  0.87527979  1  -0.614285  0.083927  3.149111  0.107  -0.602547  0.055593  3.418142  0.074  -0.634229  0.04337  3.418379  0.062  -0.635715  -0.582136  0.063213  3.418526  0.079
N  N69  1  0.35336599  0.47902078  0.37527924  1  -0.614257  0.083935  3.149164  0.107  -0.602498  0.055593  3.418195  0.074  -0.634177  0.04337  3.418428  0.062  -0.635688  -0.582086  0.063212  3.418582  0.079
N  N70  1  0.85336775  0.52097593  0.12472432  1  -0.614375  0.083929  3.149325  0.107  -0.602678  0.055591  3.4184  0.074  -0.634317  0.043367  3.418616  0.062  -0.635751  -0.582268  0.063209  3.418789  0.079
N  N71  1  0.14663186  0.97902155  0.62472422  1  -0.614291  0.08394  3.149253  0.107  -0.602555  0.055594  3.4183  0.074  -0.634213  0.043368  3.418536  0.062  -0.63571  -0.582151  0.06321  3.418701  0.079
N  N72  1  0.85153573  0.67692371  0.77920366  1  -0.371783  0.063508  3.347352  0.082  -0.331835  0.045083  3.672886  0.061  -0.363007  0.037181  3.690849  0.054  -0.38901  -0.313715  0.048147  3.664533  0.062
N  N73  1  0.14846716  0.82307782  0.27920298  1  -0.371714  0.063516  3.347279  0.082  -0.331794  0.04508  3.672816  0.061  -0.362963  0.037179  3.690773  0.054  -0.388974  -0.313673  0.048144  3.664459  0.062
N  N74  1  0.64846376  0.17691647  0.22079508  1  -0.371671  0.063511  3.34712  0.082  -0.331698  0.045082  3.672599  0.061  -0.362836  0.03718  3.690535  0.054  -0.388937  -0.313575  0.048146  3.664231  0.062
N  N75  1  0.35153706  0.32308279  0.72079593  1  -0.371709  0.063514  3.347172  0.082  -0.33169  0.045083  3.672599  0.061  -0.362848  0.03718  3.690557  0.054  -0.388946  -0.313582  0.048146  3.664258  0.062
N  N76  1  0.93069761  0.46321189  0.74896885  1  -0.276217  0.002333  3.455892  0.004  -0.207303  0.00185  3.684707  0.003  -0.223858  0.001135  3.699976  0.002  -0.375597  -0.195875  0.001857  3.674999  0.003
N  N77  1  0.06930220  0.03678924  0.24896499  1  -0.276284  0.002333  3.455875  0.004  -0.207378  0.00185  3.684685  0.003  -0.223935  0.001135  3.699948  0.002  -0.375642  -0.195954  0.001857  3.674983  0.003
N  N78  1  0.56929858  0.96320388  0.25103162  1  -0.276412  0.002328  3.455976  0.004  -0.207279  0.00185  3.684688  0.003  -0.223833  0.001135  3.699949  0.002  -0.375683  -0.195855  0.001857  3.674981  0.003
N  N79  1  0.43070260  0.53679578  0.75103219  1  -0.276367  0.002331  3.455882  0.004  -0.207283  0.00185  3.684646  0.003  -0.223837  0.001135  3.699906  0.002  -0.375689  -0.195855  0.001857  3.674938  0.003
O  O80  1  0.99550813  0.18717805  0.75580759  1  -0.603987  0.011016  2.06613  0.017  -0.565816  0.006525  2.310941  0.011  -0.595039  0.003017  2.299885  0.006  -0.306278  -0.545394  0.008495  2.319329  0.012
O  O81  1  0.00448770  0.31282199  0.25580780  1  -0.603983  0.011014  2.066159  0.017  -0.565788  0.006524  2.310931  0.011  -0.594997  0.003017  2.299868  0.006  -0.306259  -0.545353  0.008494  2.319313  0.012
O  O82  1  0.50448461  0.68716169  0.24419050  1  -0.604045  0.011019  2.06627  0.017  -0.565853  0.006526  2.311055  0.011  -0.595083  0.00302  2.300008  0.006  -0.306359  -0.545418  0.008497  2.319433  0.012
O  O83  1  0.49551648  0.81283801  0.74419051  1  -0.604011  0.011024  2.066223  0.017  -0.56581  0.006527  2.311019  0.011  -0.595038  0.00302  2.299982  0.006  -0.306322  -0.545374  0.008499  2.319392  0.012
O  O84  1  0.89358094  0.96898002  0.76202103  1  -0.593252  0.061039  2.047281  0.087  -0.552437  0.045729  2.306796  0.07  -0.590225  0.035535  2.29512  0.059  -0.317736  -0.527968  0.051065  2.316698  0.074
O  O85  1  0.10641360  0.53102163  0.26202163  1  -0.593156  0.061032  2.04735  0.087  -0.552367  0.045726  2.306865  0.07  -0.590153  0.035533  2.295189  0.059  -0.317683  -0.527897  0.051061  2.31677  0.074
O  O86  1  0.60640578  0.46897569  0.23797695  1  -0.593109  0.061043  2.047206  0.087  -0.552352  0.045732  2.306698  0.07  -0.590119  0.035536  2.295028  0.059  -0.317695  -0.527882  0.051067  2.316596  0.074
O  O87  1  0.39358847  0.03102138  0.73797991  1  -0.593168  0.061042  2.047132  0.087  -0.552404  0.045735  2.306652  0.07  -0.590179  0.035536  2.294987  0.059  -0.317735  -0.527947  0.05107  2.316563  0.074
O  O88  1  0.87573728  0.22812469  0.07882086  1  -0.60128  0.100775  2.0122  0.141  -0.583409  0.063041  2.291159  0.096  -0.62811  0.046686  2.284895  0.077  -0.340057  -0.552502  0.074398  2.294711  0.107
O  O89  1  0.12426042  0.27187562  0.57882063  1  -0.601257  0.100764  2.012183  0.141  -0.583378  0.063044  2.291134  0.096  -0.628097  0.046684  2.284884  0.077  -0.340057  -0.552488  0.074393  2.294706  0.107
O  O90  1  0.62427183  0.72812636  0.92117898  1  -0.601318  0.100761  2.012327  0.141  -0.583455  0.063035  2.291325  0.096  -0.628182  0.046679  2.285073  0.077  -0.340083  -0.552549  0.074391  2.294883  0.107
O  O91  1  0.37574501  0.77186481  0.42118214  1  -0.601349  0.100777  2.012177  0.141  -0.583503  0.063043  2.291114  0.096  -0.628228  0.046683  2.28485  0.077  -0.340082  -0.552591  0.074402  2.29467  0.107
O  O92  1  0.65375126  0.30050230  0.99210444  1  -0.628273  -0.000743  1.867088  0.002  -0.600862  -0.001118  2.088291  0.001  -0.624861  -0.002298  2.078525  0.0  -0.34371  -0.583888  0.000257  2.094576  0.003
O  O93  1  0.34624886  0.19949498  0.49210584  1  -0.62824  -0.000748  1.867041  0.002  -0.60081  -0.001117  2.088237  0.001  -0.624816  -0.002296  2.078479  0.0  -0.343656  -0.583839  0.000258  2.094525  0.003
O  O94  1  0.84625263  0.80050896  0.00788964  1  -0.628305  -0.000743  1.866824  0.002  -0.600889  -0.001119  2.088041  0.001  -0.624901  -0.002297  2.078293  0.0  -0.343712  -0.583915  0.000257  2.094328  0.003
O  O95  1  0.15374554  0.69950076  0.50788594  1  -0.628269  -0.000746  1.866824  0.002  -0.600907  -0.00112  2.088035  0.001  -0.624896  -0.002294  2.078242  0.0  -0.343677  -0.583936  0.000257  2.094331  0.003
