# generated using pymatgen
data_CdH9C11(NO2)2
_symmetry_space_group_name_H-M   'P 1'
_cell_length_a   7.96568771
_cell_length_b   8.15585565
_cell_length_c   16.78800000
_cell_angle_alpha   90.00000000
_cell_angle_beta   90.00000000
_cell_angle_gamma   98.50098143
_symmetry_Int_Tables_number   1
_chemical_formula_structural   CdH9C11(NO2)2
_chemical_formula_sum   'Cd4 H36 C44 N8 O16'
_cell_volume   1078.68319509
_cell_formula_units_Z   4
loop_
 _symmetry_equiv_pos_site_id
 _symmetry_equiv_pos_as_xyz
  1  'x, y, z'
loop_
 _atom_site_type_symbol
 _atom_site_label
 _atom_site_symmetry_multiplicity
 _atom_site_fract_x
 _atom_site_fract_y
 _atom_site_fract_z
 _atom_site_occupancy
 _atom_site_hle17_bader_spin_density
 _atom_site_hle17_ddec_charge
 _atom_site_hle17_ddec_spin_density
 _atom_site_hle17_ddec_sum_bond_order
 _atom_site_hle17_magmom
 _atom_site_hse06_10hf_bader_spin_density
 _atom_site_hse06_10hf_ddec_charge
 _atom_site_hse06_10hf_ddec_spin_density
 _atom_site_hse06_10hf_ddec_sum_bond_order
 _atom_site_hse06_10hf_magmom
 _atom_site_hse06_bader_spin_density
 _atom_site_hse06_ddec_charge
 _atom_site_hse06_ddec_spin_density
 _atom_site_hse06_ddec_sum_bond_order
 _atom_site_hse06_magmom
 _atom_site_pbe_bader_charge
 _atom_site_pbe_bader_spin_density
 _atom_site_pbe_cm5_charge
 _atom_site_pbe_ddec_charge
 _atom_site_pbe_ddec_spin_density
 _atom_site_pbe_ddec_sum_bond_order
 _atom_site_pbe_magmom
Cd  Cd0  1  0.12715664  0.28968604  0.26408566  1  0  1.21523  0  1.663792  0  0  1.038162  0  2.118049  0  0  1.09439  0  2.060925  0  1.32107  0  0.789993  0.997758  0  2.157444  0
Cd  Cd1  1  0.37284381  0.71031149  0.76408566  1  0  1.215235  0  1.66373  0  0  1.038179  0  2.11797  0  0  1.094406  0  2.060849  0  1.321072  0  0.790011  0.997776  0  2.157363  0
Cd  Cd2  1  0.87284388  0.71031521  0.73591434  1  0  1.215223  0  1.663746  0  0  1.038189  0  2.117997  0  0  1.094416  0  2.060874  0  1.320972  0  0.790003  0.997787  0  2.157391  0
Cd  Cd3  1  0.62715471  0.28968480  0.23591434  1  0  1.215235  0  1.663767  0  0  1.038169  0  2.118019  0  0  1.094396  0  2.060897  0  1.320988  0  0.789998  0.997766  0  2.157414  0
H  H4  1  0.78853547  0.69351558  0.32900524  1  0  0.326943  0  0.928343  0  0  0.305846  0  0.989951  0  0  0.315564  0  0.981884  0  0.564317  0  0.310632  0.298989  0  0.995682  0
H  H5  1  0.71146294  0.30648319  0.82900465  1  0  0.326881  0  0.928443  0  0  0.305856  0  0.989946  0  0  0.315574  0  0.981879  0  0.564324  0  0.310645  0.298999  0  0.995678  0
H  H6  1  0.21146737  0.30648443  0.67099535  1  0  0.326896  0  0.92836  0  0  0.305805  0  0.989966  0  0  0.315522  0  0.9819  0  0.564304  0  0.310623  0.298949  0  0.995696  0
H  H7  1  0.28853307  0.69351310  0.17099416  1  0  0.326902  0  0.928362  0  0  0.305803  0  0.989981  0  0  0.315522  0  0.981911  0  0.564303  0  0.310596  0.298945  0  0.995712  0
H  H8  1  0.86307641  0.92145049  0.22656540  1  0  0.084712  0  0.952695  0  0  0.095618  0  1.015316  0  0  0.097481  0  1.012639  0  0.154546  0  0.135229  0.094224  0  1.017195  0
H  H9  1  0.63692219  0.07854951  0.72656421  1  0  0.084713  0  0.952702  0  0  0.095618  0  1.015323  0  0  0.09748  0  1.012645  0  0.154533  0  0.135218  0.094224  0  1.017201  0
H  H10  1  0.13692556  0.07855199  0.77343519  1  0  0.084665  0  0.95273  0  0  0.095571  0  1.015351  0  0  0.097435  0  1.01267  0  0.154817  0  0.13522  0.094177  0  1.01723  0
H  H11  1  0.36307382  0.92144677  0.27343519  1  0  0.084662  0  0.952758  0  0  0.095569  0  1.015379  0  0  0.097432  0  1.012699  0  0.154807  0  0.135216  0.094175  0  1.017258  0
H  H12  1  0.92560564  0.62827956  0.48793483  1  0  0.119118  0  0.950952  0  0  0.128209  0  1.014499  0  0  0.131682  0  1.01184  0  0.114141  0  0.109842  0.12557  0  1.016635  0
H  H13  1  0.57439365  0.37171672  0.98793483  1  0  0.119099  0  0.951022  0  0  0.128181  0  1.014567  0  0  0.13165  0  1.011917  0  0.114173  0  0.109831  0.125548  0  1.016697  0
H  H14  1  0.07439432  0.37171796  0.51206457  1  0  0.119119  0  0.951012  0  0  0.128201  0  1.014568  0  0  0.131672  0  1.011913  0  0.114147  0  0.109846  0.125581  0  1.016681  0
H  H15  1  0.42560418  0.62828328  0.01206338  1  0  0.119089  0  0.950993  0  0  0.128183  0  1.01454  0  0  0.131654  0  1.011884  0  0.114145  0  0.109827  0.125561  0  1.016655  0
H  H16  1  0.35921619  0.99077143  0.54313259  1  0  0.099725  0  0.956446  0  0  0.110361  0  1.018132  0  0  0.113661  0  1.016231  0  0.066959  0  0.100955  0.10796  0  1.019556  0
H  H17  1  0.14078319  0.00922734  0.04313081  1  0  0.099766  0  0.956415  0  0  0.110405  0  1.018093  0  0  0.113683  0  1.016223  0  0.06697  0  0.100959  0.108  0  1.019524  0
H  H18  1  0.64078308  0.00922982  0.45686919  1  0  0.0997  0  0.956495  0  0  0.110359  0  1.018164  0  0  0.113647  0  1.016272  0  0.06696  0  0.100949  0.107956  0  1.019591  0
H  H19  1  0.85921645  0.99077639  0.95686919  1  0  0.099749  0  0.956414  0  0  0.110371  0  1.018113  0  0  0.113664  0  1.016222  0  0.066928  0  0.100961  0.107969  0  1.019538  0
H  H20  1  0.34025746  0.13338416  0.41116452  1  0  0.117008  0  0.970478  0  0  0.123813  0  1.037158  0  0  0.127326  0  1.035338  0  0.124893  0  0.103806  0.121286  0  1.038577  0
H  H21  1  0.15974104  0.86661708  0.91116274  1  0  0.117015  0  0.970485  0  0  0.123811  0  1.037176  0  0  0.127326  0  1.035358  0  0.124897  0  0.103787  0.121283  0  1.038598  0
H  H22  1  0.65974200  0.86661832  0.58883786  1  0  0.11705  0  0.970459  0  0  0.123854  0  1.037133  0  0  0.127369  0  1.035315  0  0.124898  0  0.103816  0.121327  0  1.038552  0
H  H23  1  0.84025823  0.13338416  0.08883846  1  0  0.117028  0  0.970437  0  0  0.123834  0  1.037118  0  0  0.127347  0  1.035298  0  0.124907  0  0.103798  0.121307  0  1.038537  0
H  H24  1  0.26976098  0.54331815  0.41308613  1  0  0.11038  0  0.94663  0  0  0.122628  0  1.011254  0  0  0.12484  0  1.010706  0  0.101166  0  0.097698  0.121011  0  1.011765  0
H  H25  1  0.23023858  0.45668186  0.91308673  1  0  0.110386  0  0.946663  0  0  0.122635  0  1.011273  0  0  0.124846  0  1.010727  0  0.101163  0  0.097709  0.121017  0  1.011785  0
H  H26  1  0.73024042  0.45668062  0.58691208  1  0  0.110383  0  0.946632  0  0  0.122656  0  1.01126  0  0  0.124867  0  1.010712  0  0.101147  0  0.097726  0.121038  0  1.011769  0
H  H27  1  0.76975924  0.54331815  0.08691327  1  0  0.110382  0  0.946647  0  0  0.122634  0  1.01127  0  0  0.124845  0  1.010724  0  0.10116  0  0.097712  0.121017  0  1.01178  0
H  H28  1  0.41198556  0.72372416  0.38579878  1  0  0.100216  0  0.942391  0  0  0.11291  0  1.006978  0  0  0.114486  0  1.007549  0  0.045927  0  0.097142  0.111788  0  1.006634  0
H  H29  1  0.08801419  0.27627708  0.88579878  1  0  0.100238  0  0.942419  0  0  0.112933  0  1.006997  0  0  0.114509  0  1.007569  0  0.045943  0  0.09716  0.11181  0  1.006653  0
H  H30  1  0.58801729  0.27627584  0.61419943  1  0  0.100203  0  0.942388  0  0  0.112915  0  1.006993  0  0  0.11449  0  1.007568  0  0.045892  0  0.097145  0.111791  0  1.006647  0
H  H31  1  0.91198489  0.72372292  0.11420122  1  0  0.100222  0  0.942417  0  0  0.112927  0  1.006991  0  0  0.114504  0  1.007561  0  0.045933  0  0.097156  0.111803  0  1.006649  0
H  H32  1  0.63651873  0.64322083  0.47361627  1  0  0.064474  0  0.93909  0  0  0.085102  0  0.997405  0  0  0.085589  0  0.99852  0  0.021987  0  0.089737  0.084687  0  0.996725  0
H  H33  1  0.86348112  0.35677917  0.97361687  1  0  0.064459  0  0.9391  0  0  0.085087  0  0.997408  0  0  0.085573  0  0.998525  0  0.021979  0  0.089742  0.084671  0  0.996728  0
H  H34  1  0.36348016  0.35677793  0.52638373  1  0  0.064486  0  0.939092  0  0  0.085097  0  0.997426  0  0  0.085585  0  0.998542  0  0.021993  0  0.089732  0.084682  0  0.996748  0
H  H35  1  0.13651940  0.64322207  0.02638373  1  0  0.064492  0  0.939095  0  0  0.085121  0  0.997419  0  0  0.085612  0  0.998528  0  0.021864  0  0.089734  0.084705  0  0.99674  0
H  H36  1  0.45033926  0.66748365  0.52613891  1  0  0.074137  0  0.950494  0  0  0.092696  0  1.010787  0  0  0.093208  0  1.012111  0  0.046651  0  0.091058  0.092227  0  1.009989  0
H  H37  1  0.04966012  0.33251511  0.02613891  1  0  0.074194  0  0.950423  0  0  0.092723  0  1.01075  0  0  0.093252  0  1.012048  0  0.046647  0  0.091065  0.09225  0  1.009955  0
H  H38  1  0.54965838  0.33251511  0.47386050  1  0  0.074202  0  0.950443  0  0  0.09277  0  1.01071  0  0  0.09328  0  1.012031  0  0.046662  0  0.091084  0.092301  0  1.00991  0
H  H39  1  0.95033897  0.66748489  0.97386169  1  0  0.074162  0  0.950524  0  0  0.092728  0  1.010808  0  0  0.093237  0  1.012133  0  0.046638  0  0.091068  0.09226  0  1.010008  0
C  C40  1  0.93496361  0.91037843  0.28065166  1  0  0.283822  0  3.659402  0  0  0.219061  0  3.937269  0  0  0.238551  0  3.945853  0  1.013868  0  0.164062  0.206321  0  3.930946  0
C  C41  1  0.56503625  0.08962157  0.78065106  1  0  0.283826  0  3.659417  0  0  0.219063  0  3.937295  0  0  0.238554  0  3.945877  0  1.013866  0  0.16409  0.206324  0  3.930971  0
C  C42  1  0.06503962  0.08962405  0.71934894  1  0  0.283928  0  3.659284  0  0  0.219174  0  3.937158  0  0  0.238662  0  3.945741  0  1.013553  0  0.164112  0.206436  0  3.930832  0
C  C43  1  0.43496120  0.91037595  0.21935013  1  0  0.283989  0  3.659302  0  0  0.219223  0  3.937183  0  0  0.238713  0  3.945767  0  1.013535  0  0.16414  0.206482  0  3.930863  0
C  C44  1  0.11969771  0.95866481  0.37609662  1  0  0.141088  0  3.837198  0  0  0.136521  0  4.083534  0  0  0.140843  0  4.10812  0  0.288759  0  0.084199  0.133617  0  4.066927  0
C  C45  1  0.38030311  0.04133519  0.87609543  1  0  0.141108  0  3.837256  0  0  0.136619  0  4.083474  0  0  0.140942  0  4.10806  0  0.28892  0  0.084227  0.133715  0  4.066869  0
C  C46  1  0.88030262  0.04133519  0.62390398  1  0  0.141166  0  3.837246  0  0  0.136665  0  4.083485  0  0  0.140989  0  4.10807  0  0.288771  0  0.084242  0.133768  0  4.066876  0
C  C47  1  0.61969472  0.95866481  0.12390279  1  0  0.14121  0  3.837283  0  0  0.136709  0  4.083515  0  0  0.141032  0  4.108098  0  0.288884  0  0.084231  0.133805  0  4.066907  0
C  C48  1  0.00660479  0.81355401  0.39651954  1  0  0.153601  0  3.782919  0  0  0.147568  0  4.027086  0  0  0.150202  0  4.049527  0  0.384539  0  0.09649  0.145642  0  4.011984  0
C  C49  1  0.49339408  0.18644971  0.89651954  1  0  0.153611  0  3.78294  0  0  0.147552  0  4.027097  0  0  0.150187  0  4.049535  0  0.384402  0  0.096454  0.145626  0  4.011997  0
C  C50  1  0.99339718  0.18644847  0.60348046  1  0  0.153507  0  3.782872  0  0  0.147463  0  4.027032  0  0  0.150094  0  4.049471  0  0.384551  0  0.096431  0.145523  0  4.011953  0
C  C51  1  0.50660374  0.81355029  0.10347927  1  0  0.153525  0  3.782857  0  0  0.147491  0  4.026989  0  0  0.150124  0  4.049428  0  0.38453  0  0.096442  0.145563  0  4.011893  0
C  C52  1  0.01525049  0.73555370  0.46979211  1  0  -0.134522  0  3.714097  0  0  -0.165363  0  3.965879  0  0  -0.164551  0  3.983251  0  0.014426  0  -0.080845  -0.165614  0  3.954251  0
C  C53  1  0.48474782  0.26444631  0.96979330  1  0  -0.134488  0  3.714235  0  0  -0.165317  0  3.966016  0  0  -0.164502  0  3.983386  0  0.014426  0  -0.080792  -0.165576  0  3.954387  0
C  C54  1  0.98475004  0.26444754  0.53020789  1  0  -0.13449  0  3.71418  0  0  -0.165334  0  3.965971  0  0  -0.164521  0  3.983344  0  0.014398  0  -0.080815  -0.165596  0  3.954338  0
C  C55  1  0.51525251  0.73555370  0.03020550  1  0  -0.134529  0  3.714271  0  0  -0.165396  0  3.966075  0  0  -0.164582  0  3.983446  0  0.014406  0  -0.080832  -0.165663  0  3.95444  0
C  C56  1  0.14302287  0.80473207  0.52190255  1  0  -0.074601  0  3.767278  0  0  -0.051087  0  4.00245  0  0  -0.060527  0  4.027504  0  -0.072939  0  -0.025229  -0.044993  0  3.985621  0
C  C57  1  0.35697632  0.19526546  0.02190195  1  0  -0.074559  0  3.767372  0  0  -0.051042  0  4.002533  0  0  -0.06048  0  4.027581  0  -0.07296  0  -0.025211  -0.044949  0  3.985707  0
C  C58  1  0.85697872  0.19526794  0.47809805  1  0  -0.074608  0  3.767332  0  0  -0.051069  0  4.002492  0  0  -0.060508  0  4.027542  0  -0.072958  0  -0.025213  -0.044975  0  3.985668  0
C  C59  1  0.64302402  0.80473455  0.97809924  1  0  -0.074492  0  3.767416  0  0  -0.050962  0  4.002556  0  0  -0.060402  0  4.027607  0  -0.072961  0  -0.025207  -0.044871  0  3.985734  0
C  C60  1  0.26198647  0.94389091  0.49984334  1  0  -0.072396  0  3.750868  0  0  -0.100638  0  4.005843  0  0  -0.100598  0  4.027343  0  0.053902  0  -0.091322  -0.100465  0  3.991293  0
C  C61  1  0.23801272  0.05610662  0.99984215  1  0  -0.072476  0  3.750939  0  0  -0.100719  0  4.005917  0  0  -0.100665  0  4.027421  0  0.053914  0  -0.091363  -0.100547  0  3.991371  0
C  C62  1  0.73801386  0.05610910  0.50015785  1  0  -0.07237  0  3.750865  0  0  -0.10064  0  4.005836  0  0  -0.100586  0  4.027341  0  0.053862  0  -0.091336  -0.100467  0  3.991289  0
C  C63  1  0.76199013  0.94389339  0.00015785  1  0  -0.072453  0  3.75094  0  0  -0.100688  0  4.005923  0  0  -0.100643  0  4.02742  0  0.053906  0  -0.091334  -0.100516  0  3.991376  0
C  C64  1  0.25233683  0.02299706  0.42720455  1  0  -0.158465  0  3.754254  0  0  -0.176328  0  4.013773  0  0  -0.180774  0  4.03387  0  -0.048017  0  -0.097855  -0.173398  0  4.000266  0
C  C65  1  0.24766343  0.97699923  0.92720336  1  0  -0.15852  0  3.754284  0  0  -0.176402  0  4.013771  0  0  -0.180849  0  4.033864  0  -0.048067  0  -0.09786  -0.173471  0  4.000265  0
C  C66  1  0.74766244  0.97700419  0.57279783  1  0  -0.158567  0  3.754319  0  0  -0.176452  0  4.013833  0  0  -0.1809  0  4.033926  0  -0.047962  0  -0.09788  -0.173521  0  4.000325  0
C  C67  1  0.75233258  0.02299706  0.07279724  1  0  -0.158537  0  3.754349  0  0  -0.176425  0  4.01385  0  0  -0.180871  0  4.033944  0  -0.048147  0  -0.097846  -0.173496  0  4.000345  0
C  C68  1  0.14739079  0.73849683  0.60504765  1  0  0.656845  0  3.92183  0  0  0.605633  0  4.216024  0  0  0.64115  0  4.20876  0  1.586106  0  0.20066  0.581482  0  4.220167  0
C  C69  1  0.35261091  0.26150070  0.10504706  1  0  0.656868  0  3.921964  0  0  0.605646  0  4.216192  0  0  0.641164  0  4.208928  0  1.586101  0  0.20064  0.581497  0  4.220338  0
C  C70  1  0.85260917  0.26150070  0.39495294  1  0  0.656867  0  3.92191  0  0  0.605634  0  4.216143  0  0  0.641152  0  4.208881  0  1.586077  0  0.200639  0.581484  0  4.220287  0
C  C71  1  0.64739105  0.73850179  0.89495294  1  0  0.656761  0  3.922007  0  0  0.605536  0  4.216247  0  0  0.641055  0  4.208984  0  1.586116  0  0.200591  0.581388  0  4.22039  0
C  C72  1  0.47678610  0.49714180  0.33959137  1  0  0.725938  0  3.792642  0  0  0.677514  0  4.085163  0  0  0.712203  0  4.078007  0  1.52535  0  0.215878  0.653877  0  4.089213  0
C  C73  1  0.02321491  0.50285945  0.83959137  1  0  0.726061  0  3.792554  0  0  0.677621  0  4.085107  0  0  0.71231  0  4.077947  0  1.525369  0  0.215912  0.653984  0  4.089159  0
C  C74  1  0.52321762  0.50285573  0.66040863  1  0  0.726024  0  3.792411  0  0  0.677488  0  4.085165  0  0  0.712175  0  4.078006  0  1.525328  0  0.215866  0.653848  0  4.089215  0
C  C75  1  0.97678543  0.49714056  0.16040863  1  0  0.726075  0  3.792529  0  0  0.677653  0  4.085044  0  0  0.712341  0  4.077887  0  1.525371  0  0.215918  0.654014  0  4.089097  0
C  C76  1  0.40419875  0.59363893  0.40453360  1  0  -0.280841  0  3.670762  0  0  -0.318996  0  3.921519  0  0  -0.325851  0  3.930659  0  -0.056079  0  -0.169198  -0.314273  0  3.915203  0
C  C77  1  0.09580100  0.40636231  0.90453360  1  0  -0.280938  0  3.670926  0  0  -0.31907  0  3.92165  0  0  -0.325926  0  3.930792  0  -0.056066  0  -0.169237  -0.314348  0  3.915335  0
C  C78  1  0.59580266  0.40635983  0.59546581  1  0  -0.280823  0  3.67068  0  0  -0.319065  0  3.921673  0  0  -0.325916  0  3.930806  0  -0.055989  0  -0.169242  -0.31433  0  3.915341  0
C  C79  1  0.90419952  0.59363893  0.09546700  1  0  -0.280924  0  3.67093  0  0  -0.319087  0  3.921708  0  0  -0.325941  0  3.930847  0  -0.05605  0  -0.16926  -0.314358  0  3.915383  0
C  C80  1  0.50345507  0.58748861  0.48304622  1  0  -0.081195  0  3.645459  0  0  -0.119201  0  3.899595  0  0  -0.119734  0  3.913746  0  -0.00165  0  -0.163115  -0.118636  0  3.889796  0
C  C81  1  0.99654353  0.41251139  0.98304682  1  0  -0.081221  0  3.645462  0  0  -0.119211  0  3.899604  0  0  -0.119751  0  3.913746  0  -0.001668  0  -0.163124  -0.118645  0  3.889807  0
C  C82  1  0.49654671  0.41251263  0.51695259  1  0  -0.081379  0  3.645458  0  0  -0.119357  0  3.899651  0  0  -0.119887  0  3.913796  0  -0.027957  0  -0.163149  -0.118796  0  3.88985  0
C  C83  1  0.00345160  0.58748737  0.01695318  1  0  -0.08128  0  3.645585  0  0  -0.119302  0  3.899734  0  0  -0.119835  0  3.913888  0  -0.027768  0  -0.163115  -0.118739  0  3.889933  0
N  N84  1  0.07029806  0.01670665  0.30316774  1  0  -0.477421  0  3.17849  0  0  -0.407145  0  3.463292  0  0  -0.431381  0  3.476946  0  -1.207482  0  -0.362596  -0.390495  0  3.453437  0
N  N85  1  0.42970132  0.98329212  0.80316714  1  0  -0.477413  0  3.17857  0  0  -0.407158  0  3.463339  0  0  -0.431393  0  3.47699  0  -1.207509  0  -0.36259  -0.390508  0  3.453484  0
N  N86  1  0.92970372  0.98329460  0.69683286  1  0  -0.477582  0  3.178547  0  0  -0.407327  0  3.46333  0  0  -0.431564  0  3.476985  0  -1.207363  0  -0.362644  -0.390676  0  3.453471  0
N  N87  1  0.57029613  0.01670541  0.19683345  1  0  -0.477578  0  3.178471  0  0  -0.407324  0  3.463259  0  0  -0.431561  0  3.476911  0  -1.207349  0  -0.362648  -0.390674  0  3.453405  0
N  N88  1  0.89310623  0.78659229  0.33380033  1  0  -0.327795  0  3.35587  0  0  -0.265016  0  3.589521  0  0  -0.282768  0  3.599859  0  -1.30189  0  -0.369749  -0.253094  0  3.582371  0
N  N89  1  0.60689363  0.21340772  0.83380033  1  0  -0.327766  0  3.355897  0  0  -0.26503  0  3.589518  0  0  -0.282782  0  3.599852  0  -1.301883  0  -0.369759  -0.253109  0  3.582369  0
N  N90  1  0.10689537  0.21340772  0.66619967  1  0  -0.327614  0  3.355682  0  0  -0.264858  0  3.58935  0  0  -0.282603  0  3.599686  0  -1.30192  0  -0.36969  -0.252933  0  3.582202  0
N  N91  1  0.39310439  0.78659353  0.16619967  1  0  -0.327717  0  3.355714  0  0  -0.264945  0  3.589371  0  0  -0.282696  0  3.599709  0  -1.301866  0  -0.369695  -0.253022  0  3.582222  0
O  O92  1  0.39449241  0.35679777  0.31705683  1  0  -0.697785  0  2.069792  0  0  -0.614447  0  2.339556  0  0  -0.646489  0  2.323934  0  -1.176713  0  -0.333843  -0.591889  0  2.349566  0
O  O93  1  0.10550608  0.64320347  0.81705563  1  0  -0.697825  0  2.069776  0  0  -0.614494  0  2.339598  0  0  -0.646539  0  2.323977  0  -1.176735  0  -0.333841  -0.591934  0  2.349606  0
O  O94  1  0.60551025  0.64320099  0.68294258  1  0  -0.697729  0  2.069685  0  0  -0.614388  0  2.339543  0  0  -0.64643  0  2.323922  0  -1.176701  0  -0.333825  -0.591831  0  2.349553  0
O  O95  1  0.89449174  0.35679653  0.18294317  1  0  -0.697807  0  2.069759  0  0  -0.614468  0  2.33953  0  0  -0.646512  0  2.32391  0  -1.176729  0  -0.333845  -0.591911  0  2.34954  0
O  O96  1  0.62188296  0.54828948  0.30996903  1  0  -0.63134  0  1.973979  0  0  -0.568197  0  2.2042  0  0  -0.596259  0  2.194068  0  -1.187009  0  -0.311836  -0.548624  0  2.210557  0
O  O97  1  0.87811727  0.45171300  0.80996962  1  0  -0.631316  0  1.97389  0  0  -0.568236  0  2.204157  0  0  -0.596294  0  2.194018  0  -1.187008  0  -0.311844  -0.548663  0  2.210514  0
O  O98  1  0.37812291  0.45170557  0.69003276  1  0  -0.631406  0  1.973885  0  0  -0.56816  0  2.204093  0  0  -0.596235  0  2.193991  0  -1.187018  0  -0.311831  -0.548588  0  2.210451  0
O  O99  1  0.12188219  0.54828948  0.19003097  1  0  -0.631378  0  1.973914  0  0  -0.568236  0  2.204135  0  0  -0.596298  0  2.194001  0  -1.187024  0  -0.311834  -0.548663  0  2.210494  0
O  O100  1  0.27568955  0.79672091  0.64696688  1  0  -0.664514  0  2.053139  0  0  -0.603151  0  2.319615  0  0  -0.632614  0  2.30809  0  -1.178748  0  -0.335626  -0.582327  0  2.326552  0
O  O101  1  0.22431466  0.20327662  0.14696748  1  0  -0.664632  0  2.053317  0  0  -0.60326  0  2.3198  0  0  -0.632727  0  2.308275  0  -1.178719  0  -0.335683  -0.582419  0  2.326692  0
O  O102  1  0.72431399  0.20327538  0.35303312  1  0  -0.664556  0  2.053227  0  0  -0.60319  0  2.319716  0  0  -0.632655  0  2.308189  0  -1.178722  0  -0.335652  -0.58236  0  2.326634  0
O  O103  1  0.77568605  0.79672587  0.85303312  1  0  -0.664514  0  2.053246  0  0  -0.603143  0  2.319724  0  0  -0.632607  0  2.3082  0  -1.178735  0  -0.335628  -0.582311  0  2.326634  0
O  O104  1  0.02130889  0.63412243  0.62848404  1  0  -0.67233  0  1.99834  0  0  -0.612039  0  2.259442  0  0  -0.639593  0  2.24675  0  -1.184938  0  -0.346178  -0.592612  0  2.267453  0
O  O105  1  0.47869300  0.36587634  0.12848344  1  0  -0.672276  0  1.998391  0  0  -0.611975  0  2.259482  0  0  -0.63953  0  2.246794  0  -1.184938  0  -0.346124  -0.59254  0  2.267471  0
O  O106  1  0.97869019  0.36587758  0.37151596  1  0  -0.672323  0  1.998285  0  0  -0.612024  0  2.259396  0  0  -0.639578  0  2.246706  0  -1.184917  0  -0.346161  -0.592591  0  2.267392  0
O  O107  1  0.52130734  0.63412367  0.87151596  1  0  -0.672308  0  1.998343  0  0  -0.612003  0  2.259425  0  0  -0.639559  0  2.246735  0  -1.1849  0  -0.346148  -0.59256  0  2.267395  0
