# generated using pymatgen
data_CuH26C24N4O5
_symmetry_space_group_name_H-M   'P 1'
_cell_length_a   6.84410543
_cell_length_b   10.07996415
_cell_length_c   16.63006456
_cell_angle_alpha   86.67895748
_cell_angle_beta   83.51830659
_cell_angle_gamma   80.52927450
_symmetry_Int_Tables_number   1
_chemical_formula_structural   CuH26C24N4O5
_chemical_formula_sum   'Cu2 H52 C48 N8 O10'
_cell_volume   1123.50240522
_cell_formula_units_Z   2
loop_
 _symmetry_equiv_pos_site_id
 _symmetry_equiv_pos_as_xyz
  1  'x, y, z'
loop_
 _atom_site_type_symbol
 _atom_site_label
 _atom_site_symmetry_multiplicity
 _atom_site_fract_x
 _atom_site_fract_y
 _atom_site_fract_z
 _atom_site_occupancy
 _atom_site_hle17_ddec_charge
 _atom_site_hle17_ddec_spin_density
 _atom_site_hle17_ddec_sum_bond_order
 _atom_site_hle17_magmom
 _atom_site_hse06_10hf_bader_charge
 _atom_site_hse06_10hf_bader_spin_density
 _atom_site_hse06_10hf_ddec_charge
 _atom_site_hse06_10hf_ddec_spin_density
 _atom_site_hse06_10hf_ddec_sum_bond_order
 _atom_site_hse06_10hf_magmom
 _atom_site_hse06_ddec_charge
 _atom_site_hse06_ddec_spin_density
 _atom_site_hse06_ddec_sum_bond_order
 _atom_site_hse06_magmom
 _atom_site_pbe_cm5_charge
 _atom_site_pbe_ddec_charge
 _atom_site_pbe_ddec_spin_density
 _atom_site_pbe_ddec_sum_bond_order
 _atom_site_pbe_magmom
Cu  Cu0  1  0.07103642  0.16333352  0.24670149  1  0.855957  -0.702087  1.816065  -0.516  1.129468  -0.63439  0.836314  -0.784225  2.197907  -0.63  0.925935  -0.850088  2.131276  -0.716  0.735578  0.779487  -0.73619  2.245362  -0.573
Cu  Cu1  1  0.92896620  0.83666497  0.75329755  1  0.856032  -0.702086  1.815916  -0.516  1.129499  -0.634393  0.83637  -0.784228  2.197787  -0.63  0.925998  -0.850083  2.131162  -0.716  0.735568  0.779484  -0.73616  2.24529  -0.573
H  H2  1  0.51583633  0.16762883  0.24368318  1  0.426904  -2.1e-05  0.871258  0.0  0.627869  6.6e-05  0.404638  -3.9e-05  0.921631  0.0  0.415694  -3.8e-05  0.905391  0.0  0.281438  0.396957  -4.8e-05  0.932893  0.0
H  H3  1  0.48416582  0.83237167  0.75631641  1  0.426928  -2.1e-05  0.871246  0.0  0.62785  6.6e-05  0.404661  -3.9e-05  0.921617  0.0  0.415718  -3.8e-05  0.905376  0.0  0.281445  0.396976  -4.8e-05  0.932884  0.0
H  H4  1  0.35562624  0.30340144  0.23788183  1  0.407042  0.000184  0.898511  0.0  0.638152  9e-05  0.378564  0.000188  0.96058  0.0  0.390612  0.000196  0.942759  0.0  0.278417  0.37001  0.000153  0.973231  0.0
H  H5  1  0.64437169  0.69659806  0.76211979  1  0.407076  0.000184  0.89846  0.0  0.63813  9e-05  0.378604  0.000188  0.960519  0.0  0.390652  0.000196  0.942699  0.0  0.278434  0.370049  0.000153  0.973169  0.0
H  H6  1  0.78863309  0.29358986  0.60693510  1  0.057542  -0.000602  0.920323  -0.001  0.033626  -0.000436  0.074905  -0.00021  0.986632  0.0  0.074692  -0.000134  0.986975  0.0  0.097219  0.07514  -0.000308  0.986191  0.0
H  H7  1  0.21137222  0.70640962  0.39306499  1  0.057485  -0.000599  0.920325  -0.001  0.033597  -0.000436  0.074856  -0.00021  0.986644  0.0  0.074646  -0.000134  0.986978  0.0  0.097206  0.075091  -0.000309  0.98621  0.0
H  H8  1  0.94480307  0.41270197  0.57306406  1  0.087477  -0.000203  0.908104  0.0  0.07346  -0.000145  0.106225  -6.7e-05  0.966697  0.0  0.106037  -7.9e-05  0.967493  0.0  0.114121  0.106077  -5.8e-05  0.966492  0.0
H  H9  1  0.05520202  0.58729852  0.42693480  1  0.087446  -0.000197  0.908019  0.0  0.073501  -0.000144  0.106199  -6.7e-05  0.966639  0.0  0.106009  -7.9e-05  0.967436  0.0  0.114121  0.106052  -5.8e-05  0.966441  0.0
H  H10  1  0.97850916  0.42506199  0.92092369  1  0.081467  -0.00021  0.913748  0.0  0.054507  -0.000148  0.100781  -6.3e-05  0.972636  0.0  0.100344  -7.8e-05  0.973643  0.0  0.112227  0.100779  -4.6e-05  0.972339  0.0
H  H11  1  0.02148878  0.57493751  0.07907733  1  0.081464  -0.000213  0.913763  0.0  0.0542  -0.000148  0.10081  -6.3e-05  0.972628  0.0  0.100374  -7.8e-05  0.973634  0.0  0.112225  0.100807  -4.6e-05  0.972328  0.0
H  H12  1  0.83401041  0.30942787  0.89198578  1  0.051614  -0.000589  0.925736  -0.001  0.035486  -0.000436  0.068265  -0.000201  0.993991  0.0  0.068285  -0.000125  0.993934  0.0  0.094634  0.068291  -0.00031  0.993881  0.0
H  H13  1  0.16598536  0.69057465  0.10801522  1  0.051613  -0.00059  0.925736  -0.001  0.03545  -0.000436  0.068263  -0.000202  0.994007  0.0  0.068285  -0.000125  0.993948  0.0  0.09463  0.068287  -0.00031  0.993898  0.0
H  H14  1  0.14952507  0.14520955  0.89254677  1  0.095974  -0.000242  0.970494  -0.001  0.0973  -8.5e-05  0.109032  2.3e-05  1.027568  0.0  0.110251  7.3e-05  1.028021  0.0  0.104462  0.107972  -2.7e-05  1.027506  0.0
H  H15  1  0.85046452  0.85478796  0.10745408  1  0.095986  -0.000241  0.970429  -0.001  0.097294  -8.5e-05  0.109045  2.3e-05  1.027504  0.0  0.110264  7.4e-05  1.027955  0.0  0.104472  0.107985  -2.7e-05  1.027442  0.0
H  H16  1  0.45586060  0.32635095  0.55637137  1  0.042465  -3.8e-05  0.924453  0.0  0.008838  3e-06  0.056678  1.8e-05  0.996353  0.0  0.057045  2.8e-05  0.996757  0.0  0.08724  0.056356  -5e-06  0.996084  0.0
H  H17  1  0.54414153  0.67364954  0.44362882  1  0.042459  -3.6e-05  0.924405  0.0  0.008822  3e-06  0.05667  1.8e-05  0.996317  0.0  0.057036  2.8e-05  0.996721  0.0  0.087241  0.056346  -4e-06  0.996056  0.0
H  H18  1  0.59430833  0.26595623  0.46452367  1  0.054837  0.0  0.945241  0.0  0.001458  -3.2e-05  0.074727  -1.3e-05  1.005417  0.0  0.074063  -6e-06  1.006781  0.0  0.100023  0.075177  -2.1e-05  1.004544  0.0
H  H19  1  0.40569529  0.73404427  0.53547586  1  0.054823  1e-06  0.945257  0.0  0.001467  -3.2e-05  0.074696  -1.3e-05  1.005445  0.0  0.074033  -6e-06  1.00681  0.0  0.100016  0.075145  -2.1e-05  1.004565  0.0
H  H20  1  0.34748313  0.97032177  0.97733664  1  0.101276  -0.000547  0.957607  -0.001  0.095597  -0.001003  0.11272  -0.000511  1.015318  -0.001  0.114874  -0.000368  1.016022  0.0  0.107886  0.111158  -0.000629  1.014966  -0.001
H  H21  1  0.65251337  0.02967774  0.02266263  1  0.101299  -0.000547  0.957585  -0.001  0.095566  -0.001003  0.11275  -0.00051  1.015288  -0.001  0.114904  -0.000368  1.015993  0.0  0.10789  0.111187  -0.000629  1.014939  -0.001
H  H22  1  0.59208168  0.26958263  0.05030891  1  0.058085  7e-06  0.94825  0.0  0.061456  -1.2e-05  0.075541  -9e-06  1.012707  0.0  0.075512  -5e-06  1.012979  0.0  0.098741  0.075562  -1.4e-05  1.012546  0.0
H  H23  1  0.40791601  0.73041787  0.94969329  1  0.058093  6e-06  0.948258  0.0  0.061469  -1.3e-05  0.075519  -1e-05  1.012742  0.0  0.075489  -5e-06  1.013016  0.0  0.098738  0.075542  -1.4e-05  1.012579  0.0
H  H24  1  0.49005642  0.32156712  0.95684218  1  0.036884  -3.8e-05  0.927984  0.0  0.021404  6e-06  0.050302  1.6e-05  1.001747  0.0  0.050849  2.2e-05  1.001908  0.0  0.084444  0.049968  -5e-06  1.00156  0.0
H  H25  1  0.50994105  0.67843439  0.04315939  1  0.0369  -3.8e-05  0.928012  0.0  0.021429  6e-06  0.050325  1.6e-05  1.001755  0.0  0.050873  2.2e-05  1.001916  0.0  0.084449  0.049989  -5e-06  1.001571  0.0
H  H26  1  0.73900199  0.60722896  0.55983715  1  0.061244  3.5e-05  0.953475  0.0  0.059825  1.2e-05  0.078221  2.8e-05  1.015999  0.0  0.077516  2.7e-05  1.018229  0.0  0.098774  0.078597  3e-05  1.014728  0.0
H  H27  1  0.26100140  0.39277254  0.44016235  1  0.061223  3.5e-05  0.953479  0.0  0.059878  1.2e-05  0.078224  2.8e-05  1.015963  0.0  0.077516  2.7e-05  1.018196  0.0  0.098781  0.078612  3e-05  1.01468  0.0
H  H28  1  0.54182953  0.53328115  0.61327755  1  0.055981  -6.9e-05  0.921527  0.0  0.023847  -2.1e-05  0.073372  -2e-06  0.986007  0.0  0.07367  8e-06  0.985722  0.0  0.093826  0.072884  -2.5e-05  0.986468  0.0
H  H29  1  0.45817532  0.46672035  0.38672249  1  0.055959  -7.1e-05  0.921537  0.0  0.023833  -2e-05  0.073347  -2e-06  0.986022  0.0  0.073644  8e-06  0.985735  0.0  0.093812  0.072859  -2.5e-05  0.986493  0.0
H  H30  1  0.58402933  0.52960855  0.88347020  1  0.053569  -6.4e-05  0.92692  0.0  0.053234  4e-06  0.069272  4e-06  0.994602  0.0  0.069464  6e-06  0.994445  0.0  0.093462  0.068804  -1.6e-05  0.995137  0.0
H  H31  1  0.41596838  0.47039196  0.11653139  1  0.053557  -6.7e-05  0.926852  0.0  0.053263  4e-06  0.069258  4e-06  0.994559  0.0  0.06945  5e-06  0.994402  0.0  0.09346  0.068789  -1.7e-05  0.995098  0.0
H  H32  1  0.75411117  0.61372628  0.92565726  1  0.063379  0.000129  0.949169  0.0  0.03856  3.9e-05  0.081877  7.2e-05  1.008565  0.0  0.08104  7.2e-05  1.010982  0.0  0.100761  0.082362  7e-05  1.007174  0.0
H  H33  1  0.24588653  0.38627423  0.07434494  1  0.063368  0.000128  0.949145  0.0  0.038545  4e-05  0.081876  7.2e-05  1.008538  0.0  0.08104  7.2e-05  1.010953  0.0  0.100752  0.082361  7e-05  1.007152  0.0
H  H34  1  0.12817256  0.13718683  0.59659602  1  0.097202  -0.000193  0.973309  -0.001  0.078111  -5.5e-05  0.10926  3e-05  1.033185  0.0  0.110903  7e-05  1.032609  0.0  0.105808  0.107913  -2e-06  1.03386  0.0
H  H35  1  0.87183470  0.86281063  0.40340345  1  0.097225  -0.000193  0.973305  -0.001  0.078119  -5.5e-05  0.109264  3e-05  1.033188  0.0  0.110906  7e-05  1.032613  0.0  0.105801  0.107909  -2e-06  1.033879  0.0
H  H36  1  0.48903803  0.92004386  0.24666344  1  0.100162  1.5e-05  0.960812  0.0  0.105014  4e-06  0.108622  6.6e-05  1.026751  0.0  0.111382  6.8e-05  1.024354  0.0  0.103832  0.106334  7.4e-05  1.028875  0.0
H  H37  1  0.51096268  0.07995665  0.75333381  1  0.100126  1.1e-05  0.960874  0.0  0.104956  4e-06  0.108607  6.6e-05  1.026811  0.0  0.111367  6.8e-05  1.024413  0.0  0.103824  0.10632  7.4e-05  1.028935  0.0
H  H38  1  0.29208096  0.98398067  0.12882836  1  0.08465  -0.000879  0.935232  -0.002  0.111778  -0.00187  0.094027  -0.000767  0.99866  -0.002  0.095705  -0.000534  0.996575  -0.001  0.119063  0.092515  -0.000956  1.000378  -0.002
H  H39  1  0.70792072  0.01602184  0.87117118  1  0.084639  -0.000878  0.935202  -0.002  0.111746  -0.00187  0.09402  -0.000767  0.998629  -0.002  0.095697  -0.000534  0.996545  -0.001  0.119094  0.092508  -0.000956  1.000345  -0.002
H  H40  1  0.62189997  0.48760430  0.23607036  1  0.109797  -0.000309  0.943466  0.0  0.104341  -0.000177  0.11909  -0.000171  1.004822  0.0  0.123528  -0.000103  1.000137  0.0  0.108284  0.115814  -0.000254  1.008168  0.0
H  H41  1  0.37809799  0.51239520  0.76393006  1  0.109784  -0.000309  0.943482  0.0  0.104361  -0.000177  0.119087  -0.000171  1.004836  0.0  0.123526  -0.000103  1.000152  0.0  0.108279  0.115812  -0.000254  1.008181  0.0
H  H42  1  0.34794762  0.97229110  0.50587153  1  0.099837  -0.000559  0.961672  -0.001  0.071923  -0.00104  0.111442  -0.000526  1.019253  -0.001  0.114002  -0.000382  1.019364  0.0  0.107558  0.109572  -0.000647  1.019406  -0.001
H  H43  1  0.65205524  0.02770638  0.49412693  1  0.099847  -0.00056  0.961709  -0.001  0.071995  -0.00104  0.111453  -0.000526  1.019288  -0.001  0.114012  -0.000382  1.0194  0.0  0.10756  0.109584  -0.000647  1.019444  -0.001
H  H44  1  0.37831915  0.69826297  0.23224277  1  0.093203  -0.000229  0.972309  0.0  0.089074  -0.000331  0.100066  -0.000175  1.04084  0.0  0.104034  -0.000101  1.03758  0.0  0.098444  0.096923  -0.000149  1.04373  0.0
H  H45  1  0.62168303  0.30173753  0.76775382  1  0.093205  -0.000229  0.972229  0.0  0.089085  -0.000331  0.100071  -0.000175  1.040756  0.0  0.104038  -0.000101  1.037499  0.0  0.098452  0.096928  -0.000149  1.043647  0.0
H  H46  1  0.86909048  0.32285139  0.38554281  1  0.096381  -0.0008  0.962313  -0.002  0.144995  -0.001682  0.098552  -0.000676  1.035794  -0.001  0.10166  -0.000464  1.032345  -0.001  0.12159  0.096028  -0.000853  1.038584  -0.002
H  H47  1  0.13091802  0.67714708  0.61445657  1  0.096362  -0.000802  0.96223  -0.002  0.144974  -0.001683  0.098552  -0.000677  1.035689  -0.001  0.101672  -0.000464  1.032237  -0.001  0.121564  0.096025  -0.000853  1.038473  -0.002
H  H48  1  0.31805283  0.99372162  0.35652075  1  0.081303  -0.000812  0.951199  -0.002  0.105616  -0.001814  0.087699  -0.000719  1.021068  -0.001  0.089727  -0.000495  1.01817  -0.001  0.117258  0.085997  -0.0009  1.023228  -0.002
H  H49  1  0.68195002  0.00627586  0.64347832  1  0.081319  -0.000812  0.95121  -0.002  0.105565  -0.001814  0.087742  -0.000719  1.02104  -0.001  0.089772  -0.000495  1.01814  -0.001  0.117256  0.086041  -0.0009  1.023198  -0.002
H  H50  1  0.86136866  0.32245346  0.11373125  1  0.10355  -0.000829  0.950799  -0.002  0.150125  -0.001594  0.104971  -0.000647  1.024726  -0.002  0.108361  -0.000424  1.020637  -0.001  0.122874  0.102247  -0.000839  1.027957  -0.002
H  H51  1  0.13862907  0.67754704  0.88626854  1  0.10354  -0.00083  0.950768  -0.002  0.150158  -0.001594  0.104965  -0.000647  1.02469  -0.002  0.108352  -0.000424  1.020604  -0.001  0.12287  0.102241  -0.000838  1.027919  -0.002
H  H52  1  0.08531629  0.71487726  0.26634836  1  0.09557  -0.000357  0.985547  0.0  0.100714  -0.000437  0.101207  -0.000311  1.06058  0.0  0.105837  -0.000198  1.055295  0.0  0.101143  0.097911  -0.000435  1.064485  0.0
H  H53  1  0.91468191  0.28512123  0.73365087  1  0.095607  -0.000356  0.985472  0.0  0.100738  -0.000437  0.101266  -0.000311  1.060494  0.0  0.105897  -0.000198  1.055207  0.0  0.10115  0.097967  -0.000435  1.0644  0.0
C  C54  1  0.84994017  0.34654106  0.55155844  1  -0.035503  -0.000423  3.720514  0.0  0.340299  -0.000774  -0.096626  -0.000524  3.974916  -0.001  -0.09243  -0.000343  3.988045  0.0  -0.05531  -0.09913  -0.000678  3.965577  -0.001
C  C55  1  0.15006662  0.65345842  0.44844098  1  -0.035317  -0.000444  3.720348  0.0  0.340216  -0.000776  -0.09647  -0.000525  3.974805  -0.001  -0.09227  -0.000343  3.987929  0.0  -0.055271  -0.098976  -0.000678  3.965472  -0.001
C  C56  1  0.87482773  0.35610842  0.94555692  1  -0.035259  -0.00044  3.729953  0.0  0.343844  -0.000778  -0.096543  -0.000529  3.985531  -0.001  -0.092466  -0.000355  3.99928  0.0  -0.0568  -0.098948  -0.000676  3.975799  -0.001
C  C57  1  0.12516851  0.64389209  0.05444413  1  -0.035336  -0.000428  3.729881  0.0  0.344246  -0.000775  -0.096652  -0.000528  3.98551  -0.001  -0.092578  -0.000356  3.999259  0.0  -0.056833  -0.099044  -0.000676  3.97577  -0.001
C  C58  1  0.12837163  0.14715288  0.95842840  1  -0.05491  0.013817  3.698455  0.009  -0.04764  0.004467  -0.078163  0.004963  3.938096  0.003  -0.074778  0.005499  3.956974  0.003  -0.068816  -0.080465  0.004545  3.926013  0.003
C  C59  1  0.87162363  0.85284562  0.04157096  1  -0.054948  0.013799  3.698463  0.009  -0.047634  0.004466  -0.078188  0.004963  3.93811  0.003  -0.074802  0.005499  3.95699  0.003  -0.068836  -0.080492  0.004544  3.926029  0.003
C  C60  1  0.53307236  0.35757141  0.49754443  1  -0.018578  0.000153  3.700836  0.0  0.346382  4.1e-05  -0.077075  4.8e-05  3.966163  0.0  -0.073776  3.5e-05  3.978844  0.0  -0.070886  -0.079212  4e-05  3.957245  0.0
C  C61  1  0.46693270  0.64242908  0.50245684  1  -0.018572  0.000146  3.700727  0.0  0.345943  4.2e-05  -0.077047  5e-05  3.96606  0.0  -0.073746  3.5e-05  3.978737  0.0  -0.070909  -0.079181  4e-05  3.957133  0.0
C  C62  1  0.23937861  0.05055461  0.00524492  1  -0.11993  -0.009572  3.769131  -0.01  -0.028062  -0.005695  -0.130247  -0.003718  4.018414  -0.005  -0.137421  -0.00341  4.04046  -0.004  -0.084131  -0.125859  -0.003939  4.003997  -0.005
C  C63  1  0.76061618  0.94944590  0.99475499  1  -0.120023  -0.009566  3.769118  -0.01  -0.028032  -0.005696  -0.130351  -0.003718  4.018412  -0.005  -0.137526  -0.003411  4.040456  -0.004  -0.084181  -0.125965  -0.003939  4.003996  -0.005
C  C64  1  0.54100492  0.35782235  0.01169391  1  -0.019563  0.000107  3.698845  0.0  0.276522  3e-05  -0.077101  2.9e-05  3.961949  0.0  -0.074048  2.2e-05  3.974641  0.0  -0.072638  -0.079069  3.5e-05  3.952862  0.0
C  C65  1  0.45899255  0.64217916  0.98830766  1  -0.019613  0.000107  3.698951  0.0  0.276459  2.7e-05  -0.077118  2.7e-05  3.962005  0.0  -0.074065  2.2e-05  3.974695  0.0  -0.072645  -0.07909  3.5e-05  3.952926  0.0
C  C66  1  0.98847954  0.24762856  0.99615080  1  0.040427  -0.009888  3.715232  -0.011  0.005082  -0.005796  0.062497  -0.003729  3.954702  -0.005  0.057947  -0.003383  3.9772  -0.004  0.003498  0.065034  -0.003993  3.939887  -0.005
C  C67  1  0.01151523  0.75237195  0.00385031  1  0.040496  -0.009888  3.71521  -0.011  0.005076  -0.005798  0.062554  -0.003731  3.954691  -0.005  0.057999  -0.003383  3.977198  -0.004  0.003542  0.065086  -0.003993  3.939878  -0.005
C  C68  1  0.61524929  0.55409464  0.55194978  1  -0.014096  3.9e-05  3.67907  0.0  0.321547  2.5e-05  -0.070755  3.1e-05  3.941395  0.0  -0.066656  2.6e-05  3.952737  0.0  -0.07005  -0.073417  -2e-06  3.933667  0.0
C  C69  1  0.38475430  0.44590586  0.44805095  1  -0.014036  4.2e-05  3.679129  0.0  0.321358  2.6e-05  -0.070682  3.1e-05  3.941426  0.0  -0.066583  2.6e-05  3.952774  0.0  -0.070018  -0.07335  -2e-06  3.933706  0.0
C  C70  1  0.63182089  0.55586568  0.94128516  1  -0.013057  8.3e-05  3.67826  0.0  0.292934  7.2e-05  -0.067574  7.6e-05  3.938718  0.0  -0.063648  7.6e-05  3.950658  0.0  -0.071379  -0.070264  4.1e-05  3.930767  0.0
C  C71  1  0.36817658  0.44413584  0.05871640  1  -0.013067  8.6e-05  3.678044  0.0  0.292679  6.9e-05  -0.067605  7.3e-05  3.938579  0.0  -0.06368  7.9e-05  3.950514  0.0  -0.071392  -0.070299  4.1e-05  3.930644  0.0
C  C72  1  0.11848158  0.14362013  0.53158770  1  -0.050969  0.013571  3.693997  0.009  -0.02066  0.004351  -0.075342  0.00483  3.935713  0.003  -0.071618  0.005357  3.953735  0.003  -0.067055  -0.077779  0.004411  3.924034  0.002
C  C73  1  0.88152003  0.85637635  0.46841146  1  -0.050975  0.013568  3.693985  0.009  -0.020685  0.004351  -0.075313  0.00483  3.935669  0.003  -0.071587  0.005356  3.953688  0.003  -0.067035  -0.077749  0.004411  3.924005  0.002
C  C74  1  0.98085722  0.24396982  0.49836987  1  0.032487  -0.009311  3.729859  -0.01  -0.002796  -0.005238  0.055037  -0.003412  3.970174  -0.004  0.050743  -0.003142  3.992141  -0.004  0.000741  0.057452  -0.003629  3.955583  -0.004
C  C75  1  0.01914957  0.75602966  0.50162955  1  0.032384  -0.009312  3.729922  -0.01  -0.002896  -0.005238  0.054937  -0.003412  3.97025  -0.004  0.050646  -0.003142  3.992212  -0.004  0.000698  0.057351  -0.003629  3.955654  -0.004
C  C76  1  0.59368151  0.82623437  0.24881263  1  -0.074829  0.003908  3.734758  0.002  -0.113209  0.000527  -0.102361  0.000799  3.984341  0.0  -0.100234  0.00106  4.003511  0.0  -0.085989  -0.102846  0.000339  3.970591  0.0
C  C77  1  0.40632404  0.17376410  0.75118689  1  -0.074856  0.00395  3.734671  0.002  -0.113164  0.000528  -0.102423  0.000799  3.98428  0.0  -0.100296  0.001058  4.003449  0.0  -0.085994  -0.102911  0.000339  3.970532  0.0
C  C78  1  0.20945035  0.05686003  0.08916177  1  0.120973  0.011532  3.696787  0.008  0.479603  0.002195  0.089494  0.002581  3.952883  0.001  0.09801  0.004257  3.972342  0.003  0.044762  0.084257  0.00134  3.940118  0.0
C  C79  1  0.79055011  0.94314148  0.91083666  1  0.121048  0.011522  3.696705  0.008  0.479609  0.002194  0.089576  0.00258  3.952814  0.001  0.098092  0.004258  3.972275  0.003  0.044748  0.08434  0.00134  3.94004  0.0
C  C80  1  0.86931505  0.58762833  0.25202034  1  -0.070883  -0.010396  3.755346  -0.011  -0.020962  -0.008151  -0.045173  -0.005395  3.987902  -0.006  -0.054597  -0.003964  4.010108  -0.005  -0.019608  -0.039568  -0.006361  3.973748  -0.007
C  C81  1  0.13068166  0.41237017  0.74798076  1  -0.070859  -0.010416  3.755165  -0.011  -0.02088  -0.008154  -0.045138  -0.005397  3.987749  -0.006  -0.054563  -0.003963  4.009955  -0.005  -0.019574  -0.039539  -0.006361  3.973603  -0.007
C  C82  1  0.66929016  0.58409293  0.24223514  1  -0.045643  0.005047  3.69601  0.003  -0.100131  0.001155  -0.077034  0.001305  3.951051  0.001  -0.072254  0.001464  3.965532  0.001  -0.07563  -0.079111  0.001086  3.940608  0.001
C  C83  1  0.33070781  0.41590657  0.75776407  1  -0.04559  0.005079  3.696026  0.003  -0.100117  0.001157  -0.076983  0.001307  3.951059  0.001  -0.072203  0.001461  3.96554  0.001  -0.075599  -0.079059  0.001087  3.940614  0.001
C  C84  1  0.24186239  0.05249267  0.48122238  1  -0.11561  -0.009426  3.759135  -0.01  0.022495  -0.005633  -0.125921  -0.003697  4.006665  -0.004  -0.133025  -0.003398  4.028122  -0.004  -0.084529  -0.121607  -0.003913  3.992787  -0.005
C  C85  1  0.75813730  0.94750583  0.51877558  1  -0.115639  -0.009424  3.7591  -0.01  0.022525  -0.005634  -0.125962  -0.003698  4.006639  -0.004  -0.133067  -0.003398  4.028095  -0.004  -0.084561  -0.121651  -0.003912  3.992767  -0.005
C  C86  1  0.53264679  0.70301495  0.24038303  1  -0.077806  -0.002264  3.771854  -0.002  0.016798  -0.000804  -0.092022  -0.000472  4.035294  -0.001  -0.096135  -0.000488  4.054651  -0.001  -0.092793  -0.089426  -0.000537  4.021869  -0.001
C  C87  1  0.46735071  0.29698656  0.75961613  1  -0.077829  -0.002284  3.771832  -0.002  0.016788  -0.000805  -0.09205  -0.000473  4.035311  -0.001  -0.096162  -0.000486  4.054667  -0.001  -0.092834  -0.089452  -0.000537  4.021882  -0.001
C  C88  1  0.97318981  0.24710328  0.41477272  1  0.076005  0.011497  3.658863  0.008  0.458829  0.002531  0.036806  0.002987  3.918386  0.002  0.046396  0.004543  3.933336  0.003  0.045785  0.030614  0.00183  3.909008  0.001
C  C89  1  0.02681216  0.75290426  0.58522784  1  0.076143  0.0115  3.658981  0.008  0.458682  0.002531  0.036959  0.002987  3.918445  0.002  0.046515  0.004543  3.933449  0.003  0.045863  0.030771  0.00183  3.909043  0.001
C  C90  1  0.86015273  0.96433218  0.26422158  1  0.61652  0.007427  3.940434  0.008  1.595098  0.002068  0.571877  0.00249  4.244868  0.003  0.608185  0.002687  4.238707  0.003  0.189635  0.547659  0.00177  4.247525  0.003
C  C91  1  0.13984964  0.03566731  0.73577864  1  0.616308  0.007434  3.940599  0.008  1.5951  0.002068  0.571662  0.002489  4.245041  0.003  0.607969  0.002688  4.238882  0.003  0.189554  0.54744  0.001771  4.24769  0.003
C  C92  1  0.79352550  0.83110252  0.25829327  1  -0.085481  -0.008511  3.795303  -0.009  -0.092125  -0.006872  -0.056246  -0.004631  4.023801  -0.005  -0.06573  -0.003495  4.045734  -0.004  -0.027838  -0.049735  -0.006029  4.008392  -0.007
C  C93  1  0.20647247  0.16889699  0.74170594  1  -0.085375  -0.00853  3.795181  -0.009  -0.092124  -0.006871  -0.05612  -0.00463  4.02368  -0.005  -0.065604  -0.003494  4.045615  -0.004  -0.027806  -0.049611  -0.006028  4.008271  -0.007
C  C94  1  0.22552382  0.06299902  0.39838562  1  0.121074  0.011091  3.697012  0.007  0.465702  0.002001  0.090817  0.002359  3.951954  0.001  0.099559  0.003979  3.970987  0.003  0.045279  0.085359  0.001154  3.939479  0.0
C  C95  1  0.77447879  0.93699946  0.60161403  1  0.121033  0.011087  3.69701  0.007  0.465936  0.002003  0.090761  0.002361  3.951949  0.001  0.099505  0.003979  3.970977  0.003  0.045287  0.085302  0.001153  3.939461  0.0
C  C96  1  0.96629164  0.24620463  0.08072767  1  0.074495  0.010622  3.645653  0.007  0.460963  0.002021  0.037495  0.002397  3.902347  0.002  0.046781  0.004104  3.9181  0.003  0.04793  0.031339  0.00115  3.892848  0.001
C  C97  1  0.03370608  0.75379587  0.91927272  1  0.074459  0.01062  3.645656  0.007  0.460988  0.002022  0.037479  0.002398  3.902355  0.002  0.04678  0.004104  3.918085  0.003  0.047926  0.031322  0.00115  3.892848  0.001
C  C98  1  0.93006377  0.71154550  0.25959082  1  -0.081157  0.00296  3.730766  0.002  0.002707  -0.000526  -0.119783  -0.000119  3.981876  0.0  -0.11605  0.000455  3.998677  0.0  -0.081572  -0.122636  -0.000346  3.971739  -0.001
C  C99  1  0.06993635  0.28845098  0.74041020  1  -0.081219  0.00298  3.730749  0.002  0.002669  -0.000526  -0.119898  -0.000119  3.981916  0.0  -0.116164  0.000454  3.998716  0.0  -0.081624  -0.122748  -0.000346  3.971777  -0.001
C  C100  1  0.01885708  0.45974939  0.25249803  1  0.629879  0.006278  3.916836  0.007  1.59372  0.001222  0.585589  0.001423  4.217827  0.002  0.622972  0.001677  4.211516  0.002  0.204869  0.560351  0.00098  4.221156  0.003
C  C101  1  0.98113837  0.54024810  0.74750437  1  0.630041  0.006278  3.916728  0.007  1.593772  0.001224  0.58573  0.001427  4.217747  0.002  0.623116  0.001677  4.211436  0.002  0.204961  0.560491  0.00098  4.22107  0.003
N  N102  1  0.70380811  0.43496172  0.98929816  1  -0.237879  -0.001602  3.240826  -0.002  -1.074312  -0.000285  -0.163943  -0.000179  3.506638  0.0  -0.179152  -4.9e-05  3.525908  0.0  -0.346606  -0.152884  -0.000536  3.492613  -0.001
N  N103  1  0.29618961  0.56503879  0.01070283  1  -0.237802  -0.001602  3.240678  -0.002  -1.074153  -0.000284  -0.163873  -0.000178  3.506525  0.0  -0.179082  -4.9e-05  3.525796  0.0  -0.346585  -0.152813  -0.000535  3.492502  -0.001
N  N104  1  0.69517183  0.42974728  0.51023948  1  -0.237182  -0.001791  3.255171  -0.002  -1.098506  -0.000491  -0.161729  -0.000313  3.520413  0.0  -0.177051  -0.000106  3.539835  0.0  -0.344753  -0.150846  -0.000763  3.506443  -0.001
N  N105  1  0.30483177  0.57025322  0.48976125  1  -0.237261  -0.001789  3.255191  -0.002  -1.098151  -0.000492  -0.161822  -0.000314  3.520475  0.0  -0.177146  -0.000106  3.539896  0.0  -0.344764  -0.150935  -0.000763  3.506503  -0.001
N  N106  1  0.07555264  0.15342946  0.12582903  1  -0.275562  -0.077102  3.335265  -0.098  -1.253694  -0.080744  -0.223962  -0.052358  3.622639  -0.071  -0.254849  -0.04253  3.647052  -0.062  -0.343998  -0.205406  -0.058013  3.607941  -0.075
N  N107  1  0.92444678  0.84657004  0.87417132  1  -0.275565  -0.077094  3.335222  -0.098  -1.25369  -0.080743  -0.223998  -0.052357  3.622624  -0.071  -0.25489  -0.04253  3.647042  -0.062  -0.343995  -0.205425  -0.058016  3.60791  -0.075
N  N108  1  0.09280199  0.15884297  0.36611272  1  -0.28752  -0.074924  3.363715  -0.096  -1.261662  -0.078634  -0.237191  -0.05101  3.655133  -0.07  -0.267855  -0.041324  3.678664  -0.061  -0.34478  -0.218705  -0.056799  3.641149  -0.074
N  N109  1  0.90720379  0.84115450  0.63388682  1  -0.287554  -0.074912  3.36395  -0.096  -1.261593  -0.078627  -0.237242  -0.051006  3.655384  -0.07  -0.267903  -0.041321  3.678916  -0.061  -0.344805  -0.218738  -0.056798  3.641377  -0.074
O  O110  1  0.73363102  0.06864617  0.27707835  1  -0.627434  0.002212  1.951309  0.0  -1.223566  0.001709  -0.587124  0.002394  2.177505  0.0  -0.612516  0.003069  2.165544  0.001  -0.325521  -0.568985  0.000665  2.185314  -0.001
O  O111  1  0.26637158  0.93135231  0.72292189  1  -0.627282  0.002212  1.951388  0.0  -1.223596  0.001712  -0.586965  0.002397  2.177584  0.0  -0.612358  0.003069  2.165628  0.001  -0.325413  -0.568821  0.000665  2.185389  -0.001
O  O112  1  0.94349242  0.35329212  0.24253566  1  -0.610648  -0.085589  2.116289  -0.117  -1.166558  -0.085197  -0.586444  -0.052732  2.408508  -0.08  -0.629241  -0.038592  2.399113  -0.064  -0.329968  -0.55709  -0.062898  2.414986  -0.09
O  O113  1  0.05650452  0.64670537  0.75746547  1  -0.610828  -0.085586  2.116323  -0.117  -1.166653  -0.085198  -0.586613  -0.052732  2.40856  -0.08  -0.629415  -0.038593  2.399175  -0.064  -0.330039  -0.557243  -0.062905  2.415031  -0.09
O  O114  1  0.19761442  0.46342818  0.26170734  1  -0.605654  0.000646  1.931905  -0.001  -1.202667  -0.00024  -0.559787  0.000683  2.158928  -0.001  -0.585354  0.00135  2.15124  0.0  -0.312629  -0.541679  -7.3e-05  2.163652  -0.001
O  O115  1  0.80238373  0.53657032  0.73829550  1  -0.605696  0.000645  1.93191  -0.001  -1.202716  -0.000242  -0.559796  0.000682  2.158888  -0.001  -0.585354  0.001349  2.151183  0.0  -0.312649  -0.54169  -7.2e-05  2.163608  -0.001
O  O116  1  0.05078455  0.96403592  0.25496543  1  -0.608794  -0.089914  2.017982  -0.122  -1.161393  -0.091219  -0.586061  -0.056775  2.30049  -0.085  -0.628368  -0.041951  2.295197  -0.068  -0.330431  -0.557475  -0.066043  2.303862  -0.093
O  O117  1  0.94921318  0.03596459  0.74503496  1  -0.608785  -0.089924  2.017984  -0.122  -1.161385  -0.091224  -0.586056  -0.056778  2.300487  -0.085  -0.628366  -0.041953  2.295197  -0.068  -0.330449  -0.557459  -0.066051  2.303855  -0.093
O  O118  1  0.39983178  0.21207818  0.21654997  1  -0.861231  -0.00054  1.825685  -0.003  -1.270233  -0.001852  -0.821755  -0.000916  1.992559  -0.003  -0.842344  -8e-05  1.956975  -0.002  -0.607867  -0.806733  -0.001755  2.01748  -0.004
O  O119  1  0.60016741  0.78792232  0.78345035  1  -0.861286  -0.00054  1.825634  -0.003  -1.270196  -0.00185  -0.821809  -0.000915  1.992508  -0.003  -0.8424  -7.9e-05  1.956922  -0.002  -0.607884  -0.806788  -0.001755  2.017449  -0.004
