# generated using pymatgen
data_ZnH8C10(N3O2)2
_symmetry_space_group_name_H-M   'P 1'
_cell_length_a   7.57560579
_cell_length_b   11.57352687
_cell_length_c   14.70798002
_cell_angle_alpha   90.00027178
_cell_angle_beta   90.00019318
_cell_angle_gamma   90.00011299
_symmetry_Int_Tables_number   1
_chemical_formula_structural   ZnH8C10(N3O2)2
_chemical_formula_sum   'Zn4 H32 C40 N24 O16'
_cell_volume   1289.54387479
_cell_formula_units_Z   4
loop_
 _symmetry_equiv_pos_site_id
 _symmetry_equiv_pos_as_xyz
  1  'x, y, z'
loop_
 _atom_site_type_symbol
 _atom_site_label
 _atom_site_symmetry_multiplicity
 _atom_site_fract_x
 _atom_site_fract_y
 _atom_site_fract_z
 _atom_site_occupancy
 _atom_site_hle17_bader_spin_density
 _atom_site_hle17_ddec_charge
 _atom_site_hle17_ddec_spin_density
 _atom_site_hle17_ddec_sum_bond_order
 _atom_site_hle17_magmom
 _atom_site_hse06_10hf_bader_spin_density
 _atom_site_hse06_10hf_ddec_charge
 _atom_site_hse06_10hf_ddec_spin_density
 _atom_site_hse06_10hf_ddec_sum_bond_order
 _atom_site_hse06_10hf_magmom
 _atom_site_hse06_bader_spin_density
 _atom_site_hse06_ddec_charge
 _atom_site_hse06_ddec_spin_density
 _atom_site_hse06_ddec_sum_bond_order
 _atom_site_hse06_magmom
 _atom_site_pbe_bader_spin_density
 _atom_site_pbe_cm5_charge
 _atom_site_pbe_ddec_charge
 _atom_site_pbe_ddec_spin_density
 _atom_site_pbe_ddec_sum_bond_order
 _atom_site_pbe_magmom
Zn  Zn0  1  0.50000050  0.66209634  0.75000268  1  0  0.903936  0  1.826102  0  0  0.692805  0  2.288763  0  0  0.750126  0  2.233876  0  0  0.658396  0.652964  0  2.326457  0
Zn  Zn1  1  0.00000213  0.83790869  0.25000326  1  0  0.903939  0  1.82607  0  0  0.692799  0  2.288754  0  0  0.750135  0  2.233865  0  0  0.658422  0.652963  0  2.326451  0
Zn  Zn2  1  0.49999041  0.33790757  0.25000412  1  0  0.903839  0  1.826236  0  0  0.69266  0  2.288992  0  0  0.749983  0  2.234103  0  0  0.658406  0.652822  0  2.326688  0
Zn  Zn3  1  0.00000274  0.16209287  0.74999996  1  0  0.903877  0  1.826082  0  0  0.692733  0  2.288771  0  0  0.750073  0  2.233891  0  0  0.65838  0.652904  0  2.326465  0
H  H4  1  0.12400705  0.67703818  0.81884461  1  0  0.075409  0  0.953129  0  0  0.079837  0  1.024967  0  0  0.081904  0  1.023497  0  0  0.114689  0.078215  0  1.026154  0
H  H5  1  0.37599999  0.82296641  0.31884509  1  0  0.075377  0  0.953093  0  0  0.079808  0  1.024945  0  0  0.081874  0  1.023483  0  0  0.114654  0.078186  0  1.026134  0
H  H6  1  0.62400610  0.82295924  0.18115339  1  0  0.075325  0  0.953138  0  0  0.079733  0  1.025022  0  0  0.081793  0  1.023572  0  0  0.114655  0.078112  0  1.026207  0
H  H7  1  0.87598870  0.67703823  0.68115605  1  0  0.075287  0  0.953122  0  0  0.079712  0  1.024995  0  0  0.08177  0  1.023548  0  0  0.114633  0.078091  0  1.026182  0
H  H8  1  0.87598385  0.32296315  0.18114927  1  0  0.075333  0  0.95317  0  0  0.079752  0  1.025034  0  0  0.081813  0  1.023579  0  0  0.114675  0.078131  0  1.026222  0
H  H9  1  0.62401336  0.17703837  0.68114810  1  0  0.075297  0  0.953171  0  0  0.07971  0  1.02506  0  0  0.081776  0  1.023591  0  0  0.114658  0.078092  0  1.026246  0
H  H10  1  0.37600064  0.17704468  0.81884321  1  0  0.075384  0  0.953158  0  0  0.079807  0  1.025  0  0  0.081869  0  1.023542  0  0  0.114651  0.078188  0  1.026187  0
H  H11  1  0.12399560  0.32295359  0.31884599  1  0  0.075281  0  0.953159  0  0  0.079711  0  1.025033  0  0  0.081782  0  1.023553  0  0  0.11464  0.078091  0  1.026221  0
H  H12  1  0.94153691  0.81300443  0.90992333  1  0  0.131279  0  0.969988  0  0  0.130095  0  1.045339  0  0  0.135358  0  1.041098  0  0  0.111272  0.126253  0  1.048607  0
H  H13  1  0.55846734  0.68699788  0.40992141  1  0  0.131265  0  0.970034  0  0  0.130152  0  1.045307  0  0  0.135415  0  1.041064  0  0  0.111304  0.126308  0  1.048575  0
H  H14  1  0.44154229  0.68699597  0.09007725  1  0  0.131267  0  0.970034  0  0  0.130092  0  1.045368  0  0  0.135355  0  1.041124  0  0  0.111286  0.126249  0  1.048635  0
H  H15  1  0.05845135  0.81299946  0.59007172  1  0  0.131265  0  0.970128  0  0  0.130084  0  1.045478  0  0  0.135351  0  1.041229  0  0  0.111294  0.12624  0  1.048746  0
H  H16  1  0.05844608  0.18699171  0.09007327  1  0  0.131309  0  0.970104  0  0  0.130143  0  1.045436  0  0  0.135406  0  1.041194  0  0  0.111306  0.126303  0  1.048706  0
H  H17  1  0.44154865  0.31300863  0.59007247  1  0  0.131317  0  0.970054  0  0  0.130118  0  1.045409  0  0  0.135379  0  1.04117  0  0  0.111304  0.126277  0  1.048678  0
H  H18  1  0.55846577  0.31300708  0.90992411  1  0  0.131306  0  0.969977  0  0  0.130157  0  1.045269  0  0  0.135422  0  1.041026  0  0  0.111314  0.126316  0  1.048537  0
H  H19  1  0.94154087  0.18698891  0.40992964  1  0  0.131347  0  0.969995  0  0  0.1301  0  1.045383  0  0  0.13536  0  1.041146  0  0  0.111301  0.126261  0  1.048651  0
H  H20  1  0.40676403  0.02683415  0.93915316  1  0  0.114277  0  0.960009  0  0  0.118563  0  1.032026  0  0  0.12153  0  1.031408  0  0  0.11251  0.116432  0  1.032629  0
H  H21  1  0.09323962  0.47317176  0.43914556  1  0  0.114338  0  0.960047  0  0  0.118554  0  1.032131  0  0  0.121519  0  1.031514  0  0  0.112528  0.116427  0  1.032724  0
H  H22  1  0.90677199  0.47317544  0.06085094  1  0  0.114286  0  0.960009  0  0  0.118605  0  1.032003  0  0  0.121566  0  1.031402  0  0  0.112561  0.116482  0  1.032588  0
H  H23  1  0.59322575  0.02682621  0.56084848  1  0  0.114335  0  0.959933  0  0  0.118626  0  1.031946  0  0  0.121595  0  1.031325  0  0  0.112557  0.116497  0  1.032549  0
H  H24  1  0.59321896  0.97316717  0.06085704  1  0  0.114193  0  0.960105  0  0  0.118568  0  1.032047  0  0  0.121526  0  1.031453  0  0  0.112518  0.116444  0  1.032631  0
H  H25  1  0.90678033  0.52683043  0.56085512  1  0  0.114208  0  0.960039  0  0  0.118584  0  1.031998  0  0  0.121545  0  1.031397  0  0  0.112541  0.116459  0  1.03258  0
H  H26  1  0.09322816  0.52683366  0.93914838  1  0  0.114177  0  0.96007  0  0  0.118565  0  1.031994  0  0  0.121522  0  1.031405  0  0  0.112533  0.116441  0  1.032576  0
H  H27  1  0.40678100  0.97317425  0.43914880  1  0  0.114302  0  0.959979  0  0  0.118622  0  1.031959  0  0  0.12158  0  1.031366  0  0  0.112567  0.1165  0  1.032538  0
H  H28  1  0.57402957  0.87786152  0.85128830  1  0  0.092214  0  0.945208  0  0  0.095179  0  1.015664  0  0  0.09849  0  1.011957  0  0  0.119745  0.092657  0  1.018507  0
H  H29  1  0.92597297  0.62214907  0.35128540  1  0  0.092235  0  0.945198  0  0  0.095181  0  1.015673  0  0  0.098487  0  1.011976  0  0  0.119797  0.092661  0  1.018514  0
H  H30  1  0.07403910  0.62214620  0.14871641  1  0  0.092238  0  0.945351  0  0  0.095201  0  1.015788  0  0  0.098515  0  1.012083  0  0  0.119786  0.092679  0  1.018631  0
H  H31  1  0.42595757  0.87785477  0.64871515  1  0  0.092273  0  0.945246  0  0  0.095243  0  1.015686  0  0  0.098556  0  1.011981  0  0  0.11978  0.09272  0  1.018529  0
H  H32  1  0.42595078  0.12214499  0.14871850  1  0  0.092221  0  0.945404  0  0  0.095187  0  1.015844  0  0  0.098502  0  1.012134  0  0  0.119744  0.092665  0  1.018689  0
H  H33  1  0.07404566  0.37785225  0.64871731  1  0  0.092268  0  0.945391  0  0  0.095223  0  1.0158  0  0  0.098537  0  1.012092  0  0  0.119776  0.092701  0  1.018645  0
H  H34  1  0.92596632  0.37785858  0.85128087  1  0  0.092277  0  0.945367  0  0  0.095296  0  1.015749  0  0  0.098612  0  1.012038  0  0  0.119806  0.092776  0  1.018594  0
H  H35  1  0.57403598  0.12214483  0.35128281  1  0  0.09231  0  0.945278  0  0  0.095255  0  1.015727  0  0  0.098567  0  1.012026  0  0  0.119817  0.092735  0  1.01857  0
C  C36  1  0.18233792  0.75464818  0.84805547  1  0  0.145469  0  3.677294  0  0  0.113904  0  3.925829  0  0  0.121114  0  3.944621  0  0  0.049491  0.109206  0  3.913381  0
C  C37  1  0.31766800  0.74535572  0.34805489  1  0  0.145539  0  3.67686  0  0  0.11397  0  3.925411  0  0  0.121178  0  3.944195  0  0  0.049544  0.10927  0  3.912965  0
C  C38  1  0.68234841  0.74534672  0.15194534  1  0  0.145438  0  3.677416  0  0  0.113848  0  3.925987  0  0  0.121054  0  3.944775  0  0  0.049364  0.109152  0  3.913534  0
C  C39  1  0.81765148  0.75465144  0.65194819  1  0  0.145525  0  3.677447  0  0  0.113903  0  3.926015  0  0  0.121111  0  3.944811  0  0  0.049387  0.109202  0  3.913566  0
C  C40  1  0.81764375  0.24534883  0.15194588  1  0  0.145312  0  3.677511  0  0  0.113736  0  3.926087  0  0  0.120938  0  3.944885  0  0  0.049314  0.109038  0  3.91364  0
C  C41  1  0.68234535  0.25465079  0.65194374  1  0  0.145534  0  3.677333  0  0  0.113937  0  3.92591  0  0  0.121144  0  3.944705  0  0  0.049409  0.109239  0  3.913465  0
C  C42  1  0.31766493  0.25465029  0.84805534  1  0  0.145618  0  3.677378  0  0  0.114037  0  3.925885  0  0  0.121245  0  3.944681  0  0  0.049595  0.109339  0  3.913438  0
C  C43  1  0.18233943  0.24534816  0.34805589  1  0  0.145615  0  3.677067  0  0  0.113982  0  3.925612  0  0  0.121193  0  3.944408  0  0  0.049513  0.109281  0  3.913173  0
C  C44  1  0.08092189  0.83052661  0.89870898  1  0  -0.146027  0  3.643068  0  0  -0.165015  0  3.886286  0  0  -0.172193  0  3.905251  0  0  -0.06967  -0.160622  0  3.873994  0
C  C45  1  0.41908304  0.66947328  0.39870965  1  0  -0.14607  0  3.643026  0  0  -0.165144  0  3.886277  0  0  -0.172321  0  3.905237  0  0  -0.069715  -0.160752  0  3.873983  0
C  C46  1  0.58092126  0.66946989  0.10129642  1  0  -0.145917  0  3.642948  0  0  -0.164881  0  3.886173  0  0  -0.172051  0  3.905126  0  0  -0.069641  -0.160488  0  3.87388  0
C  C47  1  0.91907038  0.83052537  0.60128817  1  0  -0.146025  0  3.64316  0  0  -0.164954  0  3.886365  0  0  -0.172125  0  3.905315  0  0  -0.069643  -0.16056  0  3.874071  0
C  C48  1  0.91906769  0.16946608  0.10129441  1  0  -0.145897  0  3.643067  0  0  -0.16494  0  3.886268  0  0  -0.172118  0  3.905239  0  0  -0.069637  -0.16055  0  3.873982  0
C  C49  1  0.58093031  0.33053237  0.60128830  1  0  -0.146051  0  3.643168  0  0  -0.165012  0  3.886366  0  0  -0.172187  0  3.905325  0  0  -0.069649  -0.160617  0  3.874081  0
C  C50  1  0.41906965  0.33053230  0.89870834  1  0  -0.146191  0  3.643295  0  0  -0.165139  0  3.886446  0  0  -0.17232  0  3.905415  0  0  -0.069731  -0.160745  0  3.874157  0
C  C51  1  0.08092317  0.16946732  0.39871251  1  0  -0.146084  0  3.642927  0  0  -0.164921  0  3.886116  0  0  -0.172097  0  3.905083  0  0  -0.069638  -0.160531  0  3.873829  0
C  C52  1  0.16222127  0.92996145  0.93328095  1  0  0.209706  0  3.772475  0  0  0.209897  0  4.02405  0  0  0.215782  0  4.043815  0  0  0.109036  0.206113  0  4.010904  0
C  C53  1  0.33777993  0.57004210  0.43327907  1  0  0.209706  0  3.772584  0  0  0.209923  0  4.024104  0  0  0.215806  0  4.043869  0  0  0.109044  0.206145  0  4.010948  0
C  C54  1  0.66222934  0.57003601  0.06672527  1  0  0.209497  0  3.772376  0  0  0.209663  0  4.024057  0  0  0.215548  0  4.043827  0  0  0.108992  0.205884  0  4.010908  0
C  C55  1  0.83776735  0.92996163  0.56671929  1  0  0.209724  0  3.772596  0  0  0.209823  0  4.024228  0  0  0.215707  0  4.043997  0  0  0.10901  0.206044  0  4.01107  0
C  C56  1  0.83776040  0.07003383  0.06672585  1  0  0.209458  0  3.772697  0  0  0.209757  0  4.024202  0  0  0.215639  0  4.043967  0  0  0.109005  0.205982  0  4.011044  0
C  C57  1  0.66223606  0.42996441  0.56672161  1  0  0.20961  0  3.772504  0  0  0.209842  0  4.024044  0  0  0.215729  0  4.0438  0  0  0.108995  0.206058  0  4.010902  0
C  C58  1  0.33777213  0.42996445  0.93327745  1  0  0.209765  0  3.772735  0  0  0.209873  0  4.024387  0  0  0.215756  0  4.044157  0  0  0.109007  0.20609  0  4.011244  0
C  C59  1  0.16223148  0.07003624  0.43327935  1  0  0.209638  0  3.772535  0  0  0.209743  0  4.024213  0  0  0.215625  0  4.04398  0  0  0.109  0.205967  0  4.011059  0
C  C60  1  0.34105974  0.94905162  0.91518756  1  0  -0.158136  0  3.675603  0  0  -0.183178  0  3.934038  0  0  -0.191497  0  3.954946  0  0  -0.06952  -0.177942  0  3.920206  0
C  C61  1  0.15894398  0.55095095  0.41518190  1  0  -0.158177  0  3.675651  0  0  -0.183124  0  3.934056  0  0  -0.191443  0  3.954964  0  0  -0.069548  -0.177889  0  3.920223  0
C  C62  1  0.84107447  0.55095384  0.08481421  1  0  -0.157976  0  3.675396  0  0  -0.182997  0  3.933766  0  0  -0.191327  0  3.954689  0  0  -0.069507  -0.177754  0  3.919925  0
C  C63  1  0.65893158  0.94904478  0.58481139  1  0  -0.158099  0  3.67552  0  0  -0.183092  0  3.933934  0  0  -0.191415  0  3.954847  0  0  -0.069513  -0.177856  0  3.920097  0
C  C64  1  0.65891796  0.05094970  0.08481448  1  0  -0.157889  0  3.675504  0  0  -0.182985  0  3.933762  0  0  -0.191317  0  3.954689  0  0  -0.069465  -0.177739  0  3.919914  0
C  C65  1  0.84107861  0.44904432  0.58481062  1  0  -0.157971  0  3.675492  0  0  -0.183087  0  3.933781  0  0  -0.191416  0  3.954697  0  0  -0.069496  -0.177837  0  3.919932  0
C  C66  1  0.15893624  0.44905008  0.91518239  1  0  -0.158061  0  3.675741  0  0  -0.183147  0  3.934148  0  0  -0.191474  0  3.955065  0  0  -0.069542  -0.177903  0  3.920306  0
C  C67  1  0.34107253  0.05095223  0.41518452  1  0  -0.158101  0  3.675567  0  0  -0.183099  0  3.933921  0  0  -0.19143  0  3.954844  0  0  -0.069551  -0.177854  0  3.92007  0
C  C68  1  0.43413320  0.86685705  0.86581632  1  0  0.143533  0  3.669809  0  0  0.110557  0  3.922833  0  0  0.118515  0  3.940085  0  0  0.052389  0.105321  0  3.9114  0
C  C69  1  0.06586624  0.63314782  0.36581218  1  0  0.143559  0  3.669824  0  0  0.110563  0  3.922887  0  0  0.118518  0  3.940144  0  0  0.052389  0.105325  0  3.911456  0
C  C70  1  0.93414455  0.63315716  0.13418424  1  0  0.143445  0  3.670163  0  0  0.110423  0  3.923284  0  0  0.118391  0  3.940507  0  0  0.052321  0.10519  0  3.91185  0
C  C71  1  0.56586051  0.86684693  0.63418504  1  0  0.143439  0  3.670031  0  0  0.110403  0  3.923119  0  0  0.118361  0  3.940372  0  0  0.052354  0.105169  0  3.911681  0
C  C72  1  0.56584979  0.13315205  0.13418639  1  0  0.14336  0  3.670062  0  0  0.110346  0  3.923176  0  0  0.118305  0  3.940411  0  0  0.052337  0.105114  0  3.911741  0
C  C73  1  0.93415107  0.36685005  0.63418374  1  0  0.143389  0  3.66994  0  0  0.110449  0  3.922986  0  0  0.118403  0  3.940236  0  0  0.052352  0.105217  0  3.911552  0
C  C74  1  0.06585956  0.36685626  0.86581100  1  0  0.143469  0  3.669954  0  0  0.110412  0  3.923041  0  0  0.118371  0  3.940288  0  0  0.052341  0.105177  0  3.911615  0
C  C75  1  0.43413964  0.13314921  0.36581428  1  0  0.14345  0  3.669951  0  0  0.110475  0  3.923021  0  0  0.11843  0  3.940276  0  0  0.052374  0.105241  0  3.911591  0
N  N76  1  0.21708803  0.58381205  0.65387080  1  0  0.21548  0  3.168503  0  0  0.208922  0  3.485817  0  0  0.230653  0  3.488026  0  0  -0.056265  0.195098  0  3.483138  0
N  N77  1  0.28290604  0.91620018  0.15386944  1  0  0.215621  0  3.168455  0  0  0.209083  0  3.485722  0  0  0.230816  0  3.487924  0  0  -0.0562  0.195258  0  3.483044  0
N  N78  1  0.71708186  0.91618375  0.34612871  1  0  0.215366  0  3.168414  0  0  0.20884  0  3.48569  0  0  0.230576  0  3.487895  0  0  -0.056223  0.195017  0  3.483012  0
N  N79  1  0.78292328  0.58380175  0.84613290  1  0  0.215491  0  3.167524  0  0  0.208932  0  3.484813  0  0  0.230672  0  3.487022  0  0  -0.056153  0.195104  0  3.482138  0
N  N80  1  0.78291344  0.41618582  0.34612987  1  0  0.215391  0  3.168049  0  0  0.208855  0  3.485352  0  0  0.230586  0  3.487561  0  0  -0.056262  0.195033  0  3.482673  0
N  N81  1  0.71707826  0.08380028  0.84612852  1  0  0.215392  0  3.167657  0  0  0.208846  0  3.484932  0  0  0.230584  0  3.487145  0  0  -0.056213  0.195021  0  3.482253  0
N  N82  1  0.28291829  0.08380029  0.65387401  1  0  0.215454  0  3.168429  0  0  0.208915  0  3.485684  0  0  0.230653  0  3.487898  0  0  -0.056274  0.195092  0  3.483004  0
N  N83  1  0.21708479  0.41618143  0.15385825  1  0  0.215343  0  3.168543  0  0  0.208798  0  3.485816  0  0  0.230533  0  3.48803  0  0  -0.056264  0.194976  0  3.483137  0
N  N84  1  0.35614446  0.77124474  0.83236825  1  0  -0.318893  0  3.30676  0  0  -0.231213  0  3.577148  0  0  -0.252329  0  3.592998  0  0  -0.325173  -0.217097  0  3.566436  0
N  N85  1  0.14385740  0.72875734  0.33236663  1  0  -0.318918  0  3.306636  0  0  -0.23121  0  3.577032  0  0  -0.252323  0  3.592877  0  0  -0.325218  -0.217097  0  3.566327  0
N  N86  1  0.85616292  0.72875988  0.16763150  1  0  -0.31885  0  3.307242  0  0  -0.231106  0  3.577578  0  0  -0.252213  0  3.593422  0  0  -0.325051  -0.216994  0  3.566877  0
N  N87  1  0.64384103  0.77123923  0.66763208  1  0  -0.318862  0  3.30718  0  0  -0.231107  0  3.577527  0  0  -0.252223  0  3.59338  0  0  -0.325062  -0.216995  0  3.566824  0
N  N88  1  0.64383721  0.22876091  0.16763243  1  0  -0.318663  0  3.307186  0  0  -0.230931  0  3.577513  0  0  -0.252031  0  3.593353  0  0  -0.32502  -0.216818  0  3.566809  0
N  N89  1  0.85615463  0.27124226  0.66763133  1  0  -0.318759  0  3.306881  0  0  -0.231075  0  3.577257  0  0  -0.252187  0  3.593105  0  0  -0.325065  -0.216967  0  3.566562  0
N  N90  1  0.14385174  0.27124490  0.83236714  1  0  -0.318892  0  3.3068  0  0  -0.231191  0  3.577203  0  0  -0.252312  0  3.593062  0  0  -0.325181  -0.217078  0  3.566498  0
N  N91  1  0.35614591  0.22875777  0.33236928  1  0  -0.318903  0  3.306951  0  0  -0.231174  0  3.577331  0  0  -0.252296  0  3.593187  0  0  -0.325212  -0.217064  0  3.566635  0
N  N92  1  0.07238430  0.01656409  0.98310654  1  0  -0.118743  0  2.938336  0  0  -0.09973  0  3.224793  0  0  -0.098933  0  3.229935  0  0  -0.125357  -0.100441  0  3.221653  0
N  N93  1  0.42761964  0.48343863  0.48310092  1  0  -0.118775  0  2.938679  0  0  -0.09976  0  3.225116  0  0  -0.098962  0  3.230259  0  0  -0.125345  -0.100472  0  3.221971  0
N  N94  1  0.57239068  0.48343040  0.01689630  1  0  -0.118617  0  2.938409  0  0  -0.099692  0  3.224917  0  0  -0.098899  0  3.230067  0  0  -0.125393  -0.100404  0  3.221774  0
N  N95  1  0.92760544  0.01656062  0.51689166  1  0  -0.118783  0  2.938553  0  0  -0.099742  0  3.225009  0  0  -0.098945  0  3.230153  0  0  -0.125358  -0.100454  0  3.22187  0
N  N96  1  0.92759737  0.98343033  0.01690094  1  0  -0.118622  0  2.93845  0  0  -0.099734  0  3.224947  0  0  -0.098933  0  3.230088  0  0  -0.12538  -0.100446  0  3.221803  0
N  N97  1  0.57240163  0.51656961  0.51689704  1  0  -0.118684  0  2.93858  0  0  -0.099777  0  3.225078  0  0  -0.098979  0  3.23022  0  0  -0.125406  -0.100488  0  3.221935  0
N  N98  1  0.42760947  0.51656488  0.98310302  1  0  -0.118766  0  2.938541  0  0  -0.099727  0  3.225018  0  0  -0.098931  0  3.230165  0  0  -0.125315  -0.100437  0  3.221874  0
N  N99  1  0.07239866  0.98342947  0.48310562  1  0  -0.1187  0  2.938399  0  0  -0.099755  0  3.224897  0  0  -0.098954  0  3.230039  0  0  -0.125394  -0.10047  0  3.221755  0
O  O100  1  0.31524664  0.53580618  0.71491521  1  0  -0.437749  0  1.971231  0  0  -0.379396  0  2.247792  0  0  -0.40697  0  2.24222  0  0  -0.195614  -0.360317  0  2.25091  0
O  O101  1  0.18473595  0.96420296  0.21490638  1  0  -0.437729  0  1.971498  0  0  -0.379399  0  2.248088  0  0  -0.406972  0  2.242515  0  0  -0.195584  -0.360318  0  2.251205  0
O  O102  1  0.81522834  0.96418974  0.28508583  1  0  -0.437668  0  1.971489  0  0  -0.379317  0  2.248034  0  0  -0.406891  0  2.242462  0  0  -0.195628  -0.360244  0  2.251155  0
O  O103  1  0.68476452  0.53580576  0.78508560  1  0  -0.437719  0  1.971404  0  0  -0.379374  0  2.247961  0  0  -0.406941  0  2.242385  0  0  -0.195637  -0.360301  0  2.251083  0
O  O104  1  0.68475087  0.46419082  0.28509159  1  0  -0.437573  0  1.971317  0  0  -0.379229  0  2.247886  0  0  -0.406799  0  2.24231  0  0  -0.195547  -0.36015  0  2.251001  0
O  O105  1  0.81524571  0.03580441  0.78508682  1  0  -0.437555  0  1.971443  0  0  -0.379207  0  2.248006  0  0  -0.406779  0  2.242438  0  0  -0.195512  -0.36013  0  2.251121  0
O  O106  1  0.18474805  0.03580467  0.71491281  1  0  -0.43766  0  1.971619  0  0  -0.379302  0  2.248185  0  0  -0.406882  0  2.242621  0  0  -0.195545  -0.360225  0  2.2513  0
O  O107  1  0.31523695  0.46418951  0.21490488  1  0  -0.437666  0  1.971429  0  0  -0.379298  0  2.24797  0  0  -0.406878  0  2.2424  0  0  -0.195588  -0.360219  0  2.251086  0
O  O108  1  0.26332072  0.68436391  0.63341683  1  0  -0.399789  0  1.966118  0  0  -0.354789  0  2.221139  0  0  -0.376458  0  2.218818  0  0  -0.156734  -0.33934  0  2.221882  0
O  O109  1  0.23669169  0.81563438  0.13341773  1  0  -0.40004  0  1.965939  0  0  -0.355016  0  2.220884  0  0  -0.376705  0  2.218603  0  0  -0.156836  -0.339566  0  2.22163  0
O  O110  1  0.76333550  0.81563109  0.36659160  1  0  -0.399738  0  1.965702  0  0  -0.354818  0  2.220794  0  0  -0.376472  0  2.218427  0  0  -0.156796  -0.339364  0  2.221536  0
O  O111  1  0.73666186  0.68437614  0.86659473  1  0  -0.399834  0  1.96493  0  0  -0.354867  0  2.22001  0  0  -0.376516  0  2.217616  0  0  -0.156837  -0.33941  0  2.220754  0
O  O112  1  0.73667679  0.31562532  0.36658793  1  0  -0.399824  0  1.965526  0  0  -0.354862  0  2.220589  0  0  -0.376518  0  2.21823  0  0  -0.156814  -0.339412  0  2.221334  0
O  O113  1  0.76332825  0.18437732  0.86658975  1  0  -0.399899  0  1.964998  0  0  -0.354935  0  2.220052  0  0  -0.3766  0  2.217695  0  0  -0.156893  -0.339482  0  2.220798  0
O  O114  1  0.23669765  0.18437196  0.63341995  1  0  -0.399866  0  1.965584  0  0  -0.354895  0  2.220619  0  0  -0.376553  0  2.218264  0  0  -0.156783  -0.339444  0  2.221364  0
O  O115  1  0.26332905  0.31562691  0.13339983  1  0  -0.399715  0  1.965934  0  0  -0.354777  0  2.221056  0  0  -0.376411  0  2.218649  0  0  -0.156774  -0.339319  0  2.221786  0
