# generated using pymatgen
data_Zn2H33C47N3(ClO4)2
_symmetry_space_group_name_H-M   'P 1'
_cell_length_a   10.90816399
_cell_length_b   14.62230648
_cell_length_c   15.52582003
_cell_angle_alpha   100.03780923
_cell_angle_beta   88.90516177
_cell_angle_gamma   108.09866968
_symmetry_Int_Tables_number   1
_chemical_formula_structural   Zn2H33C47N3(ClO4)2
_chemical_formula_sum   'Zn2 H33 C47 N3 Cl2 O8'
_cell_volume   2316.22628863
_cell_formula_units_Z   1
loop_
 _symmetry_equiv_pos_site_id
 _symmetry_equiv_pos_as_xyz
  1  'x, y, z'
loop_
 _atom_site_type_symbol
 _atom_site_label
 _atom_site_symmetry_multiplicity
 _atom_site_fract_x
 _atom_site_fract_y
 _atom_site_fract_z
 _atom_site_occupancy
 _atom_site_pbe_bader_charge
 _atom_site_pbe_bader_spin_density
 _atom_site_pbe_cm5_charge
 _atom_site_pbe_ddec_charge
 _atom_site_pbe_ddec_spin_density
 _atom_site_pbe_ddec_sum_bond_order
 _atom_site_pbe_magmom
Zn  Zn0  1  0.53642549  0.59553509  0.48263487  1  1.283148  0  0.663041  0.814423  0  2.429966  0
Zn  Zn1  1  0.45351591  0.40522323  0.51595704  1  1.282364  0  0.666596  0.81576  0  2.459617  0
H  H2  1  0.16185551  0.65105214  0.55467765  1  0.034511  0  0.086076  0.08033  0  1.002852  0
H  H3  1  0.13684834  0.57415066  0.63348083  1  0.028933  0  0.093506  0.093833  0  0.970867  0
H  H4  1  0.68912190  0.63209530  0.14820970  1  0.04606  0  0.101169  0.101157  0  1.013083  0
H  H5  1  0.47058567  0.18781411  0.08388379  1  0.077048  0  0.095513  0.096803  0  1.001292  0
H  H6  1  0.27126504  0.97428710  0.67644897  1  0.085423  0  0.11292  0.116053  0  0.979229  0
H  H7  1  0.45793654  0.76565077  0.53756111  1  0.124881  0  0.126247  0.098727  0  1.005674  0
H  H8  1  0.70917638  0.70109176  0.35351662  1  0.11555  0  0.128354  0.104792  0  0.974676  0
H  H9  1  0.73454085  0.03293494  0.33289146  1  0.063997  0  0.11489  0.118685  0  0.974931  0
H  H10  1  0.23786790  0.13915806  0.69775545  1  0.093352  0  0.116056  0.123432  0  0.980053  0
H  H11  1  0.28792991  0.30282155  0.65080190  1  0.115643  0  0.130717  0.109271  0  0.962434  0
H  H12  1  0.53508509  0.23702220  0.46398899  1  0.132032  0  0.126871  0.100051  0  1.008439  0
H  H13  1  0.82516144  0.34236884  0.46383871  1  0.007651  0  0.084178  0.080153  0  0.992496  0
H  H14  1  0.91846912  0.56325047  0.63957476  1  0.012132  0  0.089478  0.086551  0  0.978422  0
H  H15  1  0.37488156  0.85887333  0.60010307  1  0.090714  0  0.113637  0.114981  0  0.996946  0
H  H16  1  0.63036653  0.14809272  0.40878557  1  0.08065  0  0.114374  0.11578  0  0.998169  0
H  H17  1  0.76421164  0.86659538  0.30934709  1  0.0975  0  0.115517  0.123071  0  0.980569  0
H  H18  1  0.94638622  0.64957658  0.56884949  1  0.020481  0  0.090197  0.090598  0  0.986692  0
H  H19  1  0.14192236  0.58648968  0.39995497  1  0.06493  0  0.101139  0.076316  0  0.966401  0
H  H20  1  0.92947806  0.59049176  0.40314484  1  0.044644  0  0.093855  0.102409  0  0.983669  0
H  H21  1  0.03794853  0.33964320  0.47103176  1  0.05987  0  0.084314  0.088649  0  1.007945  0
H  H22  1  0.05231633  0.38971642  0.58319229  1  0.027467  0  0.086885  0.08688  0  0.98136  0
H  H23  1  0.83469157  0.38272022  0.57789644  1  -0.004275  0  0.083512  0.079668  0  0.999503  0
H  H24  1  0.87548751  0.46388650  0.36068051  1  0.049426  0  0.093175  0.104525  0  0.986623  0
H  H25  1  0.65744663  0.40290448  0.79299698  1  0.443326  0  0.310307  0.254415  0  0.962183  0
H  H26  1  0.63159542  0.24903098  0.72003826  1  0.02605  0  0.106203  0.114992  0  0.984152  0
H  H27  1  0.51211021  0.19795477  0.79238231  1  0.042049  0  0.094402  0.095966  0  1.00314  0
H  H28  1  0.67875452  0.22924605  0.82338263  1  0.036386  0  0.094383  0.093629  0  0.98946  0
H  H29  1  0.75089024  0.75802102  0.05603486  1  0.064264  0  0.090922  0.095649  0  1.035612  0
H  H30  1  0.58034115  0.53859507  0.21898394  1  0.070784  0  0.099868  0.100686  0  1.038811  0
H  H31  1  0.44461858  0.23759640  0.24363823  1  0.078135  0  0.099753  0.103877  0  1.006374  0
H  H32  1  0.53916955  0.23260131  0.94139393  1  0.033697  0  0.096359  0.105599  0  1.036121  0
H  H33  1  0.66112320  0.76020993  0.75380139  1  0.09823  0  0.105818  0.1273  0  0.995142  0
H  H34  1  0.52197614  0.45934772  0.77846103  1  0.118839  0  0.104932  0.106958  0  1.05741  0
C  C35  1  0.53495764  0.57547301  0.66584782  1  1.5695  0  0.207901  0.585574  0  4.183517  0
C  C36  1  0.62405367  0.55560078  0.89589812  1  -0.059439  0  -0.002689  0.054355  0  3.952743  0
C  C37  1  0.67730843  0.65698461  0.93505685  1  -0.017161  0  -0.013058  0.020914  0  3.987309  0
C  C38  1  0.25550651  0.49850692  0.49820268  1  1.576769  0  0.217244  0.588338  0  4.125331  0
C  C39  1  0.61059409  0.48090587  0.94909895  1  0.038451  0  -0.004252  -0.05666  0  3.895112  0
C  C40  1  0.61960624  0.50949366  0.04134271  1  -0.022484  0  -0.001788  0.050115  0  3.980663  0
C  C41  1  0.67226850  0.61084310  0.07758530  1  0.020462  0  -0.087996  -0.114666  0  4.00671  0
C  C42  1  0.70643112  0.68164957  0.02662285  1  -0.026168  0  -0.102226  -0.134113  0  4.042826  0
C  C43  1  0.58962008  0.37815520  0.91293867  1  0.409802  0  0.0993  0.197036  0  4.070779  0
C  C44  1  0.55584439  0.30965210  0.96807464  1  -0.04237  0  -0.123578  -0.287852  0  4.003708  0
C  C45  1  0.54190414  0.33613240  0.05903571  1  0.037028  0  -0.008512  0.104911  0  4.063045  0
C  C46  1  0.87518616  0.49906756  0.50251188  1  0.030341  0  -0.017637  0.033734  0  3.799108  0
C  C47  1  0.57688001  0.43729881  0.09751541  1  -0.039273  0  -0.013325  0.011189  0  3.980917  0
C  C48  1  0.49620035  0.26499217  0.11361659  1  -0.133688  0  -0.101656  -0.150163  0  4.010871  0
C  C49  1  0.48174502  0.29206351  0.20190993  1  0.002652  0  -0.092162  -0.097366  0  4.023207  0
C  C50  1  0.49366698  0.42366290  0.33431400  1  1.538788  0  0.209714  0.59105  0  4.171721  0
C  C51  1  0.56038430  0.46263151  0.18757636  1  -0.031406  0  -0.08296  -0.12669  0  3.951922  0
C  C52  1  0.30442359  0.15780690  0.64559263  1  -0.074051  0  -0.077974  -0.179729  0  3.97508  0
C  C53  1  0.33054160  0.24741865  0.62033215  1  0.476823  0  0.051692  0.089984  0  3.934802  0
C  C54  1  0.47102144  0.21040074  0.51510888  1  0.530998  0  0.071646  0.074097  0  3.873241  0
C  C55  1  0.45189634  0.11709132  0.53619936  1  -0.0118  0  0.002122  -0.018953  0  3.952647  0
C  C56  1  0.36391600  0.08968071  0.60337242  1  0.003912  0  0.007672  0.101872  0  4.031599  0
C  C57  1  0.93367851  0.51921397  0.41385264  1  -0.014948  0  -0.162209  -0.22855  0  3.855507  0
C  C58  1  0.51549372  0.04988087  0.49196810  1  0.036573  0  0.004953  0.039567  0  3.96196  0
C  C59  1  0.48656671  0.95597535  0.51496147  1  -0.02331  0  0.005131  0.040098  0  3.962333  0
C  C60  1  0.39731563  0.93087728  0.58216045  1  -0.020115  0  -0.074511  -0.107401  0  3.982408  0
C  C61  1  0.33878744  0.99508559  0.62522242  1  -0.069586  0  -0.082059  -0.128983  0  3.990462  0
C  C62  1  0.73708843  0.50367524  0.50347969  1  1.569715  0  0.218713  0.589284  0  4.103758  0
C  C63  1  0.60643685  0.07557534  0.42581259  1  0.018057  0  -0.073545  -0.106272  0  3.97519  0
C  C64  1  0.66536473  0.01147194  0.38306375  1  -0.070436  0  -0.078088  -0.123045  0  3.974938  0
C  C65  1  0.63784276  0.91602121  0.40348180  1  0.010867  0  0.009008  0.105179  0  4.018391  0
C  C66  1  0.54861932  0.88817331  0.46986652  1  -0.017188  0  0.003028  -0.013229  0  3.946105  0
C  C67  1  0.69614639  0.84741844  0.36059867  1  -0.052882  0  -0.078067  -0.176618  0  3.968786  0
C  C68  1  0.88165508  0.39927203  0.51676191  1  0.007982  0  -0.16779  -0.174721  0  3.897063  0
C  C69  1  0.66687670  0.75668398  0.38402688  1  0.482413  0  0.049673  0.085083  0  3.946676  0
C  C70  1  0.52529539  0.79334574  0.48843054  1  0.537711  0  0.071597  0.07488  0  3.870253  0
C  C71  1  0.09982707  0.58141977  0.57047567  1  -0.041265  0  -0.1575  -0.16588  0  3.864548  0
C  C72  1  0.95703570  0.57892227  0.57585962  1  -0.005417  0  -0.159083  -0.173202  0  3.8595  0
C  C73  1  0.07435429  0.51720958  0.41203608  1  0.105189  0  -0.039457  0.087053  0  3.731015  0
C  C74  1  0.02338959  0.39964552  0.51888386  1  -0.039659  0  -0.171264  -0.181825  0  3.898412  0
C  C75  1  0.11435835  0.49691932  0.49972182  1  0.044818  0  -0.020477  -0.016493  0  3.802954  0
C  C76  1  0.60783125  0.25174486  0.78918484  1  0.325703  0  -0.135314  -0.208921  0  4.00661  0
C  C77  1  0.58708111  0.60570579  0.75870611  1  -0.05163  0  -0.021885  -0.0103  0  3.99819  0
C  C78  1  0.51243423  0.39210750  0.23965131  1  -0.001792  0  -0.0294  -0.046063  0  3.999549  0
C  C79  1  0.69199964  0.72854956  0.88085815  1  0.00636  0  0.011581  0.106902  0  4.023622  0
C  C80  1  0.64965051  0.70452273  0.79422818  1  0.06166  0  -0.097965  -0.17511  0  3.989499  0
C  C81  1  0.57568187  0.53364608  0.80846815  1  -0.025087  0  -0.093631  -0.169401  0  3.973731  0
N  N82  1  0.41220589  0.27233240  0.55508308  1  -1.23405  0  -0.320776  -0.192198  0  3.538307  0
N  N83  1  0.58237984  0.73070315  0.44756119  1  -1.252238  0  -0.318912  -0.186756  0  3.534213  0
N  N84  1  0.60653125  0.34948574  0.82524184  1  -1.210144  0  -0.448021  -0.285408  0  3.604639  0
Cl  Cl85  1  0.09576288  0.42807952  0.32076693  1  -0.287324  0  -0.083437  -0.171834  0  1.29708  0
Cl  Cl86  1  0.76190129  0.85175379  0.92527859  1  -0.242103  0  -0.042782  -0.123377  0  1.427258  0
O  O87  1  0.56296906  0.64036184  0.61712722  1  -1.15761  0  -0.321901  -0.544027  0  2.292242  0
O  O88  1  0.46897238  0.48610400  0.64233861  1  -1.184824  0  -0.324012  -0.55857  0  2.340621  0
O  O89  1  0.34048089  0.57937409  0.49224391  1  -1.184711  0  -0.32059  -0.56178  0  2.335321  0
O  O90  1  0.27674123  0.41898994  0.50346199  1  -1.16018  0  -0.313985  -0.535212  0  2.371209  0
O  O91  1  0.50758076  0.51429179  0.35972068  1  -1.177207  0  -0.324642  -0.56067  0  2.359086  0
O  O92  1  0.46639328  0.35903307  0.38348988  1  -1.15777  0  -0.324871  -0.552721  0  2.293486  0
O  O93  1  0.71942499  0.57900775  0.48233296  1  -1.17121  0  -0.321118  -0.551464  0  2.307902  0
O  O94  1  0.64996999  0.43225764  0.52635086  1  -1.177943  0  -0.319035  -0.556962  0  2.363721  0
