# generated using pymatgen
data_SrH11C7NO8
_symmetry_space_group_name_H-M   'P 1'
_cell_length_a   6.98670716
_cell_length_b   8.47078580
_cell_length_c   10.33649970
_cell_angle_alpha   68.69071605
_cell_angle_beta   72.65406707
_cell_angle_gamma   75.76047906
_symmetry_Int_Tables_number   1
_chemical_formula_structural   SrH11C7NO8
_chemical_formula_sum   'Sr2 H22 C14 N2 O16'
_cell_volume   537.44681239
_cell_formula_units_Z   2
loop_
 _symmetry_equiv_pos_site_id
 _symmetry_equiv_pos_as_xyz
  1  'x, y, z'
loop_
 _atom_site_type_symbol
 _atom_site_label
 _atom_site_symmetry_multiplicity
 _atom_site_fract_x
 _atom_site_fract_y
 _atom_site_fract_z
 _atom_site_occupancy
 _atom_site_pbe_bader_spin_density
 _atom_site_pbe_cm5_charge
 _atom_site_pbe_ddec_charge
 _atom_site_pbe_ddec_spin_density
 _atom_site_pbe_ddec_sum_bond_order
 _atom_site_pbe_magmom
Sr  Sr0  1  0.27148736  0.61568134  0.39842024  1  0  0.941043  1.48838  0  1.460199  0
Sr  Sr1  1  0.72851376  0.38431632  0.60158121  1  0  0.941032  1.488384  0  1.460204  0
H  H2  1  0.36349405  0.44351489  0.91013280  1  0  0.124151  0.085029  0  1.009017  0
H  H3  1  0.63650291  0.55648922  0.08986570  1  0  0.124164  0.085049  0  1.009029  0
H  H4  1  0.88798034  0.22122606  0.89002985  1  0  0.122953  0.112772  0  1.041414  0
H  H5  1  0.11201733  0.77877417  0.10997157  1  0  0.122961  0.112818  0  1.041299  0
H  H6  1  0.01170578  0.17073545  0.28925901  1  0  0.124802  0.096299  0  1.030888  0
H  H7  1  0.98829915  0.82926604  0.71074055  1  0  0.124809  0.096281  0  1.030926  0
H  H8  1  0.35246772  0.88643392  0.06587171  1  0  0.287997  0.38372  0  0.960893  0
H  H9  1  0.64753258  0.11355991  0.93413005  1  0  0.288015  0.383758  0  0.960833  0
H  H10  1  0.45359949  0.92912156  0.16427039  1  0  0.293431  0.390509  0  0.945279  0
H  H11  1  0.54640034  0.07087485  0.83572975  1  0  0.293433  0.390504  0  0.945293  0
H  H12  1  0.53315274  0.90059194  0.39839228  1  0  0.289822  0.376645  0  0.967003  0
H  H13  1  0.46684618  0.09940959  0.60160753  1  0  0.289832  0.37666  0  0.966982  0
H  H14  1  0.34922218  0.86760659  0.53131003  1  0  0.300965  0.381523  0  0.954808  0
H  H15  1  0.65077500  0.13239624  0.46868880  1  0  0.300976  0.38153  0  0.954798  0
H  H16  1  0.89651277  0.90414132  0.42996237  1  0  0.299477  0.382236  0  0.953403  0
H  H17  1  0.10348664  0.09585761  0.57004003  1  0  0.299478  0.38221  0  0.953433  0
H  H18  1  0.85446171  0.74933823  0.56818304  1  0  0.29678  0.373257  0  0.971229  0
H  H19  1  0.14553662  0.25065819  0.43181741  1  0  0.296808  0.373277  0  0.971201  0
H  H20  1  0.29993563  0.34209984  0.21327764  1  0  0.282297  0.330434  0  1.037399  0
H  H21  1  0.70006803  0.65790039  0.78672158  1  0  0.282299  0.330425  0  1.03744  0
H  H22  1  0.46268841  0.27811533  0.31241266  1  0  0.309112  0.380559  0  0.944332  0
H  H23  1  0.53731143  0.72188106  0.68758845  1  0  0.309129  0.380603  0  0.944276  0
C  C24  1  0.23926193  0.36859046  0.96220379  1  0  0.068959  0.093314  0  3.914517  0
C  C25  1  0.76073480  0.63141493  0.03779439  1  0  0.068911  0.093208  0  3.914589  0
C  C26  1  0.13109554  0.34055404  0.88055714  1  0  -0.006558  -0.081453  0  3.962635  0
C  C27  1  0.86890165  0.65944877  0.11944265  1  0  -0.006484  -0.081342  0  3.962492  0
C  C28  1  0.97219712  0.24576966  0.95190267  1  0  -0.049007  -0.056285  0  3.909735  0
C  C29  1  0.02780006  0.75423317  0.04809616  1  0  -0.049034  -0.05637  0  3.909739  0
C  C30  1  0.92428381  0.18295523  0.10061054  1  0  -0.015076  -0.094367  0  3.985413  0
C  C31  1  0.07571491  0.81704755  0.89939089  1  0  -0.015071  -0.094376  0  3.985422  0
C  C32  1  0.04198704  0.21690534  0.17293512  1  0  0.06519  0.089599  0  3.893046  0
C  C33  1  0.95801638  0.78309618  0.82706280  1  0  0.065161  0.089586  0  3.892975  0
C  C34  1  0.17968214  0.41493890  0.72088778  1  0  0.224624  0.617712  0  4.204845  0
C  C35  1  0.82031978  0.58506262  0.27911142  1  0  0.224618  0.617755  0  4.204898  0
C  C36  1  0.74967148  0.08530505  0.18147157  1  0  0.218957  0.579671  0  4.211356  0
C  C37  1  0.25032745  0.91469648  0.81852825  1  0  0.218966  0.579729  0  4.211316  0
N  N38  1  0.19514266  0.30843315  0.10529650  1  0  -0.303205  -0.228069  0  3.417951  0
N  N39  1  0.80485776  0.69156837  0.89470300  1  0  -0.303172  -0.227966  0  3.417893  0
O  O40  1  0.05492752  0.41409120  0.65348117  1  0  -0.374296  -0.650769  0  2.238601  0
O  O41  1  0.94507208  0.58590649  0.34651865  1  0  -0.374249  -0.650728  0  2.238678  0
O  O42  1  0.34263347  0.47982632  0.65932976  1  0  -0.39603  -0.666502  0  2.257502  0
O  O43  1  0.65736567  0.52017394  0.34066941  1  0  -0.396071  -0.666584  0  2.257487  0
O  O44  1  0.64664819  0.05785188  0.11203444  1  0  -0.297683  -0.544184  0  2.243148  0
O  O45  1  0.35335445  0.94214576  0.88796767  1  0  -0.297687  -0.544217  0  2.243124  0
O  O46  1  0.71168908  0.03679325  0.31845313  1  0  -0.307531  -0.587201  0  2.252623  0
O  O47  1  0.28830940  0.96321081  0.68154797  1  0  -0.30751  -0.58719  0  2.252643  0
O  O48  1  0.35749088  0.85840298  0.16701356  1  0  -0.647878  -0.845661  0  2.008911  0
O  O49  1  0.64250918  0.14159215  0.83298691  1  0  -0.647893  -0.845695  0  2.008881  0
O  O50  1  0.43409927  0.81962399  0.45587645  1  0  -0.625862  -0.810154  0  2.009491  0
O  O51  1  0.56590313  0.18037495  0.54412437  1  0  -0.625889  -0.810175  0  2.009462  0
O  O52  1  0.96438099  0.81437890  0.50130435  1  0  -0.62534  -0.802713  0  2.021163  0
O  O53  1  0.03561883  0.18561752  0.49869482  1  0  -0.625365  -0.802692  0  2.021127  0
O  O54  1  0.34098521  0.36026506  0.29400494  1  0  -0.602113  -0.794331  0  2.123917  0
O  O55  1  0.65901742  0.63973259  0.70599620  1  0  -0.602147  -0.794411  0  2.123946  0
