# generated using pymatgen
data_Al2H16C24S2O11
_symmetry_space_group_name_H-M   'P 1'
_cell_length_a   6.65406851
_cell_length_b   12.88833294
_cell_length_c   15.24070955
_cell_angle_alpha   68.72928368
_cell_angle_beta   78.94851446
_cell_angle_gamma   72.09418613
_symmetry_Int_Tables_number   1
_chemical_formula_structural   Al2H16C24S2O11
_chemical_formula_sum   'Al2 H16 C24 S2 O11'
_cell_volume   1154.26032440
_cell_formula_units_Z   1
loop_
 _symmetry_equiv_pos_site_id
 _symmetry_equiv_pos_as_xyz
  1  'x, y, z'
loop_
 _atom_site_type_symbol
 _atom_site_label
 _atom_site_symmetry_multiplicity
 _atom_site_fract_x
 _atom_site_fract_y
 _atom_site_fract_z
 _atom_site_occupancy
 _atom_site_pbe_bader_charge
 _atom_site_pbe_bader_spin_density
 _atom_site_pbe_cm5_charge
 _atom_site_pbe_ddec_charge
 _atom_site_pbe_ddec_spin_density
 _atom_site_pbe_ddec_sum_bond_order
 _atom_site_pbe_magmom
Al  Al0  1  0.50212792  0.49623154  0.50060157  1  2.50171  0  0.394587  1.639254  0  2.591633  0
Al  Al1  1  0.00016552  0.50118201  0.49927966  1  2.502583  0  0.398206  1.637905  0  2.573512  0
H  H2  1  0.25108376  0.40321181  0.61680143  1  0.605894  0  0.351148  0.428389  0  0.85717  0
H  H3  1  0.68749541  0.64263391  0.43270140  1  0.64134  0  0.350075  0.432794  0  0.858325  0
H  H4  1  0.78798826  0.57539148  0.92099883  1  0.051458  0  0.098072  0.098818  0  1.033769  0
H  H5  1  0.19454644  0.43656041  0.07665945  1  0.060583  0  0.097075  0.097413  0  1.035502  0
H  H6  1  0.63240800  0.57594137  0.21342881  1  0.088061  0  0.109857  0.111263  0  1.006806  0
H  H7  1  0.73039239  0.57137958  0.05118179  1  0.053714  0  0.099473  0.099319  0  1.020976  0
H  H8  1  0.38326548  0.40863368  0.79290999  1  0.060113  0  0.103594  0.10085  0  1.010256  0
H  H9  1  0.28680259  0.41237276  0.95519991  1  0.047473  0  0.099979  0.100359  0  1.017573  0
H  H10  1  0.62357658  0.14371607  0.54090849  1  0.135122  0  0.119253  0.14448  0  0.989343  0
H  H11  1  0.99995100  0.61859683  0.78862925  1  0.017974  0  0.088271  0.124158  0  1.001937  0
H  H12  1  0.89206914  0.65011757  0.68059220  1  0.038067  0  0.088088  0.126965  0  1.031701  0
H  H13  1  0.07276417  0.51713183  0.72685215  1  0.066074  0  0.094394  0.134801  0  1.01937  0
H  H14  1  0.92974893  0.48838150  0.28051500  1  0.082374  0  0.101427  0.152307  0  1.006039  0
H  H15  1  0.09949222  0.34944201  0.31488487  1  0.061483  0  0.086554  0.12297  0  1.032946  0
H  H16  1  0.97453565  0.39909892  0.20855334  1  0.026087  0  0.086329  0.122005  0  1.011576  0
H  H17  1  0.51593573  0.90178425  0.44967059  1  0.623805  0  0.301438  0.31809  0  0.985421  0
C  C18  1  0.87076573  0.29922329  0.51124781  1  1.631653  0  0.260495  0.638995  0  4.155506  0
C  C19  1  0.68320302  0.48201979  0.66685136  1  1.5372  0  0.267139  0.654394  0  4.07671  0
C  C20  1  0.13817628  0.70081303  0.48512039  1  1.608594  0  0.252862  0.658245  0  4.152318  0
C  C21  1  0.32185073  0.51117545  0.33636579  1  1.566036  0  0.271059  0.653978  0  4.073182  0
C  C22  1  0.64156461  0.48609883  0.76540445  1  -0.025253  0  -0.019375  -0.112425  0  3.923427  0
C  C23  1  0.36145314  0.50947463  0.23714310  1  0.035501  0  -0.015324  -0.10958  0  3.924789  0
C  C24  1  0.75983181  0.53244907  0.80260971  1  -0.027806  0  0.001541  0.172319  0  3.937197  0
C  C25  1  0.69849644  0.53655038  0.89463908  1  -0.0133  0  -0.094702  -0.201574  0  3.932954  0
C  C26  1  0.23480020  0.47006482  0.19797812  1  -0.008629  0  0.003503  0.177083  0  3.939666  0
C  C27  1  0.29318829  0.46809467  0.10527338  1  -0.092835  0  -0.095794  -0.20425  0  3.934394  0
C  C28  1  0.53698258  0.54585999  0.18207091  1  -0.117441  0  -0.082373  -0.081409  0  4.020364  0
C  C29  1  0.59115839  0.54304107  0.09027578  1  -0.00709  0  -0.097121  -0.147553  0  4.000684  0
C  C30  1  0.47248629  0.44436474  0.82232479  1  -0.051558  0  -0.083863  -0.079608  0  4.027474  0
C  C31  1  0.41784466  0.44743875  0.91402223  1  -0.001484  0  -0.095681  -0.14422  0  3.998395  0
C  C32  1  0.52891717  0.49542774  0.95250434  1  -0.018673  0  -0.004239  0.081011  0  4.001204  0
C  C33  1  0.47068874  0.50260964  0.04951770  1  0.010541  0  -0.006598  0.07836  0  4.003701  0
C  C34  1  0.22785227  0.88617485  0.47194633  1  0.552976  0  0.092143  0.293378  0  4.072487  0
C  C35  1  0.79281911  0.11351457  0.52320392  1  -0.033605  0  -0.08561  -0.134124  0  3.963325  0
C  C36  1  0.08804040  0.81818277  0.48766309  1  -0.112408  0  -0.037249  -0.24547  0  3.917572  0
C  C37  1  0.93047983  0.18107342  0.50745190  1  -0.135689  0  -0.013133  -0.10575  0  3.950582  0
C  C38  1  0.90152761  0.00599302  0.51170006  1  -0.145953  0  -0.022348  0.011069  0  4.108415  0
C  C39  1  0.12007853  0.99373915  0.48609149  1  -0.093952  0  -0.035967  -0.152973  0  4.082252  0
C  C40  1  0.94053572  0.58214528  0.74708486  1  -0.032035  0  -0.241657  -0.411567  0  3.957925  0
C  C41  1  0.04905255  0.42491659  0.25277492  1  -0.068074  0  -0.242945  -0.41987  0  3.951821  0
S  S42  1  0.82828756  0.88500609  0.52091164  1  0.201684  0  0.084404  0.100648  0  2.887211  0
S  S43  1  0.19227574  0.11499527  0.47759735  1  0.236213  0  0.091818  0.13615  0  2.785821  0
O  O44  1  0.67343631  0.34207477  0.52728803  1  -1.258246  0  -0.232536  -0.576636  0  2.341241  0
O  O45  1  0.87394049  0.46854536  0.62876880  1  -1.265223  0  -0.241492  -0.607266  0  2.35305  0
O  O46  1  0.98307711  0.65615025  0.49739989  1  -1.256964  0  -0.245086  -0.6025  0  2.314691  0
O  O47  1  0.48423443  0.49435078  0.37756441  1  -1.256675  0  -0.233004  -0.585753  0  2.332147  0
O  O48  1  0.33370611  0.65194039  0.47123751  1  -1.254652  0  -0.235466  -0.587846  0  2.368259  0
O  O49  1  0.13104259  0.53065744  0.37340268  1  -1.260462  0  -0.233454  -0.588851  0  2.355588  0
O  O50  1  0.01820699  0.34833213  0.49833769  1  -1.25123  0  -0.231561  -0.572688  0  2.332969  0
O  O51  1  0.52262354  0.49117588  0.62744183  1  -1.254166  0  -0.241799  -0.607413  0  2.338385  0
O  O52  1  0.26149820  0.44145676  0.54909287  1  -1.412387  0  -0.448375  -0.989096  0  2.202583  0
O  O53  1  0.73499756  0.55892934  0.45384127  1  -1.442683  0  -0.447132  -0.98611  0  2.173817  0
O  O54  1  0.43619853  0.85165085  0.44505197  1  -1.145839  0  -0.328899  -0.393236  0  2.356119  0
