# generated using pymatgen
data_YbH12C20S2N4O9
_symmetry_space_group_name_H-M   'P 1'
_cell_length_a   9.65800790
_cell_length_b   10.44943137
_cell_length_c   12.09927009
_cell_angle_alpha   96.75363116
_cell_angle_beta   91.82977121
_cell_angle_gamma   115.67641447
_symmetry_Int_Tables_number   1
_chemical_formula_structural   YbH12C20S2N4O9
_chemical_formula_sum   'Yb2 H24 C40 S4 N8 O18'
_cell_volume   1088.16024588
_cell_formula_units_Z   2
loop_
 _symmetry_equiv_pos_site_id
 _symmetry_equiv_pos_as_xyz
  1  'x, y, z'
loop_
 _atom_site_type_symbol
 _atom_site_label
 _atom_site_symmetry_multiplicity
 _atom_site_fract_x
 _atom_site_fract_y
 _atom_site_fract_z
 _atom_site_occupancy
 _atom_site_hle17_bader_spin_density
 _atom_site_hle17_ddec_charge
 _atom_site_hle17_ddec_spin_density
 _atom_site_hle17_ddec_sum_bond_order
 _atom_site_hle17_magmom
 _atom_site_hse06_10hf_bader_spin_density
 _atom_site_hse06_10hf_ddec_charge
 _atom_site_hse06_10hf_ddec_spin_density
 _atom_site_hse06_10hf_ddec_sum_bond_order
 _atom_site_hse06_10hf_magmom
 _atom_site_hse06_bader_spin_density
 _atom_site_hse06_ddec_charge
 _atom_site_hse06_ddec_spin_density
 _atom_site_hse06_ddec_sum_bond_order
 _atom_site_hse06_magmom
 _atom_site_pbe_bader_spin_density
 _atom_site_pbe_cm5_charge
 _atom_site_pbe_ddec_charge
 _atom_site_pbe_ddec_spin_density
 _atom_site_pbe_ddec_sum_bond_order
 _atom_site_pbe_magmom
Yb  Yb0  1  0.45150950  0.74912527  0.60593243  1  0  2.228351  0  1.646878  0  0  2.059391  0  2.142257  0  0  2.203597  0  1.920791  0  0  1.618705  2.023528  0  2.171052  0
Yb  Yb1  1  0.54849123  0.25086872  0.39406403  1  0  2.228298  0  1.646967  0  0  2.059315  0  2.14238  0  0  2.203551  0  1.920883  0  0  1.618705  2.0235  0  2.171067  0
H  H2  1  0.23139202  0.15858639  0.08303021  1  0  0.3161  0  0.925505  0  0  0.298909  0  0.982873  0  0  0.307567  0  0.975406  0  0  0.316753  0.292733  0  0.988061  0
H  H3  1  0.76861041  0.84141779  0.91696947  1  0  0.316081  0  0.925572  0  0  0.298896  0  0.982933  0  0  0.307555  0  0.975465  0  0  0.316739  0.292717  0  0.98812  0
H  H4  1  0.68512880  0.09724732  0.72542997  1  0  0.079744  0  0.967403  0  0  0.084038  0  1.038356  0  0  0.087178  0  1.035174  0  0  0.117348  0.08169  0  1.041081  0
H  H5  1  0.31487992  0.90275672  0.27457393  1  0  0.079846  0  0.967398  0  0  0.084064  0  1.038412  0  0  0.087219  0  1.035187  0  0  0.117387  0.081716  0  1.041133  0
H  H6  1  0.67929333  0.29947783  0.85394120  1  0  0.110254  0  0.935651  0  0  0.125267  0  0.985122  0  0  0.128054  0  0.984673  0  0  0.11462  0.122637  0  0.986797  0
H  H7  1  0.32069963  0.70051504  0.14605525  1  0  0.110248  0  0.935581  0  0  0.12522  0  0.985125  0  0  0.128012  0  0.984662  0  0  0.11456  0.122589  0  0.986801  0
H  H8  1  0.46337052  0.24822326  0.97725437  1  0  0.11153  0  0.909127  0  0  0.128484  0  0.955817  0  0  0.131653  0  0.953847  0  0  0.120457  0.126226  0  0.957206  0
H  H9  1  0.53663570  0.75178063  0.02273862  1  0  0.111589  0  0.909023  0  0  0.128482  0  0.955787  0  0  0.131648  0  0.953822  0  0  0.120478  0.126226  0  0.957178  0
H  H10  1  0.92595970  0.54430623  0.93881551  1  0  0.108867  0  0.931751  0  0  0.120489  0  0.989652  0  0  0.123446  0  0.987333  0  0  0.113731  0.118367  0  0.991482  0
H  H11  1  0.07404075  0.45570498  0.06118237  1  0  0.108855  0  0.9318  0  0  0.120498  0  0.989688  0  0  0.123455  0  0.987371  0  0  0.113731  0.118384  0  0.991509  0
H  H12  1  0.94566527  0.36858506  0.78359990  1  0  0.114348  0  0.951321  0  0  0.122028  0  1.01427  0  0  0.125479  0  1.013082  0  0  0.108561  0.119254  0  1.016003  0
H  H13  1  0.05434070  0.63142369  0.21641145  1  0  0.114364  0  0.951491  0  0  0.12202  0  1.014462  0  0  0.125468  0  1.013278  0  0  0.108603  0.119246  0  1.016187  0
H  H14  1  0.15577568  0.46007773  0.65875940  1  0  0.097769  0  0.937675  0  0  0.106361  0  0.997092  0  0  0.10955  0  0.99375  0  0  0.124864  0.103954  0  0.999789  0
H  H15  1  0.84422726  0.53992257  0.34124704  1  0  0.097793  0  0.937683  0  0  0.106395  0  0.997082  0  0  0.109584  0  0.993743  0  0  0.124834  0.103986  0  0.999777  0
H  H16  1  0.83934424  0.76961797  0.19910956  1  0  0.111817  0  0.938035  0  0  0.121042  0  0.99624  0  0  0.125144  0  0.993808  0  0  0.112657  0.117961  0  0.998353  0
H  H17  1  0.16066645  0.23038839  0.80089013  1  0  0.111739  0  0.938083  0  0  0.12105  0  0.996191  0  0  0.125151  0  0.993767  0  0  0.11268  0.117971  0  0.998306  0
H  H18  1  0.70215672  0.80448962  0.36249873  1  0  0.131704  0  0.969113  0  0  0.139706  0  1.028066  0  0  0.14458  0  1.023652  0  0  0.113491  0.136514  0  1.0308  0
H  H19  1  0.29785166  0.19550475  0.63750448  1  0  0.131705  0  0.969081  0  0  0.139724  0  1.028013  0  0  0.144581  0  1.023618  0  0  0.113536  0.136535  0  1.030741  0
H  H20  1  0.02855976  0.25196792  0.42199773  1  0  0.124936  0  0.946315  0  0  0.134372  0  1.004969  0  0  0.138408  0  1.001895  0  0  0.116654  0.131504  0  1.006971  0
H  H21  1  0.97143267  0.74803459  0.57800443  1  0  0.124943  0  0.946428  0  0  0.134392  0  1.005064  0  0  0.138423  0  1.001988  0  0  0.116657  0.131523  0  1.007066  0
H  H22  1  0.18146428  0.66500305  0.44749596  1  0  0.435013  0  0.862175  0  0  0.40591  0  0.922325  0  0  0.416463  0  0.907085  0  0  0.301303  0.398398  0  0.933456  0
H  H23  1  0.81852326  0.33499135  0.55250295  1  0  0.435085  0  0.862083  0  0  0.406002  0  0.922202  0  0  0.416557  0  0.906959  0  0  0.301342  0.39849  0  0.933334  0
H  H24  1  0.22778880  0.53472364  0.42935191  1  0  0.462209  0  0.825269  0  0  0.433258  0  0.883819  0  0  0.443608  0  0.868872  0  0  0.308928  0.426095  0  0.894321  0
H  H25  1  0.77220612  0.46527099  0.57064786  1  0  0.462277  0  0.825192  0  0  0.433329  0  0.883734  0  0  0.44368  0  0.868786  0  0  0.308931  0.426164  0  0.894239  0
C  C26  1  0.59099426  0.07766156  0.77822505  1  0  0.163173  0  3.67714  0  0  0.128931  0  3.942286  0  0  0.137204  0  3.959752  0  0  0.05519  0.122919  0  3.933954  0
C  C27  1  0.40900479  0.92233941  0.22177968  1  0  0.163001  0  3.677364  0  0  0.128856  0  3.942438  0  0  0.137135  0  3.959912  0  0  0.055149  0.122841  0  3.934105  0
C  C28  1  0.58808864  0.19104455  0.85140160  1  0  -0.106037  0  3.720492  0  0  -0.119007  0  3.975824  0  0  -0.124039  0  3.994624  0  0  -0.076402  -0.115527  0  3.963787  0
C  C29  1  0.41190566  0.80895516  0.14860229  1  0  -0.10599  0  3.720323  0  0  -0.118949  0  3.975612  0  0  -0.123984  0  3.994405  0  0  -0.07634  -0.115467  0  3.963575  0
C  C30  1  0.46872939  0.16265325  0.91908980  1  0  -0.033784  0  3.68239  0  0  -0.063494  0  3.937032  0  0  -0.060832  0  3.952888  0  0  -0.061619  -0.064989  0  3.925692  0
C  C31  1  0.53127041  0.83735197  0.08090984  1  0  -0.033856  0  3.682093  0  0  -0.063481  0  3.936763  0  0  -0.060823  0  3.952626  0  0  -0.061635  -0.064981  0  3.925431  0
C  C32  1  0.35472229  0.02013666  0.91332277  1  0  -0.030334  0  3.803847  0  0  -0.017248  0  4.044487  0  0  -0.019867  0  4.067504  0  0  0.000812  -0.015128  0  4.028425  0
C  C33  1  0.64528187  0.97987334  0.08667934  1  0  -0.030271  0  3.80393  0  0  -0.01727  0  4.044622  0  0  -0.019889  0  4.067641  0  0  0.000776  -0.015153  0  4.028566  0
C  C34  1  0.23189167  0.97350051  0.98320943  1  0  0.110698  0  3.809026  0  0  0.088655  0  4.06919  0  0  0.091201  0  4.092488  0  0  0.094766  0.087075  0  4.053156  0
C  C35  1  0.76810592  0.02649784  0.01678779  1  0  0.110606  0  3.80899  0  0  0.088612  0  4.069154  0  0  0.091159  0  4.092448  0  0  0.094753  0.087021  0  4.053121  0
C  C36  1  0.12892849  0.82908775  0.98355398  1  0  0.099229  0  3.8486  0  0  0.090688  0  4.11616  0  0  0.092228  0  4.139848  0  0  0.087906  0.089477  0  4.100704  0
C  C37  1  0.87106880  0.17091621  0.01644986  1  0  0.099222  0  3.848754  0  0  0.090715  0  4.116203  0  0  0.092253  0  4.139888  0  0  0.087957  0.089506  0  4.100751  0
C  C38  1  0.13029449  0.72063852  0.89973928  1  0  -0.024556  0  3.763545  0  0  -0.013697  0  4.000378  0  0  -0.017025  0  4.023694  0  0  0.002333  -0.011226  0  3.98416  0
C  C39  1  0.86970964  0.27936727  0.10025786  1  0  -0.024493  0  3.76359  0  0  -0.013576  0  4.000328  0  0  -0.016903  0  4.023642  0  0  0.002312  -0.011109  0  3.984112  0
C  C40  1  0.01868379  0.57649187  0.88404609  1  0  -0.013523  0  3.678492  0  0  -0.044025  0  3.935088  0  0  -0.039792  0  3.950248  0  0  -0.057987  -0.046653  0  3.924444  0
C  C41  1  0.98131753  0.42351881  0.11595431  1  0  -0.013662  0  3.678313  0  0  -0.044214  0  3.934947  0  0  -0.039982  0  3.950106  0  0  -0.058048  -0.046852  0  3.924306  0
C  C42  1  0.02764564  0.48156613  0.79808441  1  0  -0.115337  0  3.711764  0  0  -0.130476  0  3.971214  0  0  -0.136721  0  3.989388  0  0  -0.081036  -0.126064  0  3.95866  0
C  C43  1  0.97235644  0.51844577  0.20192185  1  0  -0.115256  0  3.711666  0  0  -0.130385  0  3.971129  0  0  -0.136631  0  3.989304  0  0  -0.081007  -0.125973  0  3.958573  0
C  C44  1  0.14634505  0.53204310  0.72758550  1  0  0.172236  0  3.673956  0  0  0.141517  0  3.928138  0  0  0.150357  0  3.946958  0  0  0.059271  0.135861  0  3.918302  0
C  C45  1  0.85365936  0.46795846  0.27241674  1  0  0.1723  0  3.673834  0  0  0.141585  0  3.928011  0  0  0.150426  0  3.94683  0  0  0.059325  0.135928  0  3.918171  0
C  C46  1  0.24761456  0.76352049  0.82475539  1  0  0.140904  0  3.75017  0  0  0.132471  0  3.998241  0  0  0.136566  0  4.024942  0  0  0.116635  0.129249  0  3.983767  0
C  C47  1  0.75238985  0.23648354  0.17524345  1  0  0.140933  0  3.750079  0  0  0.132478  0  3.998122  0  0  0.136574  0  4.024826  0  0  0.116658  0.129255  0  3.983644  0
C  C48  1  0.36452409  0.91172399  0.83526508  1  0  0.139628  0  3.750894  0  0  0.131668  0  3.99904  0  0  0.135361  0  4.024233  0  0  0.118625  0.128789  0  3.985061  0
C  C49  1  0.63547355  0.08827418  0.16473634  1  0  0.139498  0  3.751271  0  0  0.1316  0  3.999368  0  0  0.135291  0  4.024566  0  0  0.118605  0.128723  0  3.985385  0
C  C50  1  0.07794587  0.95192100  0.11833886  1  0  0.323369  0  3.728366  0  0  0.292984  0  4.009457  0  0  0.304754  0  4.024371  0  0  0.217807  0.284893  0  3.999255  0
C  C51  1  0.92205655  0.04808759  0.88166159  1  0  0.323466  0  3.728268  0  0  0.293072  0  4.009401  0  0  0.304846  0  4.024305  0  0  0.217824  0.284971  0  3.999206  0
C  C52  1  0.00918356  0.98896116  0.21566999  1  0  0.022931  0  3.717016  0  0  0.02565  0  3.961081  0  0  0.029135  0  3.980359  0  0  0.010206  0.02287  0  3.948302  0
C  C53  1  0.99081964  0.01104233  0.78433137  1  0  0.022793  0  3.717043  0  0  0.025543  0  3.961109  0  0  0.029029  0  3.980386  0  0  0.0102  0.022766  0  3.948336  0
C  C54  1  0.87905073  0.87550946  0.24824434  1  0  -0.066799  0  3.669987  0  0  -0.089137  0  3.927404  0  0  -0.092601  0  3.945163  0  0  -0.072603  -0.086825  0  3.916051  0
C  C55  1  0.12094745  0.12449452  0.75175448  1  0  -0.066746  0  3.670008  0  0  -0.08917  0  3.927428  0  0  -0.092638  0  3.945182  0  0  -0.072645  -0.086858  0  3.916076  0
C  C56  1  0.80195867  0.89470856  0.33897250  1  0  -0.035529  0  3.683829  0  0  -0.065438  0  3.935999  0  0  -0.062159  0  3.951419  0  0  -0.074066  -0.06768  0  3.925127  0
C  C57  1  0.19804624  0.10528966  0.66102896  1  0  -0.035543  0  3.68361  0  0  -0.065435  0  3.935802  0  0  -0.062143  0  3.951226  0  0  -0.07413  -0.067678  0  3.924928  0
C  C58  1  0.85575062  0.03166337  0.40030414  1  0  -0.11562  0  3.726098  0  0  -0.089408  0  3.979628  0  0  -0.097167  0  3.999991  0  0  -0.014611  -0.0842  0  3.964945  0
C  C59  1  0.14424610  0.96833304  0.59969395  1  0  -0.115621  0  3.725958  0  0  -0.089444  0  3.979519  0  0  -0.097206  0  3.999875  0  0  -0.014616  -0.084236  0  3.964838  0
C  C60  1  0.98535924  0.14634408  0.37230063  1  0  -0.058117  0  3.742119  0  0  -0.100291  0  3.998154  0  0  -0.097471  0  4.016818  0  0  -0.077988  -0.100789  0  3.984511  0
C  C61  1  0.01463920  0.85365814  0.62769989  1  0  -0.058138  0  3.742421  0  0  -0.100319  0  3.998469  0  0  -0.097494  0  4.017133  0  0  -0.077975  -0.100815  0  3.984826  0
C  C62  1  0.06239049  0.12642888  0.28117651  1  0  -0.139591  0  3.636901  0  0  -0.120701  0  3.892764  0  0  -0.127654  0  3.911975  0  0  -0.011415  -0.116279  0  3.879435  0
C  C63  1  0.93760611  0.87356927  0.71882490  1  0  -0.139504  0  3.636901  0  0  -0.120628  0  3.892795  0  0  -0.127587  0  3.912012  0  0  -0.011422  -0.116211  0  3.879472  0
C  C64  1  0.54299246  0.54452479  0.45509510  1  0  0.576428  0  3.93948  0  0  0.527645  0  4.243838  0  0  0.558122  0  4.24314  0  0  0.20705  0.506514  0  4.250683  0
C  C65  1  0.45699729  0.45546348  0.54489973  1  0  0.576104  0  3.940233  0  0  0.527331  0  4.244573  0  0  0.557816  0  4.24387  0  0  0.206847  0.506184  0  4.251444  0
S  S66  1  0.23255930  0.28342321  0.26104403  1  0  1.354255  0  5.582287  0  0  1.252998  0  6.104888  0  0  1.303063  0  6.082213  0  0  0.53662  1.218857  0  6.121394  0
S  S67  1  0.76744206  0.71657373  0.73896161  1  0  1.354481  0  5.582326  0  0  1.253182  0  6.10494  0  0  1.303251  0  6.08226  0  0  0.536686  1.219038  0  6.121447  0
S  S68  1  0.75302816  0.06876310  0.50857437  1  0  1.394287  0  5.531219  0  0  1.295859  0  6.041461  0  0  1.347304  0  6.018758  0  0  0.553851  1.261614  0  6.058743  0
S  S69  1  0.24696536  0.93122680  0.49141794  1  0  1.394551  0  5.530705  0  0  1.296131  0  6.040934  0  0  1.347569  0  6.018228  0  0  0.553951  1.261885  0  6.058218  0
N  N70  1  0.48196183  0.94245139  0.76874752  1  0  -0.417785  0  3.23191  0  0  -0.36786  0  3.503084  0  0  -0.392173  0  3.523029  0  0  -0.369136  -0.358727  0  3.492278  0
N  N71  1  0.51803987  0.05754471  0.23124892  1  0  -0.417667  0  3.232289  0  0  -0.367773  0  3.503396  0  0  -0.392091  0  3.523346  0  0  -0.369127  -0.358644  0  3.492579  0
N  N72  1  0.25369015  0.66867912  0.73990356  1  0  -0.458402  0  3.237519  0  0  -0.404642  0  3.507182  0  0  -0.43341  0  3.52746  0  0  -0.395444  -0.393763  0  3.495688  0
N  N73  1  0.74631201  0.33132436  0.26009779  1  0  -0.458425  0  3.237326  0  0  -0.404664  0  3.506999  0  0  -0.433436  0  3.527278  0  0  -0.395475  -0.393794  0  3.495496  0
N  N74  1  0.03548763  0.81672008  0.06853921  1  0  -0.41728  0  2.924758  0  0  -0.396425  0  3.202728  0  0  -0.408887  0  3.216602  0  0  -0.32882  -0.387692  0  3.193462  0
N  N75  1  0.96451234  0.18328512  0.93146546  1  0  -0.417269  0  2.924803  0  0  -0.396439  0  3.202787  0  0  -0.408898  0  3.216654  0  0  -0.328819  -0.387705  0  3.193528  0
N  N76  1  0.19508111  0.04896863  0.06719639  1  0  -0.359336  0  3.390529  0  0  -0.301764  0  3.622777  0  0  -0.318322  0  3.636624  0  0  -0.376577  -0.289496  0  3.612316  0
N  N77  1  0.80492101  0.95103256  0.93280416  1  0  -0.359344  0  3.390468  0  0  -0.301844  0  3.622813  0  0  -0.3184  0  3.636642  0  0  -0.376627  -0.289548  0  3.612333  0
O  O78  1  0.35983348  0.24190945  0.27639122  1  0  -0.799877  0  2.140854  0  0  -0.74729  0  2.432931  0  0  -0.785688  0  2.415492  0  0  -0.44117  -0.729712  0  2.441549  0
O  O79  1  0.64016456  0.75808329  0.72360442  1  0  -0.799992  0  2.140818  0  0  -0.747452  0  2.433019  0  0  -0.785846  0  2.415577  0  0  -0.441251  -0.729863  0  2.441651  0
O  O80  1  0.24190072  0.39803216  0.34641235  1  0  -0.657194  0  2.030965  0  0  -0.595779  0  2.269041  0  0  -0.618008  0  2.255038  0  0  -0.313408  -0.579673  0  2.277986  0
O  O81  1  0.75812366  0.60196742  0.65359505  1  0  -0.657313  0  2.030905  0  0  -0.595907  0  2.269003  0  0  -0.618138  0  2.254997  0  0  -0.313382  -0.579787  0  2.277937  0
O  O82  1  0.21904776  0.31096087  0.14630082  1  0  -0.632896  0  1.935542  0  0  -0.588603  0  2.171694  0  0  -0.60834  0  2.15728  0  0  -0.329584  -0.574295  0  2.180976  0
O  O83  1  0.78094709  0.68903531  0.85370647  1  0  -0.632982  0  1.935572  0  0  -0.588601  0  2.171665  0  0  -0.608339  0  2.157249  0  0  -0.329603  -0.574291  0  2.180946  0
O  O84  1  0.63547075  0.09808557  0.44960376  1  0  -0.802604  0  2.145983  0  0  -0.743984  0  2.430304  0  0  -0.782609  0  2.413662  0  0  -0.431813  -0.72629  0  2.43864  0
O  O85  1  0.36452764  0.90190633  0.55038268  1  0  -0.802798  0  2.145921  0  0  -0.744188  0  2.430225  0  0  -0.782799  0  2.413571  0  0  -0.431941  -0.726486  0  2.438573  0
O  O86  1  0.68011405  0.94049151  0.56315308  1  0  -0.732556  0  2.084784  0  0  -0.677711  0  2.36397  0  0  -0.712364  0  2.347161  0  0  -0.383682  -0.662048  0  2.372675  0
O  O87  1  0.31987257  0.05951220  0.43684485  1  0  -0.732531  0  2.084406  0  0  -0.677695  0  2.363563  0  0  -0.712368  0  2.346793  0  0  -0.383595  -0.662038  0  2.372262  0
O  O88  1  0.86296915  0.19513573  0.58436237  1  0  -0.654861  0  1.920509  0  0  -0.599591  0  2.151994  0  0  -0.620509  0  2.137185  0  0  -0.321794  -0.584467  0  2.161161  0
O  O89  1  0.13702489  0.80486191  0.41563149  1  0  -0.654997  0  1.920775  0  0  -0.59967  0  2.15222  0  0  -0.620579  0  2.137408  0  0  -0.321793  -0.584548  0  2.161391  0
O  O90  1  0.54641195  0.66762327  0.45880873  1  0  -0.670367  0  2.097133  0  0  -0.619742  0  2.344463  0  0  -0.655833  0  2.330812  0  0  -0.395093  -0.603548  0  2.351202  0
O  O91  1  0.45358476  0.33236207  0.54118701  1  0  -0.670348  0  2.09712  0  0  -0.619726  0  2.344424  0  0  -0.655823  0  2.330775  0  0  -0.395081  -0.603533  0  2.351168  0
O  O92  1  0.60314740  0.48832317  0.38600875  1  0  -0.652034  0  2.079238  0  0  -0.605161  0  2.325262  0  0  -0.639468  0  2.313373  0  0  -0.379954  -0.588877  0  2.331109  0
O  O93  1  0.39684981  0.51165939  0.61397866  1  0  -0.651772  0  2.079797  0  0  -0.604906  0  2.325822  0  0  -0.639203  0  2.313933  0  0  -0.379732  -0.588615  0  2.331689  0
O  O94  1  0.22877324  0.61237764  0.48486814  1  0  -0.935239  0  1.878999  0  0  -0.886721  0  2.067626  0  0  -0.918975  0  2.030593  0  0  -0.654931  -0.87292  0  2.088664  0
O  O95  1  0.77122473  0.38762160  0.51512823  1  0  -0.935381  0  1.878871  0  0  -0.88688  0  2.067503  0  0  -0.91914  0  2.030466  0  0  -0.65499  -0.873088  0  2.088539  0
