# generated using pymatgen
data_Zn4H12C15O13
_symmetry_space_group_name_H-M   'P 1'
_cell_length_a   13.02153265
_cell_length_b   13.66171957
_cell_length_c   15.30541859
_cell_angle_alpha   75.36794625
_cell_angle_beta   69.92300582
_cell_angle_gamma   72.80380877
_symmetry_Int_Tables_number   1
_chemical_formula_structural   Zn4H12C15O13
_chemical_formula_sum   'Zn8 H24 C30 O26'
_cell_volume   2408.10519695
_cell_formula_units_Z   2
loop_
 _symmetry_equiv_pos_site_id
 _symmetry_equiv_pos_as_xyz
  1  'x, y, z'
loop_
 _atom_site_type_symbol
 _atom_site_label
 _atom_site_symmetry_multiplicity
 _atom_site_fract_x
 _atom_site_fract_y
 _atom_site_fract_z
 _atom_site_occupancy
 _atom_site_pbe_bader_charge
 _atom_site_pbe_bader_spin_density
 _atom_site_pbe_cm5_charge
 _atom_site_pbe_ddec_charge
 _atom_site_pbe_ddec_spin_density
 _atom_site_pbe_ddec_sum_bond_order
 _atom_site_pbe_magmom
Zn  Zn0  1  0.19010918  0.08824552  0.90184860  1  1.317348  0  0.673538  0.965967  0  2.356297  0
Zn  Zn1  1  0.96346825  0.01440398  0.02363209  1  1.308599  0  0.66713  0.955463  0  2.377158  0
Zn  Zn2  1  0.07007416  0.13127780  0.11472468  1  1.315666  0  0.672518  0.96319  0  2.381168  0
Zn  Zn3  1  0.19284400  0.89946172  0.07742552  1  1.312105  0  0.670539  0.961942  0  2.362852  0
Zn  Zn4  1  0.60855441  0.52018961  0.65212473  1  1.315948  0  0.668695  0.970026  0  2.335598  0
Zn  Zn5  1  0.75415423  0.48153443  0.44179878  1  1.314816  0  0.669144  0.958158  0  2.416337  0
Zn  Zn6  1  0.63443790  0.70980696  0.47535848  1  1.313007  0  0.663616  0.959165  0  2.391369  0
Zn  Zn7  1  0.48990684  0.54982240  0.48882014  1  1.317012  0  0.667387  0.964658  0  2.377434  0
H  H8  1  0.04699872  0.10408358  0.67396739  1  0.048525  0  0.110109  0.130236  0  0.962732  0
H  H9  1  0.93088235  0.04891434  0.74760660  1  0.081338  0  0.117137  0.139593  0  0.940301  0
H  H10  1  0.81341982  0.23231664  0.77538964  1  0.114498  0  0.111936  0.107977  0  0.978191  0
H  H11  1  0.98713178  0.26061298  0.57947713  1  0.092545  0  0.107782  0.130647  0  0.986071  0
H  H12  1  0.09529866  0.44026883  0.90185532  1  0.078384  0  0.115292  0.134097  0  0.945785  0
H  H13  1  0.15504526  0.43357581  0.99223710  1  0.088119  0  0.108672  0.128952  0  0.967581  0
H  H14  1  0.34959304  0.40292517  0.87729429  1  0.068628  0  0.110274  0.103734  0  0.978872  0
H  H15  1  0.20835366  0.47331363  0.73761211  1  0.0596  0  0.108694  0.130819  0  0.985404  0
H  H16  1  0.55466733  0.95020758  0.82638342  1  0.073833  0  0.111153  0.131917  0  0.959038  0
H  H17  1  0.55803224  0.85424971  0.93089780  1  0.077489  0  0.115775  0.140273  0  0.944487  0
H  H18  1  0.51045263  0.73057551  0.85675216  1  0.091507  0  0.112272  0.10993  0  0.972746  0
H  H19  1  0.62065162  0.87946760  0.68544166  1  0.10756  0  0.108153  0.13103  0  0.987419  0
H  H20  1  0.65052497  0.15510098  0.23398453  1  0.085655  0  0.116149  0.139644  0  0.949107  0
H  H21  1  0.71884074  0.06421889  0.31219392  1  0.098037  0  0.12438  0.150761  0  0.929406  0
H  H22  1  0.78613185  0.21717059  0.33610026  1  0.085492  0  0.108898  0.104753  0  0.987667  0
H  H23  1  0.54943065  0.31244391  0.31194252  1  0.081845  0  0.107893  0.132414  0  0.987698  0
H  H24  1  0.98870004  0.68635144  0.99793115  1  0.077692  0  0.114944  0.138614  0  0.944376  0
H  H25  1  0.10917791  0.62440992  0.03789034  1  0.073271  0  0.111592  0.13281  0  0.957962  0
H  H26  1  0.95154252  0.56364020  0.16384884  1  0.117732  0  0.112389  0.106611  0  0.981258  0
H  H27  1  0.88909147  0.78763241  0.20293512  1  0.068111  0  0.106248  0.131763  0  1.003408  0
H  H28  1  0.15293886  0.01056506  0.38132347  1  0.068752  0  0.109823  0.13085  0  0.960887  0
H  H29  1  0.07357462  0.91831023  0.39776361  1  0.103189  0  0.120404  0.142146  0  0.935671  0
H  H30  1  0.25271922  0.77586752  0.36565564  1  0.105037  0  0.113258  0.11064  0  0.977498  0
H  H31  1  0.32758921  0.93861874  0.42291200  1  0.065544  0  0.106481  0.12782  0  0.990431  0
C  C32  1  0.01027255  0.09776184  0.82293265  1  1.584683  0  0.23132  0.668754  0  4.103738  0
C  C33  1  0.97276658  0.11253535  0.73560621  1  -0.009765  0  -0.150416  -0.302215  0  3.952267  0
C  C34  1  0.89139732  0.21391779  0.71908067  1  -0.075301  0  -0.064847  0.02503  0  3.914372  0
C  C35  1  0.90994312  0.27885762  0.63635855  1  -0.028456  0  -0.1036  -0.269606  0  3.944509  0
C  C36  1  0.82683515  0.37218025  0.60948790  1  1.550494  0  0.218995  0.652322  0  4.174169  0
C  C37  1  0.16213613  0.28765082  0.96122954  1  1.578366  0  0.233948  0.667949  0  4.103121  0
C  C38  1  0.16809865  0.40176646  0.92913381  1  -0.048004  0  -0.15125  -0.30295  0  3.955061  0
C  C39  1  0.27388205  0.42018082  0.85506200  1  -0.088852  0  -0.068312  0.0245  0  3.934723  0
C  C40  1  0.28081857  0.45677530  0.76386432  1  0.072905  0  -0.10202  -0.262275  0  3.934098  0
C  C41  1  0.38532936  0.47839410  0.69176213  1  1.52603  0  0.216836  0.649768  0  4.175266  0
C  C42  1  0.39397540  0.92584288  0.91729364  1  1.575263  0  0.233047  0.672023  0  4.102597  0
C  C43  1  0.51937691  0.88527212  0.87293289  1  -0.008688  0  -0.151875  -0.305806  0  3.947188  0
C  C44  1  0.54005847  0.80093628  0.81838027  1  0.05349  0  -0.063961  0.023835  0  3.917352  0
C  C45  1  0.59235852  0.80917008  0.72552874  1  -0.170642  0  -0.104241  -0.270551  0  3.948974  0
C  C46  1  0.61238477  0.72906422  0.66831938  1  1.551693  0  0.21783  0.653356  0  4.17493  0
C  C47  1  0.83048810  0.11796322  0.18421154  1  1.572178  0  0.23436  0.665163  0  4.108348  0
C  C48  1  0.72124494  0.13892753  0.26307021  1  -0.069451  0  -0.149282  -0.310307  0  3.958734  0
C  C49  1  0.71352191  0.22192649  0.31361983  1  -0.031705  0  -0.066715  0.037087  0  3.939193  0
C  C50  1  0.62492810  0.30190045  0.33240739  1  -0.00793  0  -0.10704  -0.279724  0  3.946579  0
C  C51  1  0.62368424  0.38097483  0.38352525  1  1.542907  0  0.219217  0.653688  0  4.175267  0
C  C52  1  0.04991619  0.78659807  0.04639754  1  1.582719  0  0.231361  0.671099  0  4.115999  0
C  C53  1  0.02835906  0.68163694  0.05239397  1  -0.035391  0  -0.149964  -0.30529  0  3.951679  0
C  C54  1  0.95440064  0.64561189  0.14784555  1  -0.143632  0  -0.061089  0.031447  0  3.899749  0
C  C55  1  0.89262063  0.70477804  0.21402857  1  0.057663  0  -0.107075  -0.270956  0  3.932054  0
C  C56  1  0.82182476  0.66241741  0.30637522  1  1.547599  0  0.220266  0.653946  0  4.174036  0
C  C57  1  0.15602586  0.96730402  0.25526277  1  1.572592  0  0.23296  0.668355  0  4.105421  0
C  C58  1  0.15463522  0.94001417  0.35863262  1  -0.046583  0  -0.15033  -0.303608  0  3.955233  0
C  C59  1  0.24837273  0.85222452  0.37860078  1  -0.043747  0  -0.066653  0.02887  0  3.926248  0
C  C60  1  0.32709635  0.86342310  0.41081125  1  -0.017015  0  -0.106456  -0.2734  0  3.948863  0
C  C61  1  0.41932952  0.77600696  0.43138868  1  1.533673  0  0.217812  0.651205  0  4.183192  0
O  O62  1  0.10484749  0.03336034  0.02909758  1  -1.233431  0  -0.574127  -1.038226  0  2.550185  0
O  O63  1  0.93554959  0.08859484  0.90245788  1  -1.185759  0  -0.321974  -0.560944  0  2.290217  0
O  O64  1  0.11332389  0.09471205  0.80889697  1  -1.169626  0  -0.314965  -0.548321  0  2.286579  0
O  O65  1  0.85339755  0.41047545  0.52135414  1  -1.178895  0  -0.327358  -0.559402  0  2.291801  0
O  O66  1  0.73704148  0.40545942  0.67239494  1  -1.169127  0  -0.318463  -0.554781  0  2.286721  0
O  O67  1  0.11720297  0.26048851  0.04923156  1  -1.176923  0  -0.319274  -0.553838  0  2.300728  0
O  O68  1  0.19864366  0.23137601  0.89751714  1  -1.165697  0  -0.312863  -0.547525  0  2.319238  0
O  O69  1  0.37825497  0.50860897  0.60728638  1  -1.163533  0  -0.321658  -0.555266  0  2.289423  0
O  O70  1  0.47150031  0.46672291  0.71866777  1  -1.174295  0  -0.319937  -0.559222  0  2.304323  0
O  O71  1  0.35033540  0.87785210  0.99853078  1  -1.179389  0  -0.318058  -0.555921  0  2.297659  0
O  O72  1  0.34439402  0.00330598  0.86848916  1  -1.170418  0  -0.314749  -0.550669  0  2.296889  0
O  O73  1  0.65221338  0.75702365  0.57924891  1  -1.174026  0  -0.327304  -0.560864  0  2.288097  0
O  O74  1  0.58920241  0.64114127  0.70998107  1  -1.172085  0  -0.320463  -0.560362  0  2.291514  0
O  O75  1  0.90662815  0.16224052  0.17774204  1  -1.178323  0  -0.313042  -0.550198  0  2.329916  0
O  O76  1  0.83631982  0.05619119  0.13164802  1  -1.168144  0  -0.321809  -0.555345  0  2.298655  0
O  O77  1  0.53154146  0.44968100  0.40342230  1  -1.166597  0  -0.321413  -0.552209  0  2.278318  0
O  O78  1  0.71299566  0.37494130  0.40386621  1  -1.17816  0  -0.324771  -0.563919  0  2.32231  0
O  O79  1  0.13617466  0.78509087  0.06846974  1  -1.169486  0  -0.317307  -0.554178  0  2.301781  0
O  O80  1  0.97807891  0.86653695  0.02291471  1  -1.18461  0  -0.32005  -0.5607  0  2.296031  0
O  O81  1  0.75862908  0.72906582  0.35960845  1  -1.169128  0  -0.322035  -0.554905  0  2.281132  0
O  O82  1  0.82886641  0.56443716  0.32581310  1  -1.161034  0  -0.319825  -0.557292  0  2.32285  0
O  O83  1  0.18131647  0.89226235  0.21073238  1  -1.170712  0  -0.312531  -0.547074  0  2.295308  0
O  O84  1  0.12943543  0.06386886  0.22304318  1  -1.174852  0  -0.320122  -0.559726  0  2.305232  0
O  O85  1  0.49469263  0.80105416  0.45183834  1  -1.166337  0  -0.325215  -0.557282  0  2.284994  0
O  O86  1  0.41699306  0.68442317  0.42755563  1  -1.172393  0  -0.32125  -0.558671  0  2.31301  0
O  O87  1  0.61925854  0.56565329  0.51755143  1  -1.230995  0  -0.57454  -1.031472  0  2.54461  0
