# generated using pymatgen
data_CdH9C5N(ClO)2
_symmetry_space_group_name_H-M   'P 1'
_cell_length_a   7.09897523
_cell_length_b   9.67785987
_cell_length_c   13.36184912
_cell_angle_alpha   89.99933274
_cell_angle_beta   89.99975534
_cell_angle_gamma   89.99923678
_symmetry_Int_Tables_number   1
_chemical_formula_structural   CdH9C5N(ClO)2
_chemical_formula_sum   'Cd4 H36 C20 N4 Cl8 O8'
_cell_volume   917.99761621
_cell_formula_units_Z   4
loop_
 _symmetry_equiv_pos_site_id
 _symmetry_equiv_pos_as_xyz
  1  'x, y, z'
loop_
 _atom_site_type_symbol
 _atom_site_label
 _atom_site_symmetry_multiplicity
 _atom_site_fract_x
 _atom_site_fract_y
 _atom_site_fract_z
 _atom_site_occupancy
 _atom_site_hle17_bader_spin_density
 _atom_site_hle17_ddec_charge
 _atom_site_hle17_ddec_spin_density
 _atom_site_hle17_ddec_sum_bond_order
 _atom_site_hle17_magmom
 _atom_site_hse06_10hf_bader_spin_density
 _atom_site_hse06_10hf_ddec_charge
 _atom_site_hse06_10hf_ddec_spin_density
 _atom_site_hse06_10hf_ddec_sum_bond_order
 _atom_site_hse06_10hf_magmom
 _atom_site_hse06_bader_spin_density
 _atom_site_hse06_ddec_charge
 _atom_site_hse06_ddec_spin_density
 _atom_site_hse06_ddec_sum_bond_order
 _atom_site_hse06_magmom
 _atom_site_pbe_bader_spin_density
 _atom_site_pbe_cm5_charge
 _atom_site_pbe_ddec_charge
 _atom_site_pbe_ddec_spin_density
 _atom_site_pbe_ddec_sum_bond_order
 _atom_site_pbe_magmom
Cd  Cd0  1  0.35499424  0.22889178  0.00507502  1  0  1.041977  0  1.922871  0  0  0.894837  0  2.387616  0  0  0.943241  0  2.339067  0  0  0.585819  0.861042  0  2.42046  0
Cd  Cd1  1  0.64501137  0.72889572  0.49493292  1  0  1.042008  0  1.922916  0  0  0.894902  0  2.387566  0  0  0.943307  0  2.339013  0  0  0.585839  0.861103  0  2.420445  0
Cd  Cd2  1  0.14501061  0.77111509  0.50506664  1  0  1.041919  0  1.923  0  0  0.894815  0  2.387686  0  0  0.943215  0  2.339138  0  0  0.58581  0.861019  0  2.420539  0
Cd  Cd3  1  0.85500154  0.27111280  0.99492978  1  0  1.041955  0  1.922942  0  0  0.894802  0  2.38767  0  0  0.943206  0  2.339118  0  0  0.585822  0.861008  0  2.420526  0
H  H4  1  0.11549754  0.91489683  0.27224724  1  0  0.095737  0  0.946434  0  0  0.101754  0  1.011608  0  0  0.104313  0  1.010467  0  0  0.106842  0.099652  0  1.013069  0
H  H5  1  0.88450474  0.41492127  0.22775014  1  0  0.095785  0  0.946235  0  0  0.101848  0  1.011416  0  0  0.104407  0  1.010274  0  0  0.106885  0.099738  0  1.012906  0
H  H6  1  0.38449392  0.08509025  0.77225085  1  0  0.095867  0  0.946143  0  0  0.101896  0  1.01136  0  0  0.104459  0  1.010215  0  0  0.106917  0.099793  0  1.012833  0
H  H7  1  0.61550184  0.58508327  0.72774864  1  0  0.095764  0  0.946188  0  0  0.101813  0  1.011388  0  0  0.104373  0  1.010245  0  0  0.106866  0.099706  0  1.012871  0
H  H8  1  0.10377977  0.70451223  0.18539939  1  0  0.084015  0  0.952399  0  0  0.097415  0  1.017157  0  0  0.099032  0  1.016827  0  0  0.088736  0.09643  0  1.016654  0
H  H9  1  0.89620937  0.20453102  0.31459678  1  0  0.08393  0  0.952677  0  0  0.097323  0  1.017359  0  0  0.098942  0  1.017021  0  0  0.088661  0.096338  0  1.016869  0
H  H10  1  0.39620534  0.29547625  0.68540268  1  0  0.083966  0  0.952554  0  0  0.097366  0  1.017271  0  0  0.098984  0  1.016936  0  0  0.088703  0.096386  0  1.016771  0
H  H11  1  0.60378383  0.79547419  0.81459203  1  0  0.083918  0  0.952654  0  0  0.097346  0  1.017327  0  0  0.098966  0  1.016989  0  0  0.088712  0.096361  0  1.016831  0
H  H12  1  0.17610519  0.80718105  0.08267432  1  0  0.091764  0  0.950531  0  0  0.108738  0  1.011052  0  0  0.109834  0  1.011275  0  0  0.100034  0.108027  0  1.010714  0
H  H13  1  0.82389620  0.30719892  0.41732173  1  0  0.091817  0  0.950474  0  0  0.108728  0  1.010991  0  0  0.109826  0  1.011206  0  0  0.100023  0.10801  0  1.010661  0
H  H14  1  0.32388496  0.19281424  0.58267565  1  0  0.091815  0  0.950522  0  0  0.108745  0  1.011056  0  0  0.109839  0  1.011275  0  0  0.100035  0.108019  0  1.010733  0
H  H15  1  0.67610042  0.69281395  0.91732143  1  0  0.091772  0  0.950443  0  0  0.108692  0  1.010982  0  0  0.109788  0  1.0112  0  0  0.099988  0.107979  0  1.010651  0
H  H16  1  0.85008977  0.65998002  0.06569747  1  0  0.092393  0  0.944489  0  0  0.106988  0  1.007587  0  0  0.108228  0  1.007712  0  0  0.091861  0.105828  0  1.007933  0
H  H17  1  0.14989876  0.15997949  0.43429907  1  0  0.092367  0  0.944435  0  0  0.106975  0  1.007546  0  0  0.108216  0  1.00767  0  0  0.091842  0.105798  0  1.007903  0
H  H18  1  0.64989555  0.34002609  0.56570620  1  0  0.092324  0  0.944443  0  0  0.106906  0  1.007554  0  0  0.108147  0  1.007679  0  0  0.091791  0.105727  0  1.007919  0
H  H19  1  0.35008860  0.84001843  0.93429264  1  0  0.092353  0  0.944409  0  0  0.106941  0  1.00757  0  0  0.108181  0  1.007695  0  0  0.091809  0.10577  0  1.007924  0
H  H20  1  0.85139841  0.83550882  0.02432970  1  0  0.082048  0  0.947001  0  0  0.097418  0  1.008469  0  0  0.098629  0  1.008652  0  0  0.086763  0.096314  0  1.008637  0
H  H21  1  0.14860529  0.33551281  0.47566686  1  0  0.082117  0  0.946996  0  0  0.097497  0  1.008459  0  0  0.098704  0  1.008651  0  0  0.086807  0.096388  0  1.00863  0
H  H22  1  0.64859288  0.16449795  0.52433318  1  0  0.08214  0  0.947068  0  0  0.097516  0  1.008477  0  0  0.098729  0  1.008658  0  0  0.086822  0.09639  0  1.008666  0
H  H23  1  0.35139442  0.66449581  0.97566714  1  0  0.082067  0  0.947023  0  0  0.097489  0  1.008449  0  0  0.0987  0  1.008633  0  0  0.086799  0.096365  0  1.00864  0
H  H24  1  0.59402972  0.84414430  0.14465088  1  0  0.090613  0  0.909402  0  0  0.10633  0  0.966665  0  0  0.107691  0  0.965897  0  0  0.112726  0.105189  0  0.967554  0
H  H25  1  0.40597241  0.34413734  0.35534635  1  0  0.090584  0  0.909449  0  0  0.106309  0  0.966687  0  0  0.107669  0  0.965921  0  0  0.112733  0.105167  0  0.967581  0
H  H26  1  0.90596202  0.15586261  0.64465683  1  0  0.09054  0  0.909412  0  0  0.106315  0  0.966618  0  0  0.107677  0  0.965848  0  0  0.112698  0.105173  0  0.967504  0
H  H27  1  0.09402543  0.65585358  0.85534430  1  0  0.090609  0  0.909394  0  0  0.106303  0  0.96669  0  0  0.107664  0  0.965919  0  0  0.11272  0.105161  0  0.967577  0
H  H28  1  0.70955136  0.72565303  0.22662344  1  0  0.082647  0  0.932061  0  0  0.095982  0  0.994997  0  0  0.097034  0  0.994863  0  0  0.106462  0.095118  0  0.995222  0
H  H29  1  0.29044868  0.22565266  0.27337630  1  0  0.082614  0  0.932013  0  0  0.09596  0  0.994941  0  0  0.097012  0  0.994808  0  0  0.106459  0.095097  0  0.995167  0
H  H30  1  0.79044818  0.27434636  0.72663015  1  0  0.08266  0  0.932044  0  0  0.096032  0  0.994939  0  0  0.097086  0  0.994804  0  0  0.106468  0.095166  0  0.995163  0
H  H31  1  0.20954278  0.77433544  0.77336924  1  0  0.082578  0  0.932114  0  0  0.095965  0  0.994993  0  0  0.097017  0  0.994859  0  0  0.106427  0.095098  0  0.99522  0
H  H32  1  0.78638014  0.02161502  0.19529084  1  0  0.304683  0  0.855472  0  0  0.289053  0  0.909689  0  0  0.297601  0  0.903139  0  0  0.319017  0.282838  0  0.914517  0
H  H33  1  0.21364327  0.52161595  0.30470313  1  0  0.304706  0  0.855439  0  0  0.28904  0  0.909707  0  0  0.297616  0  0.903113  0  0  0.318953  0.282815  0  0.914544  0
H  H34  1  0.71362388  0.97838798  0.69529926  1  0  0.304603  0  0.855491  0  0  0.289075  0  0.909584  0  0  0.297655  0  0.902982  0  0  0.318994  0.282851  0  0.914421  0
H  H35  1  0.28637188  0.47837681  0.80470813  1  0  0.30463  0  0.855553  0  0  0.28896  0  0.909825  0  0  0.297518  0  0.903259  0  0  0.318967  0.282736  0  0.914657  0
H  H36  1  0.80588993  0.92639985  0.30161958  1  0  0.287806  0  0.903636  0  0  0.267661  0  0.972806  0  0  0.275419  0  0.967096  0  0  0.285672  0.262121  0  0.976931  0
H  H37  1  0.19411215  0.42639647  0.19837621  1  0  0.28774  0  0.903764  0  0  0.267588  0  0.972942  0  0  0.275345  0  0.967235  0  0  0.285639  0.262036  0  0.977076  0
H  H38  1  0.69410620  0.07360454  0.80162671  1  0  0.287829  0  0.903793  0  0  0.267599  0  0.973053  0  0  0.275357  0  0.967345  0  0  0.285682  0.262047  0  0.977189  0
H  H39  1  0.30589117  0.57359180  0.69837587  1  0  0.287691  0  0.903744  0  0  0.26752  0  0.972956  0  0  0.275279  0  0.967245  0  0  0.285617  0.261969  0  0.97709  0
C  C40  1  0.08976821  0.05513246  0.14772098  1  0  0.652545  0  3.86494  0  0  0.600831  0  4.169551  0  0  0.634708  0  4.163408  0  0  0.209556  0.577959  0  4.172869  0
C  C41  1  0.91026163  0.55515156  0.35228243  1  0  0.652604  0  3.864606  0  0  0.600954  0  4.169226  0  0  0.634828  0  4.163073  0  0  0.209606  0.578085  0  4.172552  0
C  C42  1  0.41024114  0.94486386  0.64771876  1  0  0.652589  0  3.864867  0  0  0.600932  0  4.169483  0  0  0.634805  0  4.16334  0  0  0.209602  0.578071  0  4.172793  0
C  C43  1  0.58976226  0.44484995  0.85228367  1  0  0.652479  0  3.865136  0  0  0.601089  0  4.169326  0  0  0.634963  0  4.163172  0  0  0.209722  0.578217  0  4.172649  0
C  C44  1  0.03644551  0.92075962  0.20176380  1  0  0.011463  0  3.472539  0  0  -0.007867  0  3.711878  0  0  -0.009036  0  3.72197  0  0  0.005335  -0.007458  0  3.705423  0
C  C45  1  0.96355666  0.42078318  0.29823204  1  0  0.011795  0  3.471806  0  0  -0.007743  0  3.711334  0  0  -0.008918  0  3.721445  0  0  0.005359  -0.007344  0  3.704888  0
C  C46  1  0.46354651  0.07922860  0.70176652  1  0  0.01158  0  3.472328  0  0  -0.007933  0  3.711917  0  0  -0.009118  0  3.722046  0  0  0.005331  -0.007538  0  3.705471  0
C  C47  1  0.53644513  0.57922230  0.79823152  1  0  0.011857  0  3.471772  0  0  -0.007774  0  3.711368  0  0  -0.00895  0  3.721484  0  0  0.005366  -0.007375  0  3.70492  0
C  C48  1  0.06347618  0.79121793  0.13729644  1  0  -0.132359  0  3.629606  0  0  -0.177562  0  3.88547  0  0  -0.17834  0  3.897332  0  0  -0.162611  -0.176591  0  3.876122  0
C  C49  1  0.93651845  0.29123659  0.36269824  1  0  -0.132461  0  3.629765  0  0  -0.177444  0  3.885424  0  0  -0.178217  0  3.897283  0  0  -0.162451  -0.176473  0  3.876074  0
C  C50  1  0.43651213  0.20877545  0.63730337  1  0  -0.132453  0  3.629892  0  0  -0.177562  0  3.885673  0  0  -0.178332  0  3.897528  0  0  -0.162588  -0.176586  0  3.876327  0
C  C51  1  0.56347860  0.70877095  0.86269432  1  0  -0.132445  0  3.629553  0  0  -0.177474  0  3.885322  0  0  -0.178248  0  3.897183  0  0  -0.162492  -0.176501  0  3.875972  0
C  C52  1  0.87003948  0.76743737  0.08945419  1  0  -0.137404  0  3.647345  0  0  -0.175985  0  3.905802  0  0  -0.177931  0  3.918623  0  0  -0.166606  -0.17438  0  3.897069  0
C  C53  1  0.12995135  0.26744052  0.41054295  1  0  -0.13743  0  3.647378  0  0  -0.176131  0  3.905873  0  0  -0.178076  0  3.918693  0  0  -0.166679  -0.174503  0  3.897123  0
C  C54  1  0.62994566  0.23256319  0.58945937  1  0  -0.137348  0  3.647487  0  0  -0.1759  0  3.905848  0  0  -0.177842  0  3.918662  0  0  -0.166581  -0.17427  0  3.897124  0
C  C55  1  0.37004183  0.73256088  0.91053812  1  0  -0.137311  0  3.647317  0  0  -0.176039  0  3.905881  0  0  -0.177984  0  3.918699  0  0  -0.166648  -0.174412  0  3.897146  0
C  C56  1  0.73123284  0.80806725  0.17155209  1  0  0.044505  0  3.490105  0  0  -0.014739  0  3.749497  0  0  -0.010501  0  3.758556  0  0  -0.059416  -0.017612  0  3.743438  0
C  C57  1  0.26876572  0.30806931  0.32844619  1  0  0.044627  0  3.489967  0  0  -0.014567  0  3.749291  0  0  -0.010333  0  3.758356  0  0  -0.059369  -0.01745  0  3.743234  0
C  C58  1  0.76875164  0.19193406  0.67156180  1  0  0.044483  0  3.490107  0  0  -0.014828  0  3.749479  0  0  -0.010594  0  3.758541  0  0  -0.059418  -0.0177  0  3.743404  0
C  C59  1  0.23123657  0.69192617  0.82844203  1  0  0.04449  0  3.490113  0  0  -0.01471  0  3.749475  0  0  -0.010469  0  3.758531  0  0  -0.059386  -0.017586  0  3.743408  0
N  N60  1  0.82787651  0.92626087  0.22442066  1  0  -0.290171  0  3.263093  0  0  -0.225636  0  3.470148  0  0  -0.239509  0  3.477186  0  0  -0.470885  -0.216084  0  3.465644  0
N  N61  1  0.17212698  0.42626680  0.27557438  1  0  -0.290288  0  3.263166  0  0  -0.225699  0  3.470278  0  0  -0.239586  0  3.477302  0  0  -0.470831  -0.216119  0  3.465779  0
N  N62  1  0.67210756  0.07373650  0.72442859  1  0  -0.290193  0  3.263507  0  0  -0.225636  0  3.470625  0  0  -0.239522  0  3.477657  0  0  -0.470857  -0.216055  0  3.466125  0
N  N63  1  0.32788277  0.57372437  0.77557548  1  0  -0.290008  0  3.263213  0  0  -0.225399  0  3.470357  0  0  -0.239274  0  3.477394  0  0  -0.470748  -0.215823  0  3.465853  0
Cl  Cl64  1  0.12826930  0.44491972  0.04045270  1  0  -0.557368  0  1.01779  0  0  -0.498523  0  1.296268  0  0  -0.518056  0  1.274573  0  0  -0.266671  -0.484885  0  1.310844  0
Cl  Cl65  1  0.87172821  0.94492301  0.45954443  1  0  -0.557389  0  1.017739  0  0  -0.498555  0  1.296203  0  0  -0.518087  0  1.274509  0  0  -0.266702  -0.484916  0  1.310779  0
Cl  Cl66  1  0.37173386  0.55508348  0.54044937  1  0  -0.557439  0  1.017826  0  0  -0.498593  0  1.296295  0  0  -0.518124  0  1.2746  0  0  -0.266696  -0.484953  0  1.310874  0
Cl  Cl67  1  0.62828215  0.05508091  0.95955486  1  0  -0.557409  0  1.017714  0  0  -0.498533  0  1.296192  0  0  -0.518069  0  1.274499  0  0  -0.266701  -0.484897  0  1.31077  0
Cl  Cl68  1  0.59588370  0.36263619  0.11878449  1  0  -0.571217  0  0.931567  0  0  -0.508971  0  1.188118  0  0  -0.528237  0  1.166641  0  0  -0.314256  -0.494456  0  1.202537  0
Cl  Cl69  1  0.40413783  0.86264640  0.38122681  1  0  -0.571205  0  0.931648  0  0  -0.508943  0  1.188171  0  0  -0.528208  0  1.166694  0  0  -0.314257  -0.494439  0  1.202602  0
Cl  Cl70  1  0.90414065  0.63737114  0.61878188  1  0  -0.571224  0  0.931611  0  0  -0.508952  0  1.188102  0  0  -0.528217  0  1.166626  0  0  -0.314259  -0.494441  0  1.202534  0
Cl  Cl71  1  0.09587390  0.13735133  0.88122540  1  0  -0.57122  0  0.931618  0  0  -0.508942  0  1.188117  0  0  -0.528206  0  1.166641  0  0  -0.314255  -0.49444  0  1.20255  0
O  O72  1  0.26004068  0.06636158  0.12118549  1  0  -0.617154  0  2.02855  0  0  -0.561692  0  2.283497  0  0  -0.589624  0  2.273206  0  0  -0.327056  -0.542573  0  2.289822  0
O  O73  1  0.73999319  0.56638401  0.37881933  1  0  -0.617261  0  2.02845  0  0  -0.561771  0  2.283345  0  0  -0.589699  0  2.273052  0  0  -0.327052  -0.542653  0  2.289674  0
O  O74  1  0.23997311  0.93363206  0.62118376  1  0  -0.617165  0  2.028587  0  0  -0.561718  0  2.283532  0  0  -0.589646  0  2.27324  0  0  -0.327017  -0.542598  0  2.28985  0
O  O75  1  0.76003191  0.43362844  0.87882252  1  0  -0.617172  0  2.028755  0  0  -0.561766  0  2.283529  0  0  -0.589691  0  2.27323  0  0  -0.32708  -0.542646  0  2.289855  0
O  O76  1  0.45834685  0.35701911  0.86362245  1  0  -0.656618  0  2.095304  0  0  -0.596281  0  2.349772  0  0  -0.624775  0  2.341225  0  0  -0.33149  -0.576702  0  2.355093  0
O  O77  1  0.54165671  0.85703189  0.63638447  1  0  -0.656568  0  2.094948  0  0  -0.59616  0  2.349528  0  0  -0.624643  0  2.340945  0  0  -0.331465  -0.576585  0  2.35485  0
O  O78  1  0.04167769  0.64297891  0.36362056  1  0  -0.656598  0  2.09508  0  0  -0.596209  0  2.34974  0  0  -0.624691  0  2.341151  0  0  -0.331462  -0.576631  0  2.355064  0
O  O79  1  0.95836749  0.14296688  0.13638735  1  0  -0.656492  0  2.095103  0  0  -0.596006  0  2.349617  0  0  -0.624457  0  2.340978  0  0  -0.331318  -0.57643  0  2.354937  0
