# generated using pymatgen
data_Al2H5C18O10F
_symmetry_space_group_name_H-M   'P 1'
_cell_length_a   6.69390551
_cell_length_b   18.17890145
_cell_length_c   20.83575694
_cell_angle_alpha   107.99491401
_cell_angle_beta   90.01967451
_cell_angle_gamma   90.10836145
_symmetry_Int_Tables_number   1
_chemical_formula_structural   Al2H5C18O10F
_chemical_formula_sum   'Al4 H10 C36 O20 F2'
_cell_volume   2411.42834755
_cell_formula_units_Z   2
loop_
 _symmetry_equiv_pos_site_id
 _symmetry_equiv_pos_as_xyz
  1  'x, y, z'
loop_
 _atom_site_type_symbol
 _atom_site_label
 _atom_site_symmetry_multiplicity
 _atom_site_fract_x
 _atom_site_fract_y
 _atom_site_fract_z
 _atom_site_occupancy
 _atom_site_pbe_bader_charge
 _atom_site_pbe_bader_spin_density
 _atom_site_pbe_cm5_charge
 _atom_site_pbe_ddec_charge
 _atom_site_pbe_ddec_spin_density
 _atom_site_pbe_ddec_sum_bond_order
 _atom_site_pbe_magmom
Al  Al0  1  0.13387577  0.50003786  0.50037657  1  2.501871  0  0.406804  1.647728  0  2.579386  0
Al  Al1  1  0.63418358  0.50070170  0.50077839  1  2.502677  0  0.407097  1.648519  0  2.578893  0
Al  Al2  1  0.64866703  0.00055016  0.00126557  1  2.503759  0  0.407559  1.647442  0  2.576062  0
Al  Al3  1  0.14835562  0.00002626  0.00091105  1  2.502619  0  0.407861  1.647467  0  2.5774  0
H  H4  1  0.20843256  0.69687526  0.27953553  1  0.0782  0  0.110582  0.112293  0  0.99552  0
H  H5  1  0.21166870  0.77695122  0.20144875  1  0.083893  0  0.110474  0.11227  0  0.996613  0
H  H6  1  0.57277865  0.80313620  0.22099509  1  0.076816  0  0.111006  0.112508  0  0.995489  0
H  H7  1  0.56941837  0.72305292  0.29908266  1  0.086981  0  0.110478  0.111786  0  0.996795  0
H  H8  1  0.68873335  0.33147607  0.74449733  1  0.109678  0  0.122975  0.155607  0  0.969006  0
H  H9  1  0.09102765  0.24784555  0.67856619  1  0.109781  0  0.122085  0.154323  0  0.970439  0
H  H10  1  0.38363502  0.59988138  0.51018076  1  0.602547  0  0.363549  0.446021  0  0.828526  0
H  H11  1  0.88228909  0.39877612  0.47811759  1  0.637184  0  0.363781  0.445795  0  0.828582  0
H  H12  1  0.39860709  0.89890093  0.98131568  1  0.639291  0  0.363255  0.445592  0  0.829253  0
H  H13  1  0.89953668  0.09354254  0.99465183  1  0.632467  0  0.360933  0.44246  0  0.836262  0
C  C14  1  0.38356942  0.39379258  0.39630981  1  1.70184  0  0.279044  0.709976  0  4.167398  0
C  C15  1  0.38450356  0.42313870  0.57626714  1  1.673569  0  0.277858  0.716325  0  4.161725  0
C  C16  1  0.88608390  0.60588835  0.60502523  1  1.715601  0  0.280325  0.709928  0  4.167766  0
C  C17  1  0.88350460  0.57813082  0.42495720  1  1.6728  0  0.276358  0.719948  0  4.154366  0
C  C18  1  0.07198057  0.76494027  0.22314503  1  -0.008092  0  -0.07284  -0.11238  0  3.948074  0
C  C19  1  0.89249186  0.79522354  0.20620289  1  0.107233  0  0.008838  0.13217  0  4.102334  0
C  C20  1  0.71096809  0.77949252  0.23396037  1  0.004255  0  -0.072752  -0.111148  0  3.942661  0
C  C21  1  0.70906485  0.73496136  0.27728303  1  -0.040579  0  -0.072922  -0.112801  0  3.944835  0
C  C22  1  0.88862340  0.70471307  0.29427161  1  0.043874  0  0.008387  0.132785  0  4.099718  0
C  C23  1  0.07015538  0.72043436  0.26648615  1  0.010299  0  -0.072512  -0.112615  0  3.945355  0
C  C24  1  0.89471577  0.84048869  0.16186356  1  -0.272302  0  -0.019692  -0.033302  0  4.088247  0
C  C25  1  0.88665685  0.65970061  0.33883894  1  -0.462277  0  -0.019952  -0.032146  0  4.084475  0
C  C26  1  0.88471449  0.62150930  0.37768346  1  0.210082  0  -0.034  -0.186979  0  3.944282  0
C  C27  1  0.89728081  0.87920377  0.12346573  1  -0.013852  0  -0.032439  -0.185055  0  3.946561  0
C  C28  1  0.89527848  0.83216126  0.83308433  1  0.203406  0  -0.001145  -0.143308  0  3.83973  0
C  C29  1  0.89234242  0.77917947  0.77993196  1  -0.278199  0  -0.003486  0.034066  0  4.229597  0
C  C30  1  0.88959066  0.72052964  0.72136267  1  -0.312864  0  -0.003627  0.035058  0  4.229586  0
C  C31  1  0.88722205  0.66734692  0.66835222  1  0.160019  0  -0.001272  -0.146587  0  3.841708  0
C  C32  1  0.38547684  0.33244807  0.33293803  1  0.213149  0  -0.003966  -0.150337  0  3.84733  0
C  C33  1  0.38896797  0.27929371  0.27991628  1  -0.291252  0  -0.002588  0.037946  0  4.231266  0
C  C34  1  0.39306193  0.22048329  0.22147975  1  -0.320626  0  -0.004406  0.03  0  4.228727  0
C  C35  1  0.39744790  0.16714359  0.16861114  1  0.191074  0  0.003136  -0.136395  0  3.835691  0
C  C36  1  0.55734601  0.25167616  0.78965712  1  0.430565  0  0.118008  0.285074  0  4.045976  0
C  C37  1  0.39448618  0.20423768  0.79473893  1  0.192123  0  -0.009986  -0.091216  0  4.116783  0
C  C38  1  0.22906330  0.20499758  0.75280938  1  0.50252  0  0.118296  0.286244  0  4.047719  0
C  C39  1  0.22262582  0.24931735  0.70958778  1  0.039395  0  -0.092256  -0.274413  0  3.944976  0
C  C40  1  0.38939597  0.29545017  0.70613063  1  0.073043  0  0.01409  0.190987  0  4.120947  0
C  C41  1  0.55888032  0.29621489  0.74658438  1  0.098462  0  -0.09202  -0.273343  0  3.940387  0
C  C42  1  0.39660198  0.15951150  0.83906975  1  -0.453879  0  -0.019745  0.009072  0  4.113224  0
C  C43  1  0.38682159  0.34072107  0.66178152  1  -0.398652  0  -0.019125  -0.032669  0  4.062811  0
C  C44  1  0.38460153  0.37922822  0.62324268  1  0.167375  0  -0.027405  -0.174583  0  3.929398  0
C  C45  1  0.39806967  0.12135711  0.87787703  1  0.232828  0  -0.022183  -0.172194  0  3.90871  0
C  C46  1  0.39781495  0.07771826  0.92498352  1  1.690406  0  0.279942  0.72236  0  4.148256  0
C  C47  1  0.39963946  0.10571775  0.10518331  1  1.708415  0  0.281554  0.706072  0  4.172946  0
C  C48  1  0.89876790  0.92360117  0.07701635  1  1.665464  0  0.278839  0.720911  0  4.154897  0
C  C49  1  0.89659790  0.89321075  0.89675150  1  1.702251  0  0.278465  0.70932  0  4.170724  0
O  O50  1  0.55499958  0.44128855  0.55865928  1  -1.223491  0  -0.225836  -0.578569  0  2.284  0
O  O51  1  0.21263711  0.41782776  0.42056043  1  -1.228692  0  -0.225232  -0.579542  0  2.279038  0
O  O52  1  0.05368267  0.56192068  0.44454983  1  -1.226088  0  -0.230462  -0.589803  0  2.280997  0
O  O53  1  0.21434148  0.43846329  0.55631402  1  -1.226631  0  -0.226964  -0.580655  0  2.282817  0
O  O54  1  0.05601947  0.58121893  0.58043967  1  -1.228258  0  -0.222438  -0.573184  0  2.282604  0
O  O55  1  0.55350748  0.41713775  0.42219356  1  -1.235714  0  -0.225081  -0.579865  0  2.282554  0
O  O56  1  0.38398567  0.54569648  0.50735025  1  -1.399355  0  -0.445295  -0.999836  0  2.198673  0
O  O57  1  0.71553795  0.58313564  0.57949270  1  -1.225787  0  -0.223412  -0.575246  0  2.283134  0
O  O58  1  0.71258470  0.56106186  0.44340866  1  -1.233545  0  -0.230154  -0.588502  0  2.280767  0
O  O59  1  0.88357973  0.45477949  0.49321523  1  -1.435171  0  -0.445976  -1.000437  0  2.199989  0
O  O60  1  0.22992025  0.08262444  0.07923309  1  -1.229108  0  -0.221509  -0.570187  0  2.285642  0
O  O61  1  0.56793304  0.06245318  0.94522498  1  -1.2344  0  -0.227369  -0.58749  0  2.277012  0
O  O62  1  0.72626012  0.91758044  0.92131365  1  -1.231502  0  -0.22617  -0.581547  0  2.282636  0
O  O63  1  0.57048755  0.08172570  0.08115125  1  -1.226121  0  -0.221304  -0.56854  0  2.282303  0
O  O64  1  0.72900485  0.94020702  0.05760121  1  -1.235884  0  -0.227327  -0.583053  0  2.285318  0
O  O65  1  0.22710809  0.05947617  0.94258189  1  -1.237401  0  -0.226851  -0.585647  0  2.277631  0
O  O66  1  0.39843298  0.95479705  0.99358436  1  -1.437269  0  -0.445624  -1.000515  0  2.200682  0
O  O67  1  0.06923115  0.94131623  0.05890505  1  -1.235371  0  -0.227053  -0.582336  0  2.28205  0
O  O68  1  0.06750508  0.91565670  0.92223241  1  -1.226717  0  -0.226115  -0.581413  0  2.280109  0
O  O69  1  0.89893662  0.04589088  0.00634612  1  -1.430078  0  -0.444864  -0.994981  0  2.186515  0
F  F70  1  0.71813811  0.25350233  0.82939598  1  -0.619087  0  -0.088577  -0.128365  0  1.344613  0
F  F71  1  0.07055404  0.15988611  0.75540247  1  -0.619564  0  -0.087648  -0.126868  0  1.343657  0
