# generated using pymatgen
data_Al4H35C64BrO20
_symmetry_space_group_name_H-M   'P 1'
_cell_length_a   6.67686743
_cell_length_b   16.48916429
_cell_length_c   19.87901386
_cell_angle_alpha   70.73016039
_cell_angle_beta   90.35185121
_cell_angle_gamma   90.20015187
_symmetry_Int_Tables_number   1
_chemical_formula_structural   Al4H35C64BrO20
_chemical_formula_sum   'Al4 H35 C64 Br1 O20'
_cell_volume   2065.94104284
_cell_formula_units_Z   1
loop_
 _symmetry_equiv_pos_site_id
 _symmetry_equiv_pos_as_xyz
  1  'x, y, z'
loop_
 _atom_site_type_symbol
 _atom_site_label
 _atom_site_symmetry_multiplicity
 _atom_site_fract_x
 _atom_site_fract_y
 _atom_site_fract_z
 _atom_site_occupancy
 _atom_site_pbe_bader_charge
 _atom_site_pbe_bader_spin_density
 _atom_site_pbe_cm5_charge
 _atom_site_pbe_ddec_charge
 _atom_site_pbe_ddec_spin_density
 _atom_site_pbe_ddec_sum_bond_order
 _atom_site_pbe_magmom
Al  Al0  1  0.12205106  0.50097608  0.49936257  1  2.501777  0  0.399796  1.646422  0  2.581072  0
Al  Al1  1  0.62204948  0.49935455  0.50050725  1  2.50313  0  0.400092  1.645651  0  2.579539  0
Al  Al2  1  0.61662713  0.99964774  0.00022203  1  2.502469  0  0.399158  1.646627  0  2.579939  0
Al  Al3  1  0.11699411  0.00155943  0.99874708  1  2.502381  0  0.398939  1.644495  0  2.583301  0
H  H4  1  0.55110051  0.70591582  0.31570666  1  0.110922  0  0.109128  0.113355  0  1.004935  0
H  H5  1  0.55285490  0.82103153  0.19459737  1  0.122766  0  0.10979  0.114152  0  1.004961  0
H  H6  1  0.19075675  0.79776181  0.18479242  1  0.106963  0  0.108775  0.113241  0  1.005546  0
H  H7  1  0.18884796  0.68237456  0.30587724  1  0.111145  0  0.109882  0.115616  0  1.00337  0
H  H8  1  0.59384694  0.57934290  0.67760644  1  0.093829  0  0.109863  0.118791  0  0.993208  0
H  H9  1  0.15805498  0.69450687  0.59396083  1  0.083254  0  0.106006  0.111198  0  1.002199  0
H  H10  1  0.31578904  0.80344579  0.63960751  1  0.076816  0  0.104854  0.110222  0  0.985884  0
H  H11  1  0.30953157  0.88781099  0.72201105  1  0.068105  0  0.106627  0.111125  0  0.984089  0
H  H12  1  0.15036867  0.92233981  0.82150982  1  0.089248  0  0.110918  0.118041  0  0.99111  0
H  H13  1  0.58280026  0.81147950  0.90311856  1  0.094927  0  0.105472  0.108687  0  1.031292  0
H  H14  1  0.45836528  0.60069322  0.78702649  1  0.071214  0  0.105874  0.11407  0  0.996017  0
H  H15  1  0.09934076  0.19725453  0.08880418  1  0.113367  0  0.095501  0.100922  0  1.055547  0
H  H16  1  0.65059507  0.07690439  0.18144207  1  0.09332  0  0.111371  0.120708  0  0.990661  0
H  H17  1  0.80355008  0.10978660  0.28349707  1  0.069736  0  0.107522  0.112623  0  0.982257  0
H  H18  1  0.79805273  0.18954986  0.36945401  1  0.075422  0  0.106675  0.11155  0  0.984205  0
H  H19  1  0.64341405  0.29902805  0.41285306  1  0.061931  0  0.108762  0.113636  0  0.99568  0
H  H20  1  0.09345821  0.42128203  0.32119305  1  0.103186  0  0.109201  0.11967  0  1.015892  0
H  H21  1  0.05874512  0.28768495  0.67723642  1  0.108796  0  0.109327  0.114554  0  1.000175  0
H  H22  1  0.05551795  0.17275761  0.79812923  1  0.110991  0  0.109481  0.114772  0  0.999741  0
H  H23  1  0.68087600  0.21691299  0.82451659  1  0.066941  0  0.109808  0.114876  0  0.998297  0
H  H24  1  0.68411767  0.33172542  0.70358589  1  0.095725  0  0.109605  0.115039  0  0.999974  0
H  H25  1  0.62695976  0.67209304  0.97337136  1  0.073224  0  0.099763  0.100123  0  1.01735  0
H  H26  1  0.37866961  0.62878745  0.06978282  1  0.068757  0  0.093732  0.087581  0  1.032654  0
H  H27  1  0.02544445  0.59792465  0.04438163  1  0.068607  0  0.093023  0.090292  0  1.039102  0
H  H28  1  0.92626991  0.60960105  0.92028719  1  0.045093  0  0.097318  0.094381  0  1.015224  0
H  H29  1  0.17387877  0.65570898  0.82298567  1  0.067653  0  0.095502  0.090352  0  1.04749  0
H  H30  1  0.66627081  0.35515584  0.20605082  1  0.103866  0  0.091048  0.089294  0  1.068545  0
H  H31  1  0.43738972  0.47645814  0.19081976  1  0.044576  0  0.093006  0.083897  0  1.056858  0
H  H32  1  0.57439573  0.62331097  0.17593239  1  0.013801  0  0.098238  0.092614  0  1.010229  0
H  H33  1  0.94319545  0.64492764  0.17418020  1  0.103195  0  0.094676  0.091397  0  1.041287  0
H  H34  1  0.17147448  0.52218959  0.19138699  1  0.052792  0  0.098611  0.096651  0  1.03208  0
H  H35  1  0.37505142  0.60444981  0.50363797  1  0.617981  0  0.354486  0.431244  0  0.851566  0
H  H36  1  0.87280248  0.39652357  0.49510053  1  0.619712  0  0.355086  0.431666  0  0.852256  0
H  H37  1  0.36373880  0.89885609  0.99040444  1  0.599066  0  0.353324  0.430062  0  0.853812  0
H  H38  1  0.86582047  0.10481929  0.00433321  1  0.621435  0  0.355304  0.432625  0  0.850186  0
C  C39  1  0.36664493  0.41399692  0.42191967  1  1.571573  0  0.271539  0.650144  0  4.081189  0
C  C40  1  0.37422475  0.38327207  0.61220947  1  1.541193  0  0.265357  0.635895  0  4.109137  0
C  C41  1  0.87479327  0.58496916  0.57915363  1  1.563348  0  0.270894  0.652494  0  4.078308  0
C  C42  1  0.86896127  0.61827012  0.38794907  1  1.572375  0  0.265159  0.634529  0  4.1064  0
C  C43  1  0.68978896  0.72652587  0.28632071  1  -0.051185  0  -0.079213  -0.095312  0  3.973198  0
C  C44  1  0.69064677  0.78976021  0.21957438  1  -0.024569  0  -0.080034  -0.095352  0  3.968576  0
C  C45  1  0.87162315  0.81487533  0.18299205  1  -0.061997  0  -0.010825  -0.037021  0  3.962568  0
C  C46  1  0.05216872  0.77709864  0.21427672  1  -0.051277  0  -0.079819  -0.097577  0  3.976943  0
C  C47  1  0.05114717  0.71377809  0.28098616  1  -0.029135  0  -0.079879  -0.096609  0  3.971563  0
C  C48  1  0.86978390  0.68781115  0.31707475  1  -0.056148  0  -0.008597  -0.031326  0  3.959006  0
C  C49  1  0.71538126  0.62352699  0.67808255  1  -0.022538  0  -0.081102  -0.147126  0  3.925933  0
C  C50  1  0.87433492  0.63374085  0.63036101  1  -0.04762  0  -0.018906  -0.041854  0  4.027661  0
C  C51  1  0.03397909  0.68880494  0.63065290  1  -0.021671  0  -0.083482  -0.14994  0  3.943167  0
C  C52  1  0.03376769  0.73768215  0.67653523  1  -0.050255  0  -0.008968  0.07284  0  4.050255  0
C  C53  1  0.87219292  0.72734063  0.72566777  1  -0.02663  0  0.002041  -0.003266  0  3.921202  0
C  C54  1  0.71482106  0.66751973  0.72775313  1  0.02211  0  -0.008953  0.079639  0  4.060373  0
C  C55  1  0.19153394  0.79693178  0.67647912  1  -0.054007  0  -0.089567  -0.13311  0  4.014572  0
C  C56  1  0.18792388  0.84344764  0.72191187  1  -0.0565  0  -0.086047  -0.125904  0  4.00329  0
C  C57  1  0.02772574  0.83436024  0.77164162  1  0.023974  0  -0.006459  0.074821  0  4.040011  0
C  C58  1  0.86887716  0.77499087  0.77353613  1  0.015261  0  0.004212  0.000495  0  3.92292  0
C  C59  1  0.71105076  0.76211634  0.82464684  1  0.0144  0  -0.001892  0.033291  0  3.985573  0
C  C60  1  0.56449482  0.69462822  0.83117855  1  -0.044058  0  -0.002544  0.02692  0  3.982009  0
C  C61  1  0.56730904  0.65169373  0.78243714  1  -0.044927  0  -0.086873  -0.181463  0  3.960433  0
C  C62  1  0.02646689  0.87968823  0.82008708  1  -0.038622  0  -0.076388  -0.135613  0  3.92743  0
C  C63  1  0.86485474  0.87150247  0.86615719  1  -0.033788  0  -0.016907  -0.040499  0  4.022273  0
C  C64  1  0.70700787  0.81521664  0.86707988  1  -0.038765  0  -0.081779  -0.143172  0  3.948747  0
C  C65  1  0.21768794  0.18961019  0.12823210  1  -0.06122  0  -0.087265  -0.138747  0  3.947328  0
C  C66  1  0.37253360  0.13152573  0.13166958  1  -0.038281  0  -0.014906  -0.031999  0  4.008418  0
C  C67  1  0.52880025  0.12101895  0.18080937  1  -0.003939  0  -0.078356  -0.144074  0  3.936553  0
C  C68  1  0.52752581  0.16578250  0.22976230  1  -0.01719  0  -0.007476  0.073874  0  4.041773  0
C  C69  1  0.36966701  0.22558243  0.22653885  1  0.022105  0  0.004358  0.008211  0  3.917092  0
C  C70  1  0.21675744  0.23976054  0.17301527  1  0.059227  0  -0.013069  0.032269  0  4.038907  0
C  C71  1  0.68216207  0.15431839  0.28246548  1  -0.059782  0  -0.086854  -0.126991  0  4.005228  0
C  C72  1  0.67896997  0.19817118  0.32987675  1  -0.046079  0  -0.087378  -0.128247  0  4.005896  0
C  C73  1  0.52205294  0.25795166  0.32818079  1  0.028425  0  -0.006576  0.073418  0  4.044366  0
C  C74  1  0.36718657  0.27191673  0.27536843  1  -0.048189  0  0.001255  -0.003914  0  3.930459  0
C  C75  1  0.21480277  0.33451987  0.27023496  1  -0.00746  0  -0.001396  0.042181  0  3.988534  0
C  C76  1  0.07196171  0.35543748  0.21154893  1  0.035126  0  -0.006336  -0.020769  0  3.967559  0
C  C77  1  0.07464760  0.30762889  0.16632583  1  -0.095735  0  -0.010318  0.015588  0  3.897659  0
C  C78  1  0.52186789  0.30617804  0.37446942  1  -0.00269  0  -0.077465  -0.136189  0  3.935476  0
C  C79  1  0.36631285  0.36343852  0.37198531  1  -0.04093  0  -0.016729  -0.03965  0  4.016797  0
C  C80  1  0.21223722  0.37616071  0.32151532  1  -0.008136  0  -0.079857  -0.143845  0  3.933219  0
C  C81  1  0.19355605  0.27151596  0.71012576  1  -0.004698  0  -0.080973  -0.094527  0  3.975815  0
C  C82  1  0.19174312  0.20827113  0.77680176  1  -0.093468  0  -0.080362  -0.094727  0  3.972068  0
C  C83  1  0.36797000  0.18876654  0.81778283  1  0.033525  0  -0.01134  -0.034874  0  3.966632  0
C  C84  1  0.54601273  0.23298852  0.79162713  1  -0.021975  0  -0.079854  -0.093765  0  3.973183  0
C  C85  1  0.54785189  0.29623300  0.72490345  1  -0.032963  0  -0.081434  -0.095332  0  3.973519  0
C  C86  1  0.37171012  0.31563645  0.68389978  1  -0.049408  0  -0.012222  -0.037928  0  3.970919  0
C  C87  1  0.36512481  0.12052010  0.88917547  1  1.557956  0  0.26643  0.638252  0  4.106094  0
C  C88  1  0.37177720  0.08200305  0.08099261  1  1.570347  0  0.272002  0.651898  0  4.077694  0
C  C89  1  0.87126135  0.88178555  0.11072378  1  1.574783  0  0.26541  0.634778  0  4.111822  0
C  C90  1  0.86334703  0.92006146  0.91738680  1  1.566197  0  0.27249  0.654525  0  4.078774  0
C  C91  1  0.41768030  0.66938258  0.89021714  1  0.04425  0  -0.010726  0.066255  0  3.991215  0
C  C92  1  0.47246430  0.66065542  0.96082579  1  -0.053328  0  -0.093412  -0.133313  0  3.977744  0
C  C93  1  0.33209257  0.63543672  0.01555769  1  -0.083265  0  -0.098664  -0.084303  0  4.037937  0
C  C94  1  0.13460275  0.61760577  0.00142499  1  -0.097728  0  -0.098121  -0.089829  0  4.02008  0
C  C95  1  0.07943428  0.62404292  0.93199497  1  0.003831  0  -0.094713  -0.080167  0  4.02647  0
C  C96  1  0.21932274  0.64957542  0.87719044  1  -0.093679  0  -0.092398  -0.126762  0  3.970669  0
C  C97  1  0.93473072  0.42929559  0.20097727  1  -0.070605  0  -0.015028  0.069312  0  4.01821  0
C  C98  1  0.72688426  0.41841128  0.19983057  1  -0.060949  0  -0.095946  -0.128644  0  3.992843  0
C  C99  1  0.59813263  0.48747721  0.19089244  1  0.017253  0  -0.095368  -0.076767  0  4.018175  0
C  C100  1  0.67442998  0.56917436  0.18215636  1  -0.013023  0  -0.093322  -0.084026  0  4.015879  0
C  C101  1  0.88147871  0.58134165  0.18176951  1  -0.097475  0  -0.095626  -0.082216  0  4.027335  0
C  C102  1  0.01016329  0.51190154  0.19160486  1  -0.055135  0  -0.089037  -0.128225  0  3.970683  0
Br  Br103  1  0.89711809  0.33571903  0.08599509  1  -0.061287  0  0.050419  -0.03971  0  1.460687  0
O  O104  1  0.54533792  0.41119995  0.58686803  1  -1.252201  0  -0.237363  -0.593533  0  2.361506  0
O  O105  1  0.19756114  0.43904601  0.43681209  1  -1.260928  0  -0.233195  -0.588241  0  2.339312  0
O  O106  1  0.03925838  0.59337432  0.41624188  1  -1.2578  0  -0.236967  -0.593399  0  2.360809  0
O  O107  1  0.20568844  0.40723433  0.58172767  1  -1.260736  0  -0.238574  -0.598612  0  2.347711  0
O  O108  1  0.04453390  0.56648703  0.55901866  1  -1.257893  0  -0.236152  -0.595412  0  2.328359  0
O  O109  1  0.53590154  0.42851788  0.44574381  1  -1.256769  0  -0.233379  -0.591815  0  2.328299  0
O  O110  1  0.37299966  0.55200095  0.49178047  1  -1.421576  0  -0.448392  -0.991559  0  2.200428  0
O  O111  1  0.70500866  0.56588280  0.55887983  1  -1.25469  0  -0.233974  -0.594648  0  2.342627  0
O  O112  1  0.69904512  0.58991902  0.41444870  1  -1.257039  0  -0.236688  -0.591758  0  2.33886  0
O  O113  1  0.87232062  0.44857267  0.50754857  1  -1.423416  0  -0.448305  -0.990901  0  2.199855  0
O  O114  1  0.20275599  0.06885459  0.05629797  1  -1.259842  0  -0.233606  -0.589205  0  2.329873  0
O  O115  1  0.53334437  0.09627056  0.91978705  1  -1.257034  0  -0.239264  -0.600578  0  2.346137  0
O  O116  1  0.69351304  0.93803145  0.93777629  1  -1.259724  0  -0.235355  -0.595054  0  2.332  0
O  O117  1  0.54073041  0.05721664  0.06580709  1  -1.260584  0  -0.23304  -0.59045  0  2.342681  0
O  O118  1  0.70085913  0.90506845  0.08186247  1  -1.255135  0  -0.237561  -0.593272  0  2.357176  0
O  O119  1  0.19385937  0.09217017  0.91404089  1  -1.254195  0  -0.237435  -0.595328  0  2.361202  0
O  O120  1  0.36587270  0.94873669  0.00593931  1  -1.402315  0  -0.448443  -0.989169  0  2.193694  0
O  O121  1  0.04085881  0.90946219  0.08365155  1  -1.261393  0  -0.237116  -0.59206  0  2.346243  0
O  O122  1  0.03308107  0.93857580  0.93806363  1  -1.265438  0  -0.23333  -0.5935  0  2.345966  0
O  O123  1  0.86633936  0.05185031  0.99328215  1  -1.424358  0  -0.448213  -0.990673  0  2.200855  0
