# generated using pymatgen
data_CuH13C11N5O4
_symmetry_space_group_name_H-M   'P 1'
_cell_length_a   7.81169905
_cell_length_b   8.18826625
_cell_length_c   11.69404384
_cell_angle_alpha   101.07626843
_cell_angle_beta   96.29329878
_cell_angle_gamma   103.92851557
_symmetry_Int_Tables_number   1
_chemical_formula_structural   CuH13C11N5O4
_chemical_formula_sum   'Cu2 H26 C22 N10 O8'
_cell_volume   702.88027764
_cell_formula_units_Z   2
loop_
 _symmetry_equiv_pos_site_id
 _symmetry_equiv_pos_as_xyz
  1  'x, y, z'
loop_
 _atom_site_type_symbol
 _atom_site_label
 _atom_site_symmetry_multiplicity
 _atom_site_fract_x
 _atom_site_fract_y
 _atom_site_fract_z
 _atom_site_occupancy
 _atom_site_hle17_ddec_charge
 _atom_site_hle17_ddec_spin_density
 _atom_site_hle17_ddec_sum_bond_order
 _atom_site_hle17_magmom
 _atom_site_hse06_10hf_ddec_charge
 _atom_site_hse06_10hf_ddec_spin_density
 _atom_site_hse06_10hf_ddec_sum_bond_order
 _atom_site_hse06_10hf_magmom
 _atom_site_hse06_ddec_charge
 _atom_site_hse06_ddec_spin_density
 _atom_site_hse06_ddec_sum_bond_order
 _atom_site_hse06_magmom
 _atom_site_pbe_cm5_charge
 _atom_site_pbe_ddec_charge
 _atom_site_pbe_ddec_spin_density
 _atom_site_pbe_ddec_sum_bond_order
 _atom_site_pbe_magmom
Cu  Cu0  1  0.02275361  0.04982148  0.39907204  1  0.856573  -0.665481  1.894334  -0.485  0.840066  -0.800364  2.31231  -0.639  0.965276  -0.891625  2.189117  -0.742  0.678892  0.77009  -0.691409  2.373937  -0.541
Cu  Cu1  1  0.97723505  0.95019269  0.60092306  1  0.856916  0.665488  1.893867  0.485  0.840505  0.800369  2.311749  0.639  0.965411  0.891619  2.188999  0.742  0.67901  0.770506  0.691396  2.373427  0.541
H  H2  1  0.81009265  0.23171794  0.83769872  1  0.082057  8.2e-05  0.946416  0.0  0.090836  4.4e-05  1.015207  0.0  0.094419  1.2e-05  1.010105  0.0  0.134605  0.088167  7.4e-05  1.018865  0.0
H  H3  1  0.18992839  0.76828354  0.16229555  1  0.082018  -7.9e-05  0.946443  0.0  0.090825  -4.5e-05  1.0152  0.0  0.094401  -1.2e-05  1.010109  0.0  0.134651  0.088158  -7.4e-05  1.018863  0.0
H  H4  1  0.08987075  0.34300673  0.81034333  1  0.12044  -1.7e-05  0.958212  0.0  0.140577  2e-06  1.018768  0.0  0.142946  -2.1e-05  1.017482  0.0  0.112672  0.138791  2.4e-05  1.019839  0.0
H  H5  1  0.91013862  0.65700146  0.18965690  1  0.120504  1e-05  0.958121  0.0  0.140615  -2e-06  1.018717  0.0  0.142985  2.1e-05  1.01743  0.0  0.112701  0.13883  -2.3e-05  1.019786  0.0
H  H6  1  0.27077737  0.30870409  0.90219636  1  0.117798  4e-06  0.927134  0.0  0.136896  1.1e-05  0.989731  0.0  0.138694  3e-06  0.987966  0.0  0.112788  0.135511  1.7e-05  0.991078  0.0
H  H7  1  0.72923440  0.69130302  0.09780220  1  0.117836  -1.4e-05  0.927049  0.0  0.136897  -1.1e-05  0.989693  0.0  0.138697  -4e-06  0.987925  0.0  0.112783  0.135513  -1.7e-05  0.99104  0.0
H  H8  1  0.20486252  0.50249648  0.94262140  1  0.102696  -8e-06  0.942256  0.0  0.12063  1e-06  1.008251  0.0  0.121133  2e-06  1.008031  0.0  0.103706  0.120125  -0.0  1.008545  0.0
H  H9  1  0.79515317  0.49751727  0.05737664  1  0.102692  -0.0  0.942227  0.0  0.120656  -1e-06  1.008185  0.0  0.121162  -2e-06  1.007962  0.0  0.103762  0.120151  -0.0  1.008479  0.0
H  H10  1  0.52351550  0.97039570  0.09555692  1  0.319723  2e-06  0.935001  0.0  0.293133  2e-06  1.01479  0.0  0.302506  1e-06  1.006563  0.0  0.292912  0.286522  2e-06  1.020522  0.0
H  H11  1  0.47648849  0.02958415  0.90442116  1  0.319765  -2e-06  0.935033  0.0  0.293141  -2e-06  1.014861  0.0  0.302509  -2e-06  1.006639  0.0  0.292923  0.286532  -2e-06  1.020592  0.0
H  H12  1  0.68771204  0.98033800  0.21657468  1  0.337032  -0.000123  0.931807  0.0  0.319216  -0.000117  0.993778  0.0  0.328344  -3.8e-05  0.986289  0.0  0.299371  0.312771  -0.000177  0.999165  0.0
H  H13  1  0.31229075  0.01964304  0.78341373  1  0.337219  0.000123  0.931957  0.0  0.319385  0.000117  0.993923  0.0  0.328522  3.8e-05  0.986431  0.0  0.299502  0.312933  0.000177  0.99931  0.0
H  H14  1  0.34902320  0.22656030  0.29328020  1  0.071414  3e-06  0.941209  0.0  0.082155  7e-06  1.002394  0.0  0.085437  2.1e-05  0.998399  0.0  0.121489  0.07968  -1e-05  1.005447  0.0
H  H15  1  0.65099065  0.77344444  0.70672078  1  0.071411  -1e-06  0.941265  0.0  0.082196  -7e-06  1.002389  0.0  0.08548  -2.1e-05  0.998391  0.0  0.12152  0.079719  1e-05  1.005445  0.0
H  H16  1  0.14533639  0.53541326  0.28600192  1  0.098114  0.001353  0.942233  0.002  0.107899  0.000917  1.008883  0.001  0.108102  0.000599  1.010732  0.001  0.094262  0.107592  0.001066  1.007565  0.001
H  H17  1  0.85465056  0.46458686  0.71400658  1  0.098112  -0.001342  0.942251  -0.002  0.107902  -0.000917  1.008908  -0.001  0.108102  -0.000599  1.010759  -0.001  0.094237  0.107593  -0.001066  1.007589  -0.001
H  H18  1  0.10978206  0.46908225  0.41995858  1  0.130859  -0.001421  0.956048  -0.002  0.14182  -0.000923  1.015236  -0.001  0.144482  -0.000555  1.014586  -0.001  0.103473  0.139801  -0.001142  1.015851  -0.001
H  H19  1  0.89018647  0.53092278  0.58005082  1  0.130756  0.001433  0.956291  0.002  0.141738  0.000923  1.01544  0.001  0.144399  0.000555  1.014792  0.001  0.103419  0.139718  0.001142  1.016054  0.001
H  H20  1  0.40543547  0.68257053  0.52065674  1  0.072787  0.000282  0.926133  0.0  0.091081  0.000232  0.983347  0.0  0.092261  0.000132  0.98244  0.0  0.09372  0.09031  0.000297  0.98398  0.0
H  H21  1  0.59455041  0.31743077  0.47935355  1  0.072831  -0.000282  0.926155  0.0  0.091243  -0.000232  0.983279  0.0  0.092427  -0.000132  0.98236  0.0  0.093751  0.090473  -0.000297  0.983913  0.0
H  H22  1  0.42556032  0.51245378  0.40968705  1  0.074861  -0.000125  0.941038  0.0  0.090612  -0.000112  1.004407  0.0  0.090037  -5.9e-05  1.005853  0.0  0.097082  0.091251  -0.000152  1.003202  0.0
H  H23  1  0.57440735  0.48752839  0.59033293  1  0.074854  0.000125  0.940977  0.0  0.090613  0.000112  1.004412  0.0  0.09004  5.9e-05  1.005851  0.0  0.09702  0.091252  0.000152  1.003205  0.0
H  H24  1  0.46559918  0.70055479  0.26727702  1  0.108331  0.000659  0.913748  0.001  0.125059  0.000456  0.967906  0.0  0.126525  0.00031  0.967688  0.0  0.103862  0.123862  0.000511  0.968111  0.0
H  H25  1  0.53439740  0.29940298  0.73273005  1  0.10837  -0.000658  0.913624  -0.001  0.125054  -0.000456  0.967808  0.0  0.126549  -0.00031  0.967618  0.0  0.10383  0.123854  -0.000511  0.968014  0.0
H  H26  1  0.41676517  0.86869185  0.36556933  1  0.118492  0.000224  0.920771  0.0  0.134786  0.000159  0.974632  0.0  0.136729  0.000133  0.974544  0.0  0.107217  0.133499  0.000154  0.97451  0.0
H  H27  1  0.58322820  0.13128085  0.63441894  1  0.118459  -0.000226  0.92091  0.0  0.134718  -0.00016  0.974768  0.0  0.136692  -0.000134  0.974702  0.0  0.107223  0.13343  -0.000154  0.974642  0.0
C  C28  1  0.85200804  0.21399658  0.92545371  1  0.249357  3.6e-05  3.714809  0.0  0.182229  5.3e-05  3.998446  0.0  0.203278  1.4e-05  4.004176  0.0  0.180387  0.168559  8.3e-05  3.994114  0.0
C  C29  1  0.14799978  0.78601022  0.07454536  1  0.249436  -2.7e-05  3.714607  0.0  0.182237  -5.4e-05  3.998316  0.0  0.203292  -1.2e-05  4.004035  0.0  0.180309  0.168562  -8.3e-05  3.993991  0.0
C  C30  1  0.15648179  0.36422731  0.90120459  1  -0.153729  6.9e-05  3.584183  0.0  -0.256841  2.4e-05  3.82893  0.0  -0.252596  -5e-06  3.834824  0.0  -0.127524  -0.259457  4.8e-05  3.825059  0.0
C  C31  1  0.84353468  0.63578397  0.09879489  1  -0.153726  -2.7e-05  3.583948  0.0  -0.256813  -2.5e-05  3.828676  0.0  -0.252566  6e-06  3.834559  0.0  -0.127546  -0.259431  -4.8e-05  3.824808  0.0
C  C32  1  0.08756225  0.24651691  0.07476270  1  0.249576  -5.9e-05  3.866497  0.0  0.214702  0.000123  4.139462  0.0  0.227734  0.000111  4.158273  0.0  0.19876  0.206367  0.000121  4.126394  0.0
C  C33  1  0.91245339  0.75349683  0.92523961  1  0.249447  5.7e-05  3.866809  0.0  0.214621  -0.000123  4.139665  0.0  0.227648  -0.000109  4.158494  0.0  0.198745  0.206285  -0.000121  4.126589  0.0
C  C34  1  0.96673612  0.15484092  0.13684325  1  -0.059486  0.000134  3.829205  0.0  -0.052741  0.000152  4.084897  0.0  -0.059442  0.000128  4.111157  0.0  0.067721  -0.048756  0.000159  4.068072  0.0
C  C35  1  0.03327197  0.84517349  0.86315343  1  -0.059547  -0.000149  3.829382  0.0  -0.052773  -0.000152  4.085003  0.0  -0.059486  -0.000129  4.111272  0.0  0.067641  -0.048774  -0.000159  4.068153  0.0
C  C36  1  0.78225828  0.09861080  0.08822332  1  0.457952  -4.1e-05  3.839327  0.0  0.421268  -2.7e-05  4.113487  0.0  0.444002  -2.2e-05  4.123808  0.0  0.243046  0.406138  -3.1e-05  4.106135  0.0
C  C37  1  0.21776406  0.90139078  0.91177193  1  0.45807  5.5e-05  3.839243  0.0  0.421378  2.8e-05  4.113345  0.0  0.444123  2.2e-05  4.123659  0.0  0.243214  0.406242  3.1e-05  4.10599  0.0
C  C38  1  0.23654698  0.21855895  0.22694400  1  0.2428  0.000169  3.730481  0.0  0.200495  0.000331  4.01892  0.0  0.214459  0.000311  4.032179  0.0  0.12814  0.191325  0.000321  4.010651  0.0
C  C39  1  0.76345950  0.78145408  0.77305578  1  0.242762  -0.000187  3.730498  0.0  0.200426  -0.000332  4.01894  0.0  0.214393  -0.000311  4.032175  0.0  0.128064  0.191258  -0.000321  4.010675  0.0
C  C40  1  0.10236871  0.72960739  0.42364982  1  0.693911  -0.000508  3.801648  -0.001  0.662425  -8.4e-05  4.099355  0.0  0.70329  -9.1e-05  4.095327  0.0  0.21711  0.6343  -8.4e-05  4.103448  0.0
C  C41  1  0.89762256  0.27039432  0.57634982  1  0.694417  0.000526  3.801782  0.001  0.662739  8.3e-05  4.099735  0.0  0.703603  8.8e-05  4.0957  0.0  0.217264  0.634617  8.4e-05  4.103835  0.0
C  C42  1  0.17457001  0.57648442  0.38283170  1  -0.265658  -0.000813  3.639098  -0.001  -0.304565  -0.000593  3.886232  -0.001  -0.313802  -0.000317  3.895431  0.0  -0.166516  -0.296778  -0.0008  3.878793  -0.001
C  C43  1  0.82541639  0.42351946  0.61717811  1  -0.265596  0.000757  3.639074  0.001  -0.304426  0.000591  3.886293  0.001  -0.313657  0.000319  3.895481  0.0  -0.166484  -0.29664  0.000802  3.878851  0.001
C  C44  1  0.37734939  0.62884136  0.42482788  1  -0.05421  -0.001648  3.676299  -0.002  -0.096723  -0.000975  3.938557  -0.001  -0.094726  -0.000649  3.951558  -0.001  -0.160106  -0.098247  -0.001121  3.929122  -0.002
C  C45  1  0.62263175  0.37114944  0.57518576  1  -0.054497  0.001657  3.676276  0.002  -0.097231  0.000976  3.93875  0.001  -0.095191  0.000649  3.951783  0.001  -0.160213  -0.09875  0.001123  3.929313  0.002
C  C46  1  0.47682198  0.75909251  0.36167147  1  -0.259413  0.000568  3.662238  0.001  -0.297761  0.000271  3.911499  0.0  -0.305804  0.000234  3.919651  0.0  -0.160984  -0.290933  0.000247  3.9048  0.0
C  C47  1  0.52316805  0.24087742  0.63833156  1  -0.259356  -0.000566  3.661806  -0.001  -0.297432  -0.000272  3.911041  0.0  -0.305653  -0.000234  3.919417  0.0  -0.160832  -0.290604  -0.000246  3.90434  0.0
C  C48  1  0.67253042  0.83875219  0.41259629  1  0.704251  -0.001196  3.799526  -0.001  0.668891  -0.000485  4.097308  -0.001  0.709458  -0.000469  4.092947  -0.001  0.223911  0.640812  -0.000452  4.101775  -0.001
C  C49  1  0.32746245  0.16123823  0.58740455  1  0.704609  0.00119  3.798998  0.001  0.668949  0.000485  4.097155  0.001  0.709565  0.000468  4.0928  0.001  0.224004  0.640868  0.000452  4.10162  0.001
N  N50  1  0.73201310  0.13234439  0.98057473  1  -0.454243  2.5e-05  3.070135  0.0  -0.405293  3.6e-05  3.343058  0.0  -0.42516  2.6e-05  3.351363  0.0  -0.325373  -0.392049  4.6e-05  3.337136  0.0
N  N51  1  0.26800800  0.86765709  0.01941527  1  -0.454358  -3.7e-05  3.06978  0.0  -0.40538  -3.4e-05  3.342697  0.0  -0.425252  -2.8e-05  3.350996  0.0  -0.325516  -0.392132  -4.6e-05  3.336779  0.0
N  N52  1  0.02924722  0.27660319  0.96751384  1  -0.097094  -3.8e-05  3.543629  0.0  -0.000879  -2e-06  3.770532  0.0  -0.019339  3e-06  3.794519  0.0  -0.23199  0.011127  -5e-06  3.754076  0.0
N  N53  1  0.97077261  0.72340582  0.03248989  1  -0.097082  2.6e-05  3.54373  0.0  -0.000852  2e-06  3.77057  0.0  -0.019308  -3e-06  3.794555  0.0  -0.231917  0.011153  5e-06  3.754116  0.0
N  N54  1  0.65429749  0.01360390  0.13837102  1  -0.620981  -0.000464  3.114436  -0.001  -0.576879  -0.000192  3.343951  0.0  -0.598908  -8.6e-05  3.338246  0.0  -0.551541  -0.561653  -0.000272  3.347542  0.0
N  N55  1  0.34571478  0.98638547  0.86161411  1  -0.621199  0.000468  3.114751  0.001  -0.577034  0.000193  3.344255  0.0  -0.59907  8.7e-05  3.33854  0.0  -0.551682  -0.561805  0.000272  3.347851  0.0
N  N56  1  0.06769708  0.13787789  0.23640439  1  -0.422284  0.001139  3.13836  0.0  -0.384604  0.000783  3.437026  0.0  -0.412259  0.000824  3.452761  0.0  -0.371858  -0.368546  0.000673  3.426973  0.0
N  N57  1  0.93230970  0.86213009  0.76359389  1  -0.422247  -0.001128  3.138582  0.0  -0.384637  -0.000783  3.43732  0.0  -0.412226  -0.000825  3.453041  0.0  -0.371803  -0.368587  -0.000676  3.427271  0.0
N  N58  1  0.25742041  0.28854437  0.13120655  1  -0.470947  0.00024  2.930179  0.0  -0.44134  0.000152  3.204225  0.0  -0.454368  0.0001  3.211758  0.0  -0.373608  -0.432469  0.000184  3.198687  0.0
N  N59  1  0.74258522  0.71146480  0.86879864  1  -0.470923  -0.000233  2.930026  0.0  -0.441332  -0.000152  3.204052  0.0  -0.454361  -0.0001  3.21159  0.0  -0.373604  -0.432463  -0.000184  3.198514  0.0
O  O60  1  0.09744735  0.83166060  0.35380985  1  -0.60427  -0.072072  2.116862  -0.096  -0.583023  -0.049936  2.40288  -0.073  -0.633486  -0.039155  2.396245  -0.06  -0.316764  -0.552033  -0.052255  2.407323  -0.073
O  O61  1  0.90256875  0.16836840  0.64619281  1  -0.604484  0.072049  2.117169  0.096  -0.583207  0.049925  2.403309  0.073  -0.6336  0.039149  2.396646  0.06  -0.316882  -0.552209  0.052246  2.407762  0.073
O  O62  1  0.06040292  0.74923541  0.52650971  1  -0.567534  0.076407  2.086798  0.102  -0.544631  0.05169  2.358696  0.076  -0.593417  0.040391  2.350297  0.062  -0.309459  -0.515012  0.054115  2.364408  0.076
O  O63  1  0.93955160  0.25076344  0.47348750  1  -0.567629  -0.0764  2.086985  -0.102  -0.544686  -0.051684  2.359029  -0.076  -0.593524  -0.040382  2.35059  -0.062  -0.309395  -0.515073  -0.054105  2.364739  -0.076
O  O64  1  0.76766139  0.91421150  0.34569162  1  -0.609617  -0.063301  2.151774  -0.085  -0.576937  -0.046673  2.426671  -0.068  -0.625429  -0.037359  2.417917  -0.058  -0.315409  -0.547269  -0.047676  2.432773  -0.067
O  O65  1  0.23232851  0.08576347  0.65430009  1  -0.609789  0.063306  2.151652  0.085  -0.577071  0.046675  2.426719  0.068  -0.625522  0.037361  2.417965  0.058  -0.315546  -0.547388  0.047681  2.432829  0.067
O  O66  1  0.72694726  0.83042730  0.51692790  1  -0.569745  0.067918  2.085263  0.091  -0.542727  0.047865  2.361011  0.07  -0.590445  0.037857  2.352785  0.058  -0.304048  -0.513546  0.049341  2.366679  0.069
O  O67  1  0.27303692  0.16959796  0.48308457  1  -0.56986  -0.06791  2.085176  -0.091  -0.542796  -0.047865  2.36118  -0.07  -0.590512  -0.037853  2.352818  -0.058  -0.304096  -0.513641  -0.049339  2.366881  -0.069
