# generated using pymatgen
data_AlH9C24N3(O2F)3
_symmetry_space_group_name_H-M   'P 1'
_cell_length_a   3.94670019
_cell_length_b   15.82301506
_cell_length_c   15.81613486
_cell_angle_alpha   60.16297219
_cell_angle_beta   86.15535237
_cell_angle_gamma   86.62988251
_symmetry_Int_Tables_number   1
_chemical_formula_structural   AlH9C24N3(O2F)3
_chemical_formula_sum   'Al1 H9 C24 N3 O6 F3'
_cell_volume   854.47485131
_cell_formula_units_Z   1
loop_
 _symmetry_equiv_pos_site_id
 _symmetry_equiv_pos_as_xyz
  1  'x, y, z'
loop_
 _atom_site_type_symbol
 _atom_site_label
 _atom_site_symmetry_multiplicity
 _atom_site_fract_x
 _atom_site_fract_y
 _atom_site_fract_z
 _atom_site_occupancy
 _atom_site_pbe_bader_charge
 _atom_site_pbe_bader_spin_density
 _atom_site_pbe_cm5_charge
 _atom_site_pbe_ddec_charge
 _atom_site_pbe_ddec_spin_density
 _atom_site_pbe_ddec_sum_bond_order
 _atom_site_pbe_magmom
Al  Al0  1  0.96299505  0.50080066  0.50029295  1  2.503364  0  0.426379  1.589912  0  2.582668  0
H  H1  1  0.24128340  0.75925151  0.51373094  1  0.105784  0  0.116732  0.124089  0  0.969508  0
H  H2  1  0.26322228  0.85562025  0.60001867  1  0.080836  0  0.108065  0.113118  0  1.001964  0
H  H3  1  0.56400920  0.59394808  0.85985165  1  0.142996  0  0.115967  0.140542  0  0.992113  0
H  H4  1  0.56518670  0.04632791  0.58888397  1  0.102095  0  0.115752  0.140002  0  0.993003  0
H  H5  1  0.39903700  0.23400685  0.76495627  1  0.100111  0  0.117209  0.123893  0  0.965491  0
H  H6  1  0.41940127  0.05132755  0.85903843  1  0.085648  0  0.108114  0.111918  0  1.003789  0
H  H7  1  0.69088465  0.85505774  0.04359428  1  0.111101  0  0.115472  0.140994  0  0.990787  0
H  H8  1  0.26639950  0.51812729  0.23553500  1  0.070022  0  0.117354  0.126196  0  0.971647  0
H  H9  1  0.28044069  0.60386943  0.05266032  1  0.107178  0  0.108178  0.114295  0  1.002062  0
C  C10  1  0.48278655  0.57974318  0.35041287  1  1.568733  0  0.278355  0.671133  0  4.058016  0
C  C11  1  0.42595837  0.57190787  0.57989745  1  1.619164  0  0.279425  0.673101  0  4.060018  0
C  C12  1  0.48027997  0.35080409  0.57160270  1  1.670244  0  0.281632  0.676326  0  4.056968  0
C  C13  1  0.48370025  0.93004029  0.78478023  1  1.109259  0  0.257917  0.382823  0  4.009469  0
C  C14  1  0.43727794  0.78632225  0.78701827  1  1.080383  0  0.25734  0.381711  0  4.013679  0
C  C15  1  0.48032771  0.78746216  0.92906816  1  1.07234  0  0.257587  0.382073  0  4.012672  0
C  C16  1  0.31550010  0.72453016  0.58921313  1  -0.018814  0  -0.071832  -0.06406  0  3.963464  0
C  C17  1  0.32614761  0.77786514  0.63707833  1  0.054276  0  -0.084065  -0.120182  0  3.975594  0
C  C18  1  0.41796620  0.73125825  0.73475115  1  -0.093804  0  -0.001262  0.033389  0  3.987672  0
C  C19  1  0.49787418  0.63108958  0.78370173  1  0.042136  0  -0.089001  -0.231156  0  3.964652  0
C  C20  1  0.49858643  0.58034268  0.73332933  1  0.51335  0  0.109714  0.283831  0  4.039121  0
C  C21  1  0.40934998  0.62502292  0.63571853  1  -0.057177  0  -0.010158  -0.139596  0  3.94811  0
C  C22  1  0.53630138  0.08668813  0.62820432  1  0.063149  0  -0.089048  -0.229762  0  3.963979  0
C  C23  1  0.53977355  0.18756048  0.57816295  1  0.398621  0  0.107745  0.277988  0  4.041274  0
C  C24  1  0.48877990  0.24216843  0.62567918  1  -0.087766  0  -0.00783  -0.130853  0  3.945111  0
C  C25  1  0.44145302  0.19180520  0.72762519  1  -0.084959  0  -0.073134  -0.06797  0  3.968476  0
C  C26  1  0.45106886  0.09062403  0.77981291  1  0.095338  0  -0.083482  -0.116464  0  3.975663  0
C  C27  1  0.49354982  0.03745567  0.73022225  1  0.063167  0  -0.00236  0.031015  0  3.984694  0
C  C28  1  0.60318747  0.78060910  0.08483238  1  -0.031755  0  -0.089257  -0.235109  0  3.961041  0
C  C29  1  0.60796456  0.73006773  0.18580689  1  0.559205  0  0.1119  0.289101  0  4.030147  0
C  C30  1  0.48732061  0.63522934  0.24197389  1  0.046505  0  -0.01067  -0.143955  0  3.943541  0
C  C31  1  0.36510650  0.59120896  0.19209058  1  0.063689  0  -0.073635  -0.064351  0  3.96823  0
C  C32  1  0.37151354  0.63871890  0.09096101  1  -0.081887  0  -0.085244  -0.123444  0  3.979539  0
C  C33  1  0.48723758  0.73442902  0.03669395  1  0.008633  0  -0.000127  0.036407  0  3.982556  0
N  N34  1  0.44926225  0.88396258  0.73374972  1  -1.1855  0  -0.307684  -0.407763  0  3.200542  0
N  N35  1  0.44522859  0.73478253  0.88493061  1  -1.19414  0  -0.307768  -0.407696  0  3.206178  0
N  N36  1  0.50688305  0.88487562  0.88228913  1  -1.220832  0  -0.307629  -0.408096  0  3.203175  0
O  O37  1  0.22972920  0.39259161  0.59261947  1  -1.251413  0  -0.231766  -0.586788  0  2.351001  0
O  O38  1  0.25422467  0.51615461  0.39295918  1  -1.258663  0  -0.234618  -0.595011  0  2.370292  0
O  O39  1  0.20012503  0.59358195  0.51774127  1  -1.255548  0  -0.232341  -0.586082  0  2.3445  0
O  O40  1  0.72340372  0.39379519  0.51038798  1  -1.245861  0  -0.231262  -0.58749  0  2.361337  0
O  O41  1  0.67025777  0.51020521  0.59614821  1  -1.240193  0  -0.233441  -0.595817  0  2.39058  0
O  O42  1  0.70629442  0.59687309  0.39390084  1  -1.245721  0  -0.232282  -0.590365  0  2.378777  0
F  F43  1  0.58183115  0.48367595  0.78226053  1  -0.627235  0  -0.100582  -0.137233  0  1.325355  0
F  F44  1  0.58089828  0.23434858  0.47929189  1  -0.623042  0  -0.102302  -0.139518  0  1.312813  0
F  F45  1  0.72449309  0.77683447  0.22984888  1  -0.633021  0  -0.098052  -0.135096  0  1.334105  0
