# generated using pymatgen
data_Mo3H7C8(NO3)3
_symmetry_space_group_name_H-M   'P 1'
_cell_length_a   3.68601562
_cell_length_b   13.24852323
_cell_length_c   15.45992885
_cell_angle_alpha   111.64358250
_cell_angle_beta   96.85799576
_cell_angle_gamma   89.98351209
_symmetry_Int_Tables_number   1
_chemical_formula_structural   Mo3H7C8(NO3)3
_chemical_formula_sum   'Mo6 H14 C16 N6 O18'
_cell_volume   695.94127439
_cell_formula_units_Z   2
loop_
 _symmetry_equiv_pos_site_id
 _symmetry_equiv_pos_as_xyz
  1  'x, y, z'
loop_
 _atom_site_type_symbol
 _atom_site_label
 _atom_site_symmetry_multiplicity
 _atom_site_fract_x
 _atom_site_fract_y
 _atom_site_fract_z
 _atom_site_occupancy
 _atom_site_hle17_bader_spin_density
 _atom_site_hle17_ddec_charge
 _atom_site_hle17_ddec_spin_density
 _atom_site_hle17_ddec_sum_bond_order
 _atom_site_hle17_magmom
 _atom_site_hse06_10hf_bader_spin_density
 _atom_site_hse06_10hf_ddec_charge
 _atom_site_hse06_10hf_ddec_spin_density
 _atom_site_hse06_10hf_ddec_sum_bond_order
 _atom_site_hse06_10hf_magmom
 _atom_site_hse06_bader_spin_density
 _atom_site_hse06_ddec_charge
 _atom_site_hse06_ddec_spin_density
 _atom_site_hse06_ddec_sum_bond_order
 _atom_site_hse06_magmom
 _atom_site_pbe_bader_spin_density
 _atom_site_pbe_cm5_charge
 _atom_site_pbe_ddec_charge
 _atom_site_pbe_ddec_spin_density
 _atom_site_pbe_ddec_sum_bond_order
 _atom_site_pbe_magmom
Mo  Mo0  1  0.40439251  0.34027388  0.80570820  1  0  2.181191  0  4.178439  0  0  2.182798  0  4.70612  0  0  2.287705  0  4.674274  0  0  1.617648  2.110813  0  4.728931  0
Mo  Mo1  1  0.59560592  0.65972618  0.19429268  1  0  2.181173  0  4.178412  0  0  2.182774  0  4.706095  0  0  2.287685  0  4.674241  0  0  1.617635  2.110784  0  4.728907  0
Mo  Mo2  1  0.27803800  0.36546525  0.55731706  1  0  2.296776  0  3.96769  0  0  2.305124  0  4.491424  0  0  2.409729  0  4.452116  0  0  1.567352  2.234428  0  4.517361  0
Mo  Mo3  1  0.72196172  0.63452495  0.44267635  1  0  2.296633  0  3.967692  0  0  2.304954  0  4.491434  0  0  2.409557  0  4.452141  0  0  1.567228  2.23426  0  4.517345  0
Mo  Mo4  1  0.15397517  0.39806297  0.30672892  1  0  2.235192  0  4.017258  0  0  2.241061  0  4.550325  0  0  2.339365  0  4.514941  0  0  1.527046  2.168802  0  4.582106  0
Mo  Mo5  1  0.84602427  0.60194356  0.69327266  1  0  2.235203  0  4.017381  0  0  2.241043  0  4.550465  0  0  2.339342  0  4.515085  0  0  1.527051  2.16876  0  4.582289  0
H  H6  1  0.52422946  0.39735318  0.04799017  1  0  0.32714  0  0.900555  0  0  0.307186  0  0.960982  0  0  0.316572  0  0.952516  0  0  0.327947  0.300616  0  0.967025  0
H  H7  1  0.47577418  0.60264528  0.95201168  1  0  0.327125  0  0.900553  0  0  0.307185  0  0.960949  0  0  0.316571  0  0.952484  0  0  0.327912  0.300615  0  0.96699  0
H  H8  1  0.30100565  0.13590789  0.60042318  1  0  0.08585  0  0.979249  0  0  0.093526  0  1.047572  0  0  0.096714  0  1.044101  0  0  0.114383  0.091206  0  1.050158  0
H  H9  1  0.69899577  0.86409379  0.39957829  1  0  0.085866  0  0.979217  0  0  0.093528  0  1.047559  0  0  0.096717  0  1.044087  0  0  0.114385  0.091208  0  1.050147  0
H  H10  1  0.26597499  0.93188896  0.53167202  1  0  0.108243  0  0.951268  0  0  0.1205  0  1.00794  0  0  0.123182  0  1.007613  0  0  0.108737  0.118652  0  1.008193  0
H  H11  1  0.73402370  0.06811271  0.46832871  1  0  0.108217  0  0.951262  0  0  0.12049  0  1.007911  0  0  0.123167  0  1.007594  0  0  0.108726  0.118639  0  1.00817  0
H  H12  1  0.32038190  0.83021259  0.64102209  1  0  0.106959  0  0.929259  0  0  0.117579  0  0.988111  0  0  0.120459  0  0.985486  0  0  0.114233  0.115439  0  0.990091  0
H  H13  1  0.67961668  0.16978824  0.35897709  1  0  0.106925  0  0.929287  0  0  0.117546  0  0.988141  0  0  0.120426  0  0.985513  0  0  0.114225  0.115406  0  0.990119  0
H  H14  1  0.40619261  0.93474171  0.81290805  1  0  0.113782  0  0.933556  0  0  0.130281  0  0.98222  0  0  0.133643  0  0.981075  0  0  0.111665  0.127879  0  0.983215  0
H  H15  1  0.59380572  0.06525750  0.18709128  1  0  0.1138  0  0.933567  0  0  0.130299  0  0.982224  0  0  0.133659  0  0.981081  0  0  0.111678  0.127896  0  0.983219  0
H  H16  1  0.48811570  0.05690068  0.98358994  1  0  0.114727  0  1.005847  0  0  0.128198  0  1.059844  0  0  0.131373  0  1.058651  0  0  0.104348  0.125991  0  1.060748  0
H  H17  1  0.51189071  0.94309771  0.01640874  1  0  0.114769  0  1.005788  0  0  0.128233  0  1.059792  0  0  0.131405  0  1.058599  0  0  0.104336  0.126025  0  1.060699  0
H  H18  1  0.56104861  0.25808208  0.12736702  1  0  0.102885  0  0.968501  0  0  0.109059  0  1.040027  0  0  0.111896  0  1.036953  0  0  0.127502  0.107066  0  1.04206  0
H  H19  1  0.43896013  0.74191392  0.87263294  1  0  0.102868  0  0.968532  0  0  0.109069  0  1.040041  0  0  0.111907  0  1.036965  0  0  0.127499  0.107055  0  1.042091  0
C  C20  1  0.32307288  0.08821529  0.64504162  1  0  0.12748  0  3.692831  0  0  0.097102  0  3.95136  0  0  0.104647  0  3.967262  0  0  0.045037  0.092253  0  3.940473  0
C  C21  1  0.67692570  0.91178555  0.35495821  1  0  0.127498  0  3.69285  0  0  0.0971  0  3.951394  0  0  0.104648  0  3.96729  0  0  0.04505  0.09225  0  3.940507  0
C  C22  1  0.30391637  0.97508542  0.60728748  1  0  -0.112507  0  3.714611  0  0  -0.127263  0  3.967037  0  0  -0.134172  0  3.988354  0  0  -0.083011  -0.122808  0  3.952576  0
C  C23  1  0.69607959  0.02491623  0.39271253  1  0  -0.112447  0  3.714579  0  0  -0.127199  0  3.96698  0  0  -0.134112  0  3.988301  0  0  -0.082964  -0.122744  0  3.952513  0
C  C24  1  0.33404435  0.91857496  0.66791107  1  0  0.033168  0  3.68506  0  0  0.01462  0  3.932834  0  0  0.02011  0  3.948705  0  0  -0.055703  0.011309  0  3.92187  0
C  C25  1  0.66595150  0.08142586  0.33208803  1  0  0.033153  0  3.685087  0  0  0.014616  0  3.932845  0  0  0.020105  0  3.948719  0  0  -0.055756  0.011306  0  3.921877  0
C  C26  1  0.38207809  0.97699780  0.76413566  1  0  -0.137551  0  3.682445  0  0  -0.155029  0  3.924138  0  0  -0.161937  0  3.943392  0  0  -0.075575  -0.150622  0  3.911249  0
C  C27  1  0.61791776  0.02300302  0.23586344  1  0  -0.137537  0  3.682522  0  0  -0.155033  0  3.9242  0  0  -0.161939  0  3.943453  0  0  -0.075555  -0.150625  0  3.91131  0
C  C28  1  0.39869743  0.09062855  0.79732424  1  0  0.19883  0  3.773209  0  0  0.195262  0  4.021554  0  0  0.203492  0  4.038534  0  0  0.121875  0.189722  0  4.010082  0
C  C29  1  0.60129852  0.90937313  0.20267706  1  0  0.198792  0  3.773345  0  0  0.195252  0  4.021599  0  0  0.203482  0  4.038579  0  0  0.121868  0.18971  0  4.010126  0
C  C30  1  0.44774584  0.15923543  0.89647616  1  0  0.135828  0  3.803897  0  0  0.123251  0  4.071696  0  0  0.131151  0  4.088994  0  0  0.096121  0.118272  0  4.059791  0
C  C31  1  0.55225533  0.84076462  0.10352480  1  0  0.13575  0  3.80395  0  0  0.123215  0  4.071705  0  0  0.131114  0  4.089001  0  0  0.096108  0.118235  0  4.059803  0
C  C32  1  0.48715815  0.13599465  0.97869290  1  0  -0.243193  0  3.754908  0  0  -0.262569  0  4.009684  0  0  -0.272786  0  4.030125  0  0  -0.111173  -0.255906  0  3.995702  0
C  C33  1  0.51284538  0.86400297  0.02130740  1  0  -0.243269  0  3.755025  0  0  -0.262655  0  4.009797  0  0  -0.272867  0  4.030235  0  0  -0.111195  -0.255992  0  3.995811  0
C  C34  1  0.52418914  0.23645587  0.05210686  1  0  0.086716  0  3.657385  0  0  0.038963  0  3.91994  0  0  0.048726  0  3.932993  0  0  0.036226  0.032931  0  3.910735  0
C  C35  1  0.47581152  0.76354095  0.94789376  1  0  0.086833  0  3.657408  0  0  0.039049  0  3.919919  0  0  0.048812  0  3.932974  0  0  0.036297  0.03304  0  3.910718  0
N  N36  1  0.36946962  0.14490851  0.73792064  1  0  -0.352255  0  3.222956  0  0  -0.306598  0  3.481653  0  0  -0.323668  0  3.500674  0  0  -0.328308  -0.295141  0  3.468815  0
N  N37  1  0.63052895  0.85509234  0.26207984  1  0  -0.352284  0  3.22302  0  0  -0.306597  0  3.481651  0  0  -0.323668  0  3.500674  0  0  -0.328313  -0.295139  0  3.468816  0
N  N38  1  0.46045704  0.26794361  0.91970937  1  0  -0.271919  0  3.154976  0  0  -0.25641  0  3.437964  0  0  -0.270437  0  3.458287  0  0  -0.257028  -0.247049  0  3.42439  0
N  N39  1  0.53954139  0.73205645  0.08029152  1  0  -0.271773  0  3.154911  0  0  -0.256354  0  3.437953  0  0  -0.270378  0  3.458277  0  0  -0.257032  -0.246992  0  3.424382  0
N  N40  1  0.50662944  0.31310437  0.01366053  1  0  -0.100762  0  3.406824  0  0  -0.035642  0  3.637167  0  0  -0.045997  0  3.652699  0  0  -0.249425  -0.028795  0  3.626644  0
N  N41  1  0.49337695  0.68689406  0.98634009  1  0  -0.100853  0  3.40674  0  0  -0.03571  0  3.637085  0  0  -0.046073  0  3.65263  0  0  -0.249418  -0.028863  0  3.626557  0
O  O42  1  0.32665438  0.56151708  0.65433917  1  0  -0.995068  0  1.862636  0  0  -0.988377  0  2.170756  0  0  -1.033027  0  2.163133  0  0  -0.606635  -0.954911  0  2.175259  0
O  O43  1  0.67334196  0.43848701  0.34566158  1  0  -0.995027  0  1.862656  0  0  -0.988333  0  2.170764  0  0  -1.032975  0  2.163137  0  0  -0.606609  -0.954877  0  2.175266  0
O  O44  1  0.79614775  0.40782184  0.59339339  1  0  -0.974585  0  1.860062  0  0  -0.969401  0  2.167169  0  0  -1.013594  0  2.15875  0  0  -0.59761  -0.938247  0  2.171463  0
O  O45  1  0.20385616  0.59217820  0.40660700  1  0  -0.974519  0  1.860079  0  0  -0.969354  0  2.167235  0  0  -1.013529  0  2.158783  0  0  -0.597632  -0.938205  0  2.171538  0
O  O46  1  0.34840744  0.35830211  0.69674184  1  0  -0.802359  0  1.693522  0  0  -0.808315  0  1.989873  0  0  -0.845311  0  1.980834  0  0  -0.55716  -0.783515  0  1.995944  0
O  O47  1  0.65159099  0.64169796  0.30325970  1  0  -0.802373  0  1.693486  0  0  -0.808323  0  1.989847  0  0  -0.84532  0  1.980805  0  0  -0.557192  -0.78352  0  1.995919  0
O  O48  1  0.22833798  0.39783040  0.45720797  1  0  -0.74624  0  1.64023  0  0  -0.754931  0  1.929369  0  0  -0.786959  0  1.920064  0  0  -0.527155  -0.733442  0  1.93602  0
O  O49  1  0.77166034  0.60216883  0.54279201  1  0  -0.746216  0  1.640219  0  0  -0.754949  0  1.929426  0  0  -0.786941  0  1.92005  0  0  -0.52714  -0.733454  0  1.936067  0
O  O50  1  0.44672741  0.46710219  0.89266774  1  0  -0.636449  0  1.520685  0  0  -0.634511  0  1.766282  0  0  -0.65792  0  1.754018  0  0  -0.491195  -0.618954  0  1.775064  0
O  O51  1  0.55327091  0.53289703  0.10733159  1  0  -0.636461  0  1.520659  0  0  -0.634508  0  1.766244  0  0  -0.657916  0  1.753981  0  0  -0.491181  -0.61895  0  1.775032  0
O  O52  1  0.10359726  0.42453504  0.20611026  1  0  -0.639948  0  1.433709  0  0  -0.652794  0  1.694875  0  0  -0.678328  0  1.688102  0  0  -0.492282  -0.634617  0  1.700431  0
O  O53  1  0.89640144  0.57546660  0.79388917  1  0  -0.640009  0  1.433656  0  0  -0.65285  0  1.694842  0  0  -0.678371  0  1.688039  0  0  -0.492329  -0.63467  0  1.700399  0
O  O54  1  0.90274846  0.30720688  0.80433654  1  0  -0.913829  0  1.931361  0  0  -0.92654  0  2.244996  0  0  -0.973822  0  2.245807  0  0  -0.598613  -0.892935  0  2.243707  0
O  O55  1  0.09724999  0.69279316  0.19566370  1  0  -0.913814  0  1.931425  0  0  -0.926518  0  2.245052  0  0  -0.9738  0  2.245862  0  0  -0.598582  -0.892906  0  2.243762  0
O  O56  1  0.25389985  0.22725235  0.50967302  1  0  -0.651534  0  1.462505  0  0  -0.649463  0  1.713029  0  0  -0.676002  0  1.704536  0  0  -0.481677  -0.631948  0  1.718784  0
O  O57  1  0.74610170  0.77275013  0.49032804  1  0  -0.651509  0  1.462271  0  0  -0.649358  0  1.712704  0  0  -0.67592  0  1.704254  0  0  -0.48157  -0.631841  0  1.718448  0
O  O58  1  0.13372131  0.25902988  0.26535089  1  0  -0.676573  0  1.3832  0  0  -0.676693  0  1.620441  0  0  -0.704851  0  1.612657  0  0  -0.507562  -0.656503  0  1.62667  0
O  O59  1  0.86627727  0.74097095  0.73464829  1  0  -0.67651  0  1.383353  0  0  -0.676587  0  1.620583  0  0  -0.704743  0  1.612799  0  0  -0.507537  -0.656399  0  1.626816  0
