# generated using pymatgen
data_MnH22C26(NO)4
_symmetry_space_group_name_H-M   'P 1'
_cell_length_a   8.65533760
_cell_length_b   11.19706139
_cell_length_c   13.61892435
_cell_angle_alpha   81.04414924
_cell_angle_beta   71.45371576
_cell_angle_gamma   67.28819178
_symmetry_Int_Tables_number   1
_chemical_formula_structural   MnH22C26(NO)4
_chemical_formula_sum   'Mn2 H44 C52 N8 O8'
_cell_volume   1153.47943329
_cell_formula_units_Z   2
loop_
 _symmetry_equiv_pos_site_id
 _symmetry_equiv_pos_as_xyz
  1  'x, y, z'
loop_
 _atom_site_type_symbol
 _atom_site_label
 _atom_site_symmetry_multiplicity
 _atom_site_fract_x
 _atom_site_fract_y
 _atom_site_fract_z
 _atom_site_occupancy
 _atom_site_hle17_bader_charge
 _atom_site_hle17_bader_spin_density
 _atom_site_hle17_ddec_charge
 _atom_site_hle17_ddec_spin_density
 _atom_site_hle17_ddec_sum_bond_order
 _atom_site_hle17_magmom
 _atom_site_hse06_10hf_ddec_charge
 _atom_site_hse06_10hf_ddec_spin_density
 _atom_site_hse06_10hf_ddec_sum_bond_order
 _atom_site_hse06_10hf_magmom
 _atom_site_hse06_ddec_charge
 _atom_site_hse06_ddec_spin_density
 _atom_site_hse06_ddec_sum_bond_order
 _atom_site_hse06_magmom
 _atom_site_pbe_cm5_charge
 _atom_site_pbe_ddec_charge
 _atom_site_pbe_ddec_spin_density
 _atom_site_pbe_ddec_sum_bond_order
 _atom_site_pbe_magmom
Mn  Mn0  1  0.00480049  0.49560334  0.00853841  1  1.46583  1.588774  0.867226  1.65814  2.774179  1.598  0.80735  1.413184  3.298774  1.377  0.866574  1.400325  3.233268  1.357  0.66466  0.767754  1.372904  3.341062  1.338
Mn  Mn1  1  0.50879600  0.00464405  0.49134136  1  1.469804  1.575158  0.865299  1.644505  2.773356  1.585  0.803229  1.394618  3.298878  1.358  0.854724  1.360687  3.237844  1.319  0.66369  0.767119  1.366358  3.338431  1.332
H  H2  1  0.29700960  0.89539296  0.25115982  1  -0.04797  -0.004753  0.116068  -0.003584  0.955628  -0.003  0.136004  -0.002957  1.017819  -0.002  0.137817  -0.003211  1.017767  -0.002  0.090295  0.134958  -0.002257  1.017418  -0.002
H  H3  1  0.44409888  0.60476417  0.24870680  1  -0.055849  -0.004589  0.115996  -0.003427  0.955076  -0.003  0.135908  -0.00281  1.017331  -0.002  0.137363  -0.003172  1.017534  -0.002  0.090184  0.134873  -0.002259  1.017215  -0.002
H  H4  1  0.70304426  0.10057489  0.74729268  1  -0.043301  -0.005476  0.115841  -0.004124  0.953216  -0.003  0.135638  -0.003266  1.015458  -0.002  0.137866  -0.003527  1.014904  -0.003  0.089756  0.134124  -0.002605  1.015607  -0.002
H  H5  1  0.55063594  0.39889303  0.75293559  1  -0.037274  -0.00526  0.116244  -0.003934  0.95282  -0.003  0.135823  -0.003111  1.015069  -0.002  0.1377  -0.003472  1.014729  -0.003  0.090005  0.134338  -0.002617  1.015494  -0.002
H  H6  1  0.10297554  0.90261818  0.35136724  1  -0.0572  -0.001788  0.117274  -0.001259  0.964036  -0.001  0.134637  -0.000985  1.029439  -0.001  0.134787  -0.000853  1.031656  -0.001  0.088661  0.134746  -0.001018  1.027656  0.0
H  H7  1  0.35708135  0.59783374  0.14862381  1  -0.045788  -0.001779  0.11733  -0.001258  0.963004  -0.001  0.134589  -0.000987  1.028498  -0.001  0.134661  -0.000889  1.030781  -0.001  0.08839  0.134686  -0.001034  1.026823  0.0
H  H8  1  0.89827288  0.09736380  0.64992102  1  -0.019013  -0.001972  0.118384  -0.001318  0.962032  -0.001  0.135603  -0.000939  1.027581  -0.001  0.136155  -0.000869  1.029441  -0.001  0.088555  0.135263  -0.000915  1.026212  -0.001
H  H9  1  0.64587137  0.40187317  0.85004427  1  -0.041577  -0.001954  0.117585  -0.001307  0.963307  -0.001  0.134222  -0.000937  1.029359  -0.001  0.13469  -0.000897  1.031312  -0.001  0.088083  0.133898  -0.000953  1.028073  -0.001
H  H10  1  0.30722831  0.77918236  0.35580980  1  -0.031317  -0.001938  0.120787  -0.001254  0.955309  -0.001  0.140902  -0.001067  1.014631  -0.001  0.142863  -0.001155  1.014426  -0.001  0.091742  0.139714  -0.000803  1.014724  -0.001
H  H11  1  0.44314227  0.72093403  0.14404673  1  -0.035205  -0.001859  0.121025  -0.001187  0.954657  -0.001  0.141182  -0.000993  1.013875  -0.001  0.143084  -0.001129  1.013637  -0.001  0.091822  0.139527  -0.000805  1.014412  -0.001
H  H12  1  0.69423842  0.22095178  0.64546034  1  -0.063863  -0.001851  0.120162  -0.001166  0.956322  -0.001  0.140243  -0.000945  1.015908  -0.001  0.142132  -0.001015  1.015789  -0.001  0.091231  0.139055  -0.000728  1.015983  -0.001
H  H13  1  0.55974254  0.27876438  0.85491533  1  -0.031128  -0.001773  0.120835  -0.001102  0.956482  -0.001  0.140511  -0.000879  1.016267  -0.001  0.142379  -0.000994  1.016069  -0.001  0.091248  0.138835  -0.000729  1.016843  -0.001
H  H14  1  0.02214089  0.10808665  0.41191068  1  -0.050493  2.8e-05  0.108694  0.000201  1.013787  0.0  0.115941  0.000539  1.084451  0.0  0.117553  0.000481  1.087995  0.0  0.088405  0.115136  0.000567  1.081652  0.0
H  H15  1  0.54238209  0.39171411  0.08822580  1  -0.035371  2.9e-05  0.108684  0.000217  1.013335  0.0  0.115758  0.000546  1.084032  0.0  0.117378  0.000499  1.087562  0.0  0.088187  0.114716  0.00056  1.081655  0.0
H  H16  1  0.97835054  0.88852156  0.59094647  1  -0.005635  -0.000136  0.108555  0.000174  1.014105  -0.001  0.115864  0.000666  1.084697  0.0  0.117542  0.0006  1.088397  0.0  0.088846  0.115003  0.000717  1.0817  0.0
H  H17  1  0.45849841  0.61130040  0.90924543  1  0.006841  -0.000137  0.109681  0.000195  1.011747  0.0  0.116508  0.000665  1.082834  0.0  0.1182  0.000615  1.086533  0.0  0.089082  0.115468  0.000704  1.080162  0.0
H  H18  1  0.11744101  0.32587650  0.62642704  1  0.000827  0.001176  0.110527  0.000726  0.960461  0.001  0.118703  -5.4e-05  1.025589  0.0  0.123492  6.3e-05  1.021263  0.0  0.108408  0.114874  -0.000274  1.029578  0.0
H  H19  1  0.07029410  0.17396739  0.87392723  1  0.001982  0.001301  0.109396  0.0008  0.958226  0.001  0.11822  -6e-06  1.022754  0.0  0.12274  7.2e-05  1.018899  0.0  0.108381  0.114825  -0.000122  1.026061  0.0
H  H20  1  0.88350568  0.67565851  0.37116819  1  0.031397  0.001238  0.1094  0.000674  0.963701  0.001  0.118539  -0.000276  1.028219  0.0  0.123205  1e-06  1.02362  0.0  0.107887  0.114668  -0.00072  1.032816  0.0
H  H21  1  0.93145838  0.82419052  0.12900763  1  0.049852  0.001382  0.108556  0.000746  0.963584  0.002  0.117758  -0.000218  1.027807  0.0  0.12216  1.8e-05  1.023694  0.0  0.108244  0.114214  -0.000588  1.031914  0.0
H  H22  1  0.61489390  0.61178117  0.61638353  1  0.03005  0.001116  0.097464  0.000474  0.971548  0.001  0.106644  -0.000503  1.037415  0.0  0.110492  -0.000446  1.034385  0.0  0.104886  0.103821  -0.000447  1.039578  0.0
H  H23  1  0.84371050  0.88797437  0.88359339  1  0.012137  0.001351  0.096948  0.00061  0.972702  0.002  0.105826  -0.000607  1.039153  0.0  0.109528  -0.000603  1.036336  0.0  0.104751  0.103626  -0.000427  1.040024  0.0
H  H24  1  0.38327999  0.38536121  0.38154451  1  0.006409  0.001146  0.09649  0.000487  0.974491  0.002  0.105177  -0.000552  1.041503  0.0  0.108995  -0.000499  1.038479  0.0  0.103553  0.102444  -0.000446  1.043548  0.0
H  H25  1  0.15087073  0.11501240  0.11820478  1  -0.004936  0.00143  0.096456  0.000652  0.975505  0.002  0.104655  -0.00064  1.04327  0.0  0.10821  -0.00065  1.040593  0.0  0.104196  0.102507  -0.00044  1.044085  0.0
H  H26  1  0.63178829  0.50644660  0.46437283  1  -0.001341  -0.000737  0.088537  -0.000463  0.950813  -0.001  0.101875  -2e-06  1.005191  0.0  0.104829  7.2e-05  1.003461  0.0  0.102015  0.099608  -0.000149  1.007021  0.0
H  H27  1  0.60314752  0.99307326  0.03562338  1  -0.010929  -0.00086  0.087115  -0.000552  0.95057  -0.001  0.100392  8e-06  1.005261  0.0  0.10318  8.4e-05  1.003776  0.0  0.101265  0.098309  -0.000118  1.006844  0.0
H  H28  1  0.36879605  0.48970760  0.53315627  1  -0.048983  -0.000695  0.085922  -0.000472  0.950411  -0.001  0.099211  8.7e-05  1.005265  0.0  0.102654  0.000107  1.002908  0.0  0.099341  0.0965  7e-06  1.007646  0.0
H  H29  1  0.39210087  0.01088672  0.96644190  1  0.020274  -0.000948  0.086701  -0.000556  0.950672  -0.001  0.099852  0.0001  1.005555  0.0  0.103091  0.00012  1.003539  0.0  0.100588  0.097265  3.8e-05  1.007786  0.0
H  H30  1  0.88218379  0.30615287  0.39883951  1  -0.004059  0.001107  0.08746  0.000674  0.973121  0.001  0.10003  -0.000141  1.035546  0.0  0.102515  -6.5e-05  1.034918  0.0  0.100101  0.098046  -0.000205  1.036394  0.0
H  H31  1  0.58734247  0.19347130  0.10123574  1  -0.016275  0.001122  0.087164  0.000693  0.973736  0.001  0.099925  -0.000178  1.035938  0.0  0.102362  -9.8e-05  1.035319  0.0  0.0999  0.098297  -0.000259  1.036399  0.0
H  H32  1  0.12103300  0.69141280  0.59881675  1  0.012785  0.001332  0.087742  0.000763  0.971679  0.001  0.098794  -0.000138  1.035745  0.0  0.102133  -7.6e-05  1.033958  0.0  0.098556  0.096079  -0.000167  1.037564  0.0
H  H33  1  0.41214038  0.80882017  0.90101276  1  -0.009446  0.00134  0.087692  0.000781  0.973136  0.001  0.099727  -0.000176  1.036071  0.0  0.102916  -0.000104  1.034365  0.0  0.098529  0.097324  -0.000236  1.037675  0.0
H  H34  1  0.04924127  0.38285474  0.78316253  1  0.076771  -5.7e-05  0.098942  -0.000194  0.937361  0.0  0.108758  -0.000493  0.999912  0.0  0.112121  -0.000392  0.994678  0.0  0.139446  0.105887  -0.000655  1.004511  0.0
H  H35  1  0.21627734  0.11701273  0.71691663  1  0.070794  -5.9e-05  0.099522  -0.000185  0.93607  0.0  0.109076  -0.000457  0.998728  0.0  0.112138  -0.00037  0.993926  0.0  0.140058  0.106587  -0.000589  1.002999  0.0
H  H36  1  0.94504831  0.61831207  0.21725536  1  0.095842  0.001119  0.1029  0.000171  0.942976  0.002  0.111074  -0.001137  1.007716  0.0  0.115908  -0.000632  0.998827  0.0  0.139887  0.106708  -0.001748  1.015875  0.0
H  H37  1  0.78147759  0.88149070  0.28303247  1  0.110142  0.00126  0.102475  0.000186  0.943491  0.002  0.110186  -0.001143  1.00883  0.0  0.11481  -0.000633  1.000177  0.0  0.139835  0.106163  -0.001739  1.016794  0.0
H  H38  1  0.71794280  0.75224081  0.89356135  1  0.084844  -0.0001  0.106834  -8.7e-05  0.948139  0.0  0.120109  -0.000227  1.000703  0.0  0.122041  -0.000246  0.999889  0.0  0.123127  0.118473  -0.000223  1.001796  0.0
H  H39  1  0.36358583  0.74811681  0.60605349  1  0.053703  -0.000127  0.106029  -0.000115  0.948327  0.0  0.119773  -0.000279  1.000466  0.0  0.121559  -0.000284  0.999773  0.0  0.122968  0.118674  -0.000212  1.00083  0.0
H  H40  1  0.27985695  0.25112066  0.10124660  1  0.025983  7.4e-05  0.111795  -2.5e-05  0.946717  0.0  0.124265  -0.000329  1.000373  0.0  0.127111  -0.000354  0.998197  0.0  0.125081  0.121848  -0.000292  1.002602  0.0
H  H41  1  0.63190288  0.24926198  0.39834548  1  0.024146  5.6e-05  0.111157  -4.8e-05  0.947372  0.0  0.123061  -0.000379  1.001896  0.0  0.125603  -0.000388  1.000036  0.0  0.125467  0.121263  -0.000277  1.003233  0.0
H  H42  1  0.65663933  0.72483425  0.71148595  1  0.070902  -0.000465  0.122233  -0.000398  0.955125  0.0  0.132544  -0.000354  1.013407  0.0  0.135003  -0.00036  1.012739  0.0  0.126447  0.130513  -0.000302  1.014306  0.0
H  H43  1  0.09344483  0.77500761  0.78852504  1  0.107036  -0.000528  0.123336  -0.00045  0.95585  0.0  0.133257  -0.000426  1.014337  0.0  0.13561  -0.000464  1.013821  0.0  0.127143  0.131669  -0.000281  1.014611  0.0
H  H44  1  0.34171796  0.27519151  0.28374124  1  0.072682  -0.000812  0.125583  -0.000645  0.951564  -0.001  0.135436  -0.000368  1.009714  0.0  0.138043  -0.00042  1.008809  0.0  0.128639  0.133212  -0.000286  1.010954  0.0
H  H45  1  0.90088765  0.22512492  0.21607154  1  0.088011  -0.000895  0.125012  -0.000699  0.953543  -0.001  0.13473  -0.000415  1.011845  0.0  0.137116  -0.000508  1.011301  0.0  0.128312  0.132938  -0.000259  1.012475  0.0
C  C46  1  0.24320838  0.88112341  0.33506356  1  0.235589  -3.9e-05  -0.392966  -0.001951  3.689132  0.002  -0.470776  -0.003022  3.919732  0.0  -0.477237  -0.002269  3.925502  0.001  -0.248968  -0.465987  -0.003306  3.914492  0.0
C  C47  1  0.45980897  0.61906366  0.16482529  1  0.240754  -0.000178  -0.391791  -0.002032  3.687034  0.002  -0.469126  -0.002989  3.916671  0.0  -0.475253  -0.002289  3.922816  0.001  -0.248009  -0.46448  -0.003303  3.91218  0.0
C  C48  1  0.75856936  0.11833563  0.66412286  1  0.233753  0.000731  -0.392978  -0.001501  3.688885  0.003  -0.470992  -0.002949  3.91917  0.001  -0.477513  -0.002202  3.924035  0.002  -0.248651  -0.466184  -0.003192  3.915015  0.0
C  C49  1  0.54087325  0.38126866  0.83608900  1  0.216341  0.000506  -0.392103  -0.001623  3.689922  0.003  -0.46864  -0.002919  3.920051  0.0  -0.474783  -0.002227  3.925271  0.002  -0.247441  -0.464042  -0.003192  3.916615  0.0
C  C50  1  0.27756419  0.96711397  0.39332887  1  0.632184  -0.077639  0.476303  -0.081048  3.752042  -0.052  0.475496  -0.048309  4.011835  -0.028  0.505232  -0.055954  4.015198  -0.033  0.109224  0.455895  -0.035207  4.007979  -0.02
C  C51  1  0.63822647  0.53293386  0.10653111  1  0.615563  -0.075354  0.476629  -0.078565  3.74879  -0.05  0.476446  -0.0465  4.008043  -0.027  0.505373  -0.056919  4.012575  -0.034  0.109763  0.456002  -0.035073  4.004403  -0.019
C  C52  1  0.72875475  0.03497752  0.60094541  1  0.616258  -0.088158  0.472504  -0.092161  3.743959  -0.06  0.473421  -0.053222  4.002313  -0.031  0.503801  -0.061172  4.005326  -0.037  0.109437  0.45306  -0.040672  3.998746  -0.023
C  C53  1  0.36485330  0.46501448  0.89924827  1  0.657106  -0.084933  0.472903  -0.088864  3.744889  -0.058  0.47349  -0.051106  4.00348  -0.03  0.502873  -0.06191  4.007857  -0.037  0.109089  0.452451  -0.04013  3.999784  -0.023
C  C54  1  0.14718605  0.08736176  0.42566008  1  0.135733  0.033235  -0.437143  0.024622  3.769108  0.027  -0.466313  0.004818  4.037812  0.009  -0.489451  0.010182  4.056854  0.014  -0.158957  -0.450284  0.001636  4.022456  0.005
C  C55  1  0.66039362  0.41264403  0.07426884  1  0.094198  0.032658  -0.437117  0.024264  3.768101  0.026  -0.465575  0.004465  4.036467  0.009  -0.488929  0.010186  4.056937  0.014  -0.158736  -0.449211  0.001833  4.022025  0.005
C  C56  1  0.85678224  0.91268443  0.57177079  1  0.074822  0.041028  -0.432506  0.030758  3.766996  0.032  -0.462096  0.006021  4.034286  0.01  -0.485425  0.010874  4.05346  0.015  -0.157246  -0.445674  0.003699  4.01864  0.007
C  C57  1  0.34179655  0.58721919  0.92845904  1  0.035412  0.039506  -0.434393  0.029708  3.765228  0.031  -0.46332  0.005334  4.03262  0.01  -0.486739  0.010627  4.053125  0.015  -0.157682  -0.446513  0.003822  4.01761  0.007
C  C58  1  0.16389281  0.17927991  0.47712958  1  0.621912  -0.085656  0.354871  -0.090697  3.820418  -0.059  0.334816  -0.055222  4.094546  -0.033  0.362937  -0.063153  4.100833  -0.039  0.098552  0.317508  -0.041597  4.087663  -0.024
C  C59  1  0.82045835  0.32074499  0.02286256  1  0.663406  -0.0833  0.359671  -0.088031  3.822244  -0.057  0.338883  -0.053554  4.097231  -0.031  0.365976  -0.065347  4.104604  -0.039  0.100427  0.319895  -0.041119  4.090419  -0.024
C  C60  1  0.84143302  0.82260160  0.51773274  1  0.62747  -0.092303  0.35158  -0.097139  3.821961  -0.063  0.33258  -0.057198  4.095714  -0.034  0.359964  -0.066483  4.102724  -0.04  0.097234  0.316056  -0.042013  4.088073  -0.024
C  C61  1  0.18243998  0.67743060  0.98239674  1  0.629878  -0.08941  0.35599  -0.094173  3.816507  -0.061  0.337385  -0.055563  4.09017  -0.032  0.363666  -0.068636  4.098281  -0.041  0.09901  0.319594  -0.041049  4.082418  -0.023
C  C62  1  0.01196854  0.29913778  0.51270621  1  -0.004372  0.014986  0.009757  0.011023  3.774159  0.015  0.033841  -0.001104  4.001126  0.003  0.030713  0.003588  4.020207  0.007  -0.011205  0.035518  -0.003601  3.988204  0.001
C  C63  1  0.82413188  0.20068183  0.98742528  1  -0.047618  0.016591  0.006469  0.012416  3.779054  0.016  0.030221  -0.001091  4.007073  0.004  0.027049  0.004222  4.026971  0.008  -0.011485  0.033  -0.003171  3.992283  0.001
C  C64  1  0.99035122  0.70028027  0.48482128  1  0.072638  0.018042  0.008314  0.013348  3.775678  0.017  0.030279  -0.000532  4.006221  0.004  0.027516  0.004224  4.024255  0.008  -0.013598  0.031743  -0.002767  3.994242  0.002
C  C65  1  0.17640169  0.79978369  0.01523437  1  0.012967  0.019531  0.006801  0.014744  3.777163  0.019  0.029108  -0.000454  4.007437  0.004  0.026331  0.004745  4.02622  0.009  -0.011022  0.031557  -0.002378  3.993743  0.002
C  C66  1  0.00554333  0.36322699  0.59543368  1  0.117822  -0.037335  -0.173186  -0.037906  3.701512  -0.025  -0.204122  -0.017507  3.952422  -0.01  -0.20541  -0.019094  3.969344  -0.012  -0.088903  -0.203987  -0.017447  3.94237  -0.01
C  C67  1  0.96470628  0.13655648  0.90483847  1  0.132176  -0.040042  -0.171434  -0.040623  3.699743  -0.027  -0.201981  -0.018602  3.950866  -0.011  -0.204125  -0.022949  3.968911  -0.014  -0.086857  -0.200566  -0.014409  3.938276  -0.008
C  C68  1  0.99512281  0.63655819  0.40237670  1  0.060605  -0.043751  -0.172405  -0.044287  3.697128  -0.029  -0.204373  -0.020654  3.948703  -0.012  -0.205091  -0.021298  3.965556  -0.013  -0.089948  -0.205067  -0.022089  3.939344  -0.012
C  C69  1  0.03511329  0.86343401  0.09771523  1  0.066403  -0.045756  -0.170421  -0.046314  3.697497  -0.031  -0.201889  -0.021514  3.948483  -0.012  -0.203472  -0.024965  3.966406  -0.015  -0.088897  -0.201492  -0.019255  3.936939  -0.011
C  C70  1  0.86240595  0.47391848  0.63354534  1  0.233901  0.018314  0.181104  0.015695  3.789968  0.016  0.175057  0.00239  4.037162  0.004  0.180572  0.005486  4.059194  0.006  0.095715  0.171005  -0.000386  4.022592  0.001
C  C71  1  0.97053987  0.02584632  0.86666437  1  0.228576  0.020614  0.182676  0.017701  3.790149  0.018  0.175519  0.002452  4.039229  0.004  0.181005  0.006413  4.061723  0.008  0.095746  0.171905  -0.000105  4.021808  0.001
C  C72  1  0.13641249  0.52466785  0.36444470  1  0.266224  0.019144  0.180399  0.016144  3.794057  0.016  0.176005  0.001648  4.039489  0.003  0.180975  0.005739  4.061807  0.007  0.096401  0.172003  -0.002698  4.024959  0.0
C  C73  1  0.02638473  0.97541946  0.13560256  1  0.274236  0.021151  0.180826  0.017883  3.789987  0.018  0.176125  0.001578  4.036241  0.004  0.181102  0.00651  4.058974  0.008  0.095931  0.172571  -0.002591  4.018938  0.0
C  C74  1  0.72532664  0.52443531  0.58780127  1  0.066541  -0.04324  -0.139081  -0.043805  3.730901  -0.029  -0.163589  -0.021063  3.988991  -0.012  -0.163809  -0.022917  4.004435  -0.014  -0.090967  -0.163341  -0.017225  3.97907  -0.01
C  C75  1  0.83814190  0.97529449  0.91229184  1  0.076445  -0.053035  -0.142096  -0.05387  3.734326  -0.036  -0.166835  -0.027976  3.99377  -0.016  -0.167307  -0.032404  4.009683  -0.019  -0.091342  -0.163396  -0.017804  3.97959  -0.01
C  C76  1  0.27361817  0.47309093  0.41011973  1  0.053055  -0.047225  -0.138255  -0.04784  3.734548  -0.032  -0.162084  -0.021871  3.991521  -0.013  -0.162349  -0.024583  4.006748  -0.015  -0.09089  -0.161531  -0.016452  3.981895  -0.009
C  C77  1  0.15761763  0.02715397  0.08973819  1  0.119363  -0.057278  -0.141897  -0.058178  3.73474  -0.038  -0.166387  -0.029142  3.993676  -0.017  -0.166719  -0.03408  4.009261  -0.02  -0.091883  -0.162484  -0.017249  3.979763  -0.01
C  C78  1  0.73466892  0.46368112  0.50297290  1  -0.006702  0.022295  -0.062155  0.01803  3.793823  0.017  -0.074797  0.003067  4.049325  0.004  -0.075933  0.006043  4.067706  0.006  -0.09393  -0.074482  0.000628  4.037767  0.002
C  C79  1  0.70181653  0.03595520  0.99708025  1  0.050256  0.026169  -0.059959  0.021147  3.796875  0.02  -0.072405  0.004186  4.052362  0.005  -0.073729  0.008011  4.071419  0.008  -0.092335  -0.07222  0.001144  4.03902  0.002
C  C80  1  0.26565070  0.53338988  0.49481314  1  0.039581  0.024747  -0.062564  0.020103  3.793731  0.019  -0.075699  0.003219  4.049815  0.004  -0.076134  0.006654  4.066108  0.007  -0.093971  -0.076321  0.000114  4.040464  0.002
C  C81  1  0.29452599  0.96696723  0.00496741  1  -0.027325  0.028751  -0.061677  0.023272  3.793397  0.022  -0.07437  0.004356  4.050162  0.005  -0.074952  0.008559  4.066954  0.009  -0.094155  -0.075367  0.000448  4.039267  0.002
C  C82  1  0.87518577  0.35141942  0.46604702  1  0.054681  -0.036284  -0.103188  -0.03638  3.738942  -0.024  -0.129443  -0.016259  3.988906  -0.01  -0.13012  -0.018297  4.008292  -0.011  -0.093051  -0.12903  -0.013676  3.976361  -0.008
C  C83  1  0.69293541  0.14828423  0.03405623  1  0.050015  -0.038867  -0.103073  -0.038856  3.742688  -0.026  -0.129383  -0.016956  3.992436  -0.01  -0.130391  -0.020823  4.012399  -0.013  -0.091563  -0.128169  -0.013847  3.977782  -0.008
C  C84  1  0.12658176  0.64650077  0.53182284  1  0.00144  -0.041931  -0.101696  -0.042001  3.736422  -0.028  -0.127461  -0.018355  3.988637  -0.011  -0.126323  -0.020145  4.004875  -0.012  -0.092896  -0.128947  -0.016463  3.979157  -0.01
C  C85  1  0.30579137  0.85369979  0.96803668  1  -0.012552  -0.044758  -0.104709  -0.04472  3.740179  -0.03  -0.131779  -0.019347  3.993106  -0.012  -0.130709  -0.022568  4.009721  -0.014  -0.095097  -0.132612  -0.016915  3.981821  -0.01
C  C86  1  0.95300222  0.47998308  0.78805703  1  1.028732  -0.008592  0.160147  -0.009513  3.627208  -0.006  0.102522  -0.006063  3.897962  -0.003  0.117567  -0.002464  3.907475  -0.001  0.145351  0.09165  -0.009676  3.892709  -0.005
C  C87  1  0.22177600  0.01991808  0.71207984  1  1.033418  -0.007945  0.1615  -0.008796  3.627506  -0.005  0.104104  -0.00569  3.89825  -0.003  0.118823  -0.00241  3.908183  -0.001  0.146187  0.093391  -0.008688  3.892701  -0.005
C  C88  1  0.04188237  0.52160057  0.21126065  1  0.980268  -0.047322  0.157951  -0.051286  3.58193  -0.033  0.09829  -0.025139  3.854649  -0.014  0.121438  -0.011709  3.855935  -0.007  0.137614  0.081037  -0.035031  3.856433  -0.02
C  C89  1  0.77524434  0.97841733  0.28873765  1  0.975226  -0.048025  0.156532  -0.052021  3.585527  -0.034  0.096718  -0.025906  3.85877  -0.015  0.11967  -0.012164  3.860322  -0.007  0.134803  0.0792  -0.036012  3.860656  -0.02
C  C90  1  0.77956695  0.67190925  0.84203690  1  0.411917  -0.002346  -0.009407  -0.002398  3.748785  -0.002  -0.038889  -0.002004  4.019707  -0.001  -0.036604  -0.001527  4.037769  -0.001  0.001939  -0.040983  -0.001867  4.008997  -0.001
C  C91  1  0.29365628  0.82822107  0.65780890  1  0.457912  -0.002981  -0.00761  -0.003063  3.747727  -0.002  -0.037628  -0.002452  4.018579  -0.001  -0.035755  -0.002159  4.037222  -0.001  0.004029  -0.038434  -0.001581  4.005593  -0.001
C  C92  1  0.21786815  0.33009854  0.15399725  1  0.416577  -0.008978  -0.004999  -0.008949  3.711569  -0.007  -0.037359  -0.005  3.983851  -0.003  -0.032839  -0.004052  3.998875  -0.003  0.003018  -0.041089  -0.004153  3.976016  -0.002
C  C93  1  0.70193873  0.17017539  0.34570297  1  0.470716  -0.009778  -0.00498  -0.009789  3.715758  -0.007  -0.037565  -0.005445  3.988926  -0.003  -0.033369  -0.004728  4.004568  -0.003  0.001905  -0.039998  -0.003671  3.978774  -0.002
C  C94  1  0.74500662  0.65838794  0.75347324  1  0.354311  0.002494  -0.06199  0.002045  3.666971  0.002  -0.100003  0.000233  3.924622  0.0  -0.098968  0.000223  3.943636  0.0  0.004969  -0.100995  2e-06  3.91275  0.0
C  C95  1  0.15723350  0.84156963  0.74654026  1  0.300813  0.002583  -0.064428  0.002107  3.669026  0.002  -0.102328  8e-05  3.92705  0.0  -0.101346  0.000268  3.946628  0.001  0.00305  -0.103105  -0.000112  3.913724  0.0
C  C96  1  0.25239492  0.34241747  0.24270112  1  0.423598  0.01242  -0.060182  0.010337  3.666205  0.009  -0.09954  0.00261  3.927941  0.003  -0.098037  0.001761  3.944489  0.002  0.003286  -0.101276  0.002381  3.918534  0.002
C  C97  1  0.83780858  0.15779194  0.25712975  1  0.333608  0.012818  -0.061501  0.010655  3.67286  0.009  -0.10111  0.002591  3.93507  0.003  -0.099664  0.001846  3.952299  0.002  0.003146  -0.10268  0.002463  3.924334  0.002
N  N98  1  0.90903056  0.56030535  0.86251156  1  -1.183691  -0.013226  -0.304914  -0.013888  3.203007  -0.011  -0.260041  -0.009551  3.492301  -0.007  -0.27712  -0.00805  3.505974  -0.005  -0.315732  -0.24911  -0.011615  3.48381  -0.008
N  N99  1  0.33207074  0.93981320  0.63743616  1  -1.180033  -0.01265  -0.305804  -0.013372  3.206511  -0.011  -0.260651  -0.009264  3.495981  -0.006  -0.277371  -0.007678  3.50995  -0.005  -0.315712  -0.249525  -0.011025  3.486387  -0.008
N  N100  1  0.08691474  0.44276963  0.13432085  1  -1.146641  -0.02199  -0.298667  -0.022618  3.348259  -0.016  -0.25352  -0.018053  3.653161  -0.013  -0.273369  -0.014088  3.664893  -0.01  -0.364439  -0.24167  -0.023433  3.645758  -0.017
N  N101  1  0.66417604  0.05736590  0.36552040  1  -1.138563  -0.021206  -0.299613  -0.021835  3.349395  -0.016  -0.253629  -0.017761  3.654024  -0.013  -0.272969  -0.013506  3.666287  -0.009  -0.363468  -0.241724  -0.023014  3.645611  -0.017
N  N102  1  0.85580803  0.53520325  0.71952230  1  -1.272914  -0.001507  -0.095434  -0.001827  3.601198  -0.002  -0.004205  -0.001239  3.808026  -0.001  -0.02068  -0.000935  3.835379  -0.001  -0.222778  0.006827  -0.001667  3.789804  -0.001
N  N103  1  0.11123225  0.96461959  0.78065595  1  -1.276457  -0.00181  -0.097567  -0.002276  3.604624  -0.002  -0.006024  -0.001466  3.811728  -0.001  -0.022421  -0.001133  3.83931  -0.001  -0.223299  0.004712  -0.001837  3.793046  -0.001
N  N104  1  0.14119015  0.46463367  0.27850058  1  -1.271684  -0.005177  -0.094279  -0.004703  3.606337  -0.003  -0.005113  -0.004453  3.816102  -0.003  -0.02023  -0.002499  3.839633  -0.002  -0.226642  0.004904  -0.006085  3.801066  -0.003
N  N105  1  0.88503453  0.03541539  0.22151401  1  -1.288065  -0.005475  -0.092738  -0.005044  3.607444  -0.003  -0.003501  -0.004723  3.817185  -0.003  -0.018561  -0.002704  3.840959  -0.002  -0.224999  0.006136  -0.0065  3.801894  -0.004
O  O106  1  0.42987393  0.92233510  0.40929512  1  -1.121728  -0.021899  -0.509985  -0.02093  2.100895  -0.023  -0.465562  -0.00308  2.360453  -0.007  -0.500794  0.002136  2.35602  -0.001  -0.299471  -0.439873  -0.003367  2.361357  -0.009
O  O107  1  0.76183724  0.57769604  0.09054299  1  -1.112889  -0.021653  -0.509381  -0.020962  2.099147  -0.023  -0.465809  -0.003019  2.358846  -0.007  -0.502417  0.001055  2.354798  -0.002  -0.298891  -0.439452  -0.002587  2.359922  -0.008
O  O108  1  0.58179620  0.08348809  0.57804488  1  -1.121192  -0.015258  -0.508859  -0.014051  2.109268  -0.017  -0.464927  -0.000498  2.370983  -0.005  -0.500765  0.003079  2.366769  0.001  -0.300888  -0.438827  0.001337  2.372011  -0.004
O  O109  1  0.24312374  0.41682337  0.92206180  1  -1.114215  -0.015511  -0.507719  -0.014555  2.110583  -0.018  -0.463721  -0.00074  2.372596  -0.005  -0.500802  0.001648  2.36867  -0.001  -0.299725  -0.436783  0.002309  2.373723  -0.003
O  O110  1  0.30496860  0.16568203  0.49999314  1  -1.117758  -0.014561  -0.509784  -0.013467  2.144839  -0.015  -0.466533  0.003425  2.424809  0.0  -0.502171  0.007646  2.422673  0.006  -0.29711  -0.440285  0.004141  2.424083  0.0
O  O111  1  0.97077387  0.33446167  0.99991648  1  -1.115234  -0.016678  -0.512511  -0.015484  2.147499  -0.017  -0.468171  0.002357  2.426841  -0.001  -0.504631  0.006623  2.4247  0.005  -0.298568  -0.441406  0.004147  2.427052  0.0
O  O112  1  0.70363004  0.84026336  0.48941951  1  -1.113721  -0.017897  -0.507815  -0.016634  2.158455  -0.019  -0.463123  0.000709  2.437193  -0.003  -0.499847  0.006086  2.436431  0.005  -0.296664  -0.436282  -0.000592  2.435417  -0.005
O  O113  1  0.03376315  0.66005590  0.01058562  1  -1.113133  -0.019373  -0.509025  -0.01803  2.15331  -0.02  -0.465424  -5e-05  2.432472  -0.003  -0.502987  0.005087  2.431678  0.004  -0.297615  -0.438287  -0.00088  2.431532  -0.006
