# generated using pymatgen
data_CuH8C12BrN3O2
_symmetry_space_group_name_H-M   'P 1'
_cell_length_a   3.84838507
_cell_length_b   8.57876062
_cell_length_c   17.59478546
_cell_angle_alpha   89.99977156
_cell_angle_beta   90.92063778
_cell_angle_gamma   89.99953458
_symmetry_Int_Tables_number   1
_chemical_formula_structural   CuH8C12BrN3O2
_chemical_formula_sum   'Cu2 H16 C24 Br2 N6 O4'
_cell_volume   580.80584670
_cell_formula_units_Z   2
loop_
 _symmetry_equiv_pos_site_id
 _symmetry_equiv_pos_as_xyz
  1  'x, y, z'
loop_
 _atom_site_type_symbol
 _atom_site_label
 _atom_site_symmetry_multiplicity
 _atom_site_fract_x
 _atom_site_fract_y
 _atom_site_fract_z
 _atom_site_occupancy
 _atom_site_hle17_ddec_charge
 _atom_site_hle17_ddec_spin_density
 _atom_site_hle17_ddec_sum_bond_order
 _atom_site_hle17_magmom
 _atom_site_hse06_10hf_ddec_charge
 _atom_site_hse06_10hf_ddec_spin_density
 _atom_site_hse06_10hf_ddec_sum_bond_order
 _atom_site_hse06_10hf_magmom
 _atom_site_hse06_ddec_charge
 _atom_site_hse06_ddec_spin_density
 _atom_site_hse06_ddec_sum_bond_order
 _atom_site_hse06_magmom
 _atom_site_pbe_cm5_charge
 _atom_site_pbe_ddec_charge
 _atom_site_pbe_ddec_spin_density
 _atom_site_pbe_ddec_sum_bond_order
 _atom_site_pbe_magmom
Cu  Cu0  1  0.69723338  0.16826953  0.76207258  1  0.657208  -0.655951  2.024659  -0.451  0.612625  -0.74913  2.453646  -0.563  0.701594  -0.83214  2.383426  -0.647  0.625729  0.563691  -0.694576  2.497844  -0.512
Cu  Cu1  1  0.69718259  0.83172636  0.26207835  1  0.657127  0.65596  2.024898  0.451  0.612542  0.749142  2.453916  0.563  0.701426  0.832133  2.383695  0.647  0.625703  0.563586  0.694578  2.498117  0.512
H  H2  1  0.97276574  0.27073663  0.91982543  1  0.071151  -0.000724  0.983204  -0.001  0.079146  -0.000813  1.052651  -0.001  0.081367  -0.00064  1.050391  -0.001  0.102544  0.07743  -0.000933  1.054238  -0.001
H  H3  1  0.97272455  0.72925477  0.41983601  1  0.071225  0.000726  0.983178  0.001  0.079173  0.000813  1.052645  0.001  0.081386  0.000639  1.050403  0.001  0.10258  0.077457  0.000932  1.054228  0.001
H  H4  1  0.94439685  0.52143459  0.99562688  1  0.131133  -0.000493  0.967657  -0.001  0.14027  -0.00047  1.025362  -0.001  0.144521  -0.000352  1.022784  0.0  0.114727  0.137091  -0.000549  1.027423  -0.001
H  H5  1  0.94432188  0.47853064  0.49563657  1  0.131234  0.000494  0.967433  0.001  0.140338  0.00047  1.025196  0.001  0.144601  0.000352  1.022588  0.0  0.114695  0.137155  0.000548  1.027281  0.001
H  H6  1  0.65448758  0.75272978  0.93584010  1  0.10159  -0.00046  0.935769  0.0  0.111173  -0.000245  0.99617  0.0  0.114355  -0.000173  0.993141  0.0  0.107746  0.10876  -0.000302  0.998515  0.0
H  H7  1  0.65440796  0.24726368  0.43583429  1  0.101473  0.000457  0.935726  0.0  0.111052  0.000246  0.996156  0.0  0.114231  0.000173  0.993136  0.0  0.107709  0.108639  0.000302  0.998501  0.0
H  H8  1  0.39043217  0.72518013  0.80463540  1  0.11362  -0.000992  0.971496  -0.001  0.119953  -0.001015  1.039967  -0.001  0.123931  -0.000739  1.037312  -0.001  0.09997  0.117035  -0.001231  1.041982  -0.001
H  H9  1  0.39036429  0.27482922  0.30464042  1  0.113688  0.000994  0.971413  0.001  0.120016  0.001015  1.039934  0.001  0.124  0.000739  1.037254  0.001  0.10003  0.117061  0.001231  1.041989  0.001
H  H10  1  0.26151670  0.06605489  0.49959655  1  0.113266  -0.000272  0.957743  -0.001  0.119383  -0.000258  1.025473  -0.001  0.12335  -0.000155  1.022852  -0.001  0.104556  0.116559  -0.00036  1.027268  -0.001
H  H11  1  0.26149416  0.93395096  0.99959680  1  0.113276  0.000267  0.957723  0.001  0.11941  0.000259  1.025437  0.001  0.12337  0.000154  1.022833  0.001  0.104586  0.116586  0.000361  1.02723  0.001
H  H12  1  0.45924515  0.78816009  0.48845668  1  0.08705  -0.000272  0.966687  0.0  0.097948  1.9e-05  1.028488  0.0  0.100037  3.2e-05  1.027339  0.0  0.102395  0.096319  1e-06  1.029514  0.0
H  H13  1  0.45926279  0.21184405  0.98846765  1  0.087125  0.000273  0.966758  0.0  0.098034  -1.9e-05  1.028517  0.0  0.100116  -3.2e-05  1.027374  0.0  0.102443  0.096406  -1e-06  1.029544  0.0
H  H14  1  0.79161716  0.66759158  0.59965859  1  0.12838  -0.000462  0.938334  0.0  0.136551  -0.000511  0.996007  -0.001  0.140596  -0.00037  0.993604  0.0  0.117044  0.133522  -0.000622  0.998013  -0.001
H  H15  1  0.79158412  0.33241115  0.09966941  1  0.12828  0.000469  0.938483  0.0  0.136447  0.000511  0.996167  0.001  0.140484  0.00037  0.993764  0.0  0.11699  0.133422  0.000622  0.998159  0.001
H  H16  1  0.90676182  0.82965863  0.71415195  1  0.087706  -0.000931  0.95562  -0.001  0.092579  -0.000954  1.026352  -0.001  0.095359  -0.000735  1.023282  -0.001  0.110402  0.090429  -0.001115  1.028587  -0.001
H  H17  1  0.90672189  0.17034280  0.21416019  1  0.087574  0.000926  0.955735  0.001  0.09258  0.000954  1.026371  0.001  0.095356  0.000735  1.023308  0.001  0.110388  0.090431  0.001115  1.028604  0.001
C  C18  1  0.84318993  0.37477060  0.89796052  1  0.115739  0.006172  3.709809  0.006  0.086097  0.000316  3.965262  0.001  0.093292  0.00151  3.98636  0.002  0.039563  0.081723  -0.000618  3.951446  0.0
C  C19  1  0.84314830  0.62522022  0.39797073  1  0.115491  -0.00618  3.709951  -0.006  0.08592  -0.000317  3.965399  -0.001  0.09311  -0.001509  3.986509  -0.002  0.039475  0.081548  0.000619  3.951579  0.0
C  C20  1  0.82682849  0.51310280  0.93907776  1  -0.103346  -0.009586  3.676015  -0.01  -0.117886  -0.003966  3.922606  -0.004  -0.123978  -0.003757  3.941609  -0.004  -0.073665  -0.113882  -0.004019  3.909899  -0.005
C  C21  1  0.82677183  0.48688541  0.43908302  1  -0.103537  0.009585  3.675866  0.01  -0.118038  0.003965  3.922392  0.004  -0.12413  0.003756  3.941405  0.004  -0.073621  -0.114036  0.004018  3.909687  0.005
C  C22  1  0.66635659  0.64228152  0.90553000  1  0.023237  0.008911  3.671747  0.008  0.006755  0.002548  3.918885  0.002  0.011942  0.00289  3.933404  0.003  -0.055038  0.003239  0.002242  3.909251  0.002
C  C23  1  0.66630048  0.35770981  0.40552754  1  0.023585  -0.0089  3.671625  -0.008  0.007061  -0.002549  3.918834  -0.002  0.012244  -0.002889  3.933368  -0.003  -0.055053  0.003551  -0.002241  3.909196  -0.002
C  C24  1  0.52200045  0.62807953  0.83276243  1  -0.108303  -0.007989  3.687282  -0.008  -0.128749  -0.003189  3.930425  -0.003  -0.134463  -0.002988  3.950102  -0.003  -0.072245  -0.124947  -0.003303  3.917321  -0.003
C  C25  1  0.52194106  0.37193266  0.33276618  1  -0.108388  0.007982  3.688012  0.008  -0.128927  0.003189  3.931069  0.003  -0.134649  0.002986  3.950755  0.003  -0.072212  -0.125091  0.003302  3.917993  0.003
C  C26  1  0.54272156  0.48512077  0.79568333  1  0.111848  0.006583  3.714691  0.007  0.112803  0.00097  3.954409  0.002  0.117003  0.001728  3.975059  0.003  0.111975  0.11005  0.000356  3.941093  0.001
C  C27  1  0.54264833  0.51489049  0.29569468  1  0.111534  -0.006591  3.715457  -0.007  0.112766  -0.00097  3.95485  -0.002  0.116969  -0.001727  3.97551  -0.002  0.111994  0.109996  -0.000355  3.94153  -0.001
C  C28  1  0.38282237  0.45975171  0.71818128  1  0.533619  0.002968  3.832008  0.004  0.497329  -0.000765  4.116763  0.001  0.528765  -0.00033  4.116583  0.001  0.237783  0.476098  -0.001007  4.116704  0.001
C  C29  1  0.38276945  0.54027352  0.21819214  1  0.533707  -0.002958  3.832103  -0.004  0.497312  0.000765  4.116856  -0.001  0.528737  0.000329  4.116697  -0.001  0.237914  0.476121  0.001006  4.116733  -0.001
C  C30  1  0.35943073  0.25588119  0.62191744  1  0.533408  0.003161  3.844026  0.004  0.495531  -0.000572  4.131631  0.001  0.526818  -0.000155  4.131882  0.001  0.237047  0.474441  -0.000785  4.131287  0.001
C  C31  1  0.35939721  0.74412740  0.12192520  1  0.533376  -0.00315  3.844308  -0.004  0.495541  0.000573  4.131749  -0.001  0.526825  0.000155  4.13201  -0.001  0.237122  0.47445  0.000784  4.131395  -0.001
C  C32  1  0.47966982  0.09067186  0.61191886  1  0.105856  0.006358  3.725996  0.007  0.108194  0.000877  3.965213  0.002  0.111447  0.001607  3.986898  0.002  0.109322  0.105958  0.000274  3.951297  0.001
C  C33  1  0.47964118  0.90932943  0.11191894  1  0.105756  -0.006359  3.726172  -0.007  0.108192  -0.000877  3.965203  -0.002  0.111443  -0.001606  3.986893  -0.002  0.109267  0.105957  -0.000272  3.951286  -0.001
C  C34  1  0.40691172  0.00880611  0.54535015  1  -0.111106  -0.00688  3.708553  -0.007  -0.132032  -0.002241  3.953255  -0.002  -0.137164  -0.002251  3.973316  -0.002  -0.074517  -0.128544  -0.00219  3.939695  -0.002
C  C35  1  0.40691000  0.99119829  0.04535025  1  -0.111044  0.006897  3.708423  0.007  -0.132029  0.002241  3.953116  0.002  -0.137165  0.002251  3.973175  0.002  -0.074538  -0.128536  0.00219  3.939552  0.002
C  C36  1  0.51617112  0.85444559  0.53994005  1  -0.006883  0.008527  3.709551  0.008  -0.022453  0.002606  3.955212  0.002  -0.019573  0.002866  3.97318  0.003  -0.064099  -0.024301  0.002336  3.943129  0.002
C  C37  1  0.51615779  0.14555967  0.03994680  1  -0.00704  -0.008528  3.709575  -0.008  -0.022597  -0.002606  3.955251  -0.002  -0.019708  -0.002865  3.973215  -0.003  -0.064189  -0.024443  -0.002336  3.943166  -0.002
C  C38  1  0.69737104  0.78714512  0.60070829  1  -0.08018  -0.009828  3.663352  -0.01  -0.093423  -0.004078  3.909284  -0.005  -0.098137  -0.003839  3.926808  -0.004  -0.067628  -0.090412  -0.004132  3.897629  -0.005
C  C39  1  0.69731190  0.21286256  0.10071859  1  -0.079971  0.009801  3.663668  0.01  -0.093226  0.004077  3.909706  0.005  -0.097922  0.003839  3.92721  0.004  -0.067481  -0.090214  0.004132  3.898046  0.005
C  C40  1  0.76277877  0.87667750  0.66558038  1  0.145293  0.006683  3.64611  0.007  0.114363  0.000504  3.902344  0.001  0.12313  0.001711  3.920787  0.003  0.053496  0.108874  -0.00047  3.890386  0.0
C  C41  1  0.76275300  0.12332245  0.16558539  1  0.145355  -0.006666  3.646286  -0.007  0.114282  -0.000506  3.902556  -0.001  0.123052  -0.001712  3.920996  -0.003  0.053385  0.108773  0.00047  3.890655  0.0
Br  Br42  1  0.12906115  0.02261857  0.83465954  1  -0.483662  -0.123478  1.08162  -0.115  -0.476801  -0.075875  1.419547  -0.073  -0.507252  -0.059129  1.388405  -0.058  -0.245659  -0.458199  -0.085712  1.441717  -0.08
Br  Br43  1  0.12895818  0.97734941  0.33466185  1  -0.483619  0.123496  1.081855  0.115  -0.476788  0.07589  1.419843  0.073  -0.507208  0.059147  1.388668  0.058  -0.245665  -0.458176  0.085728  1.442004  0.08
N  N44  1  0.70419770  0.36097891  0.82783145  1  -0.305474  -0.081903  3.362261  -0.1  -0.254067  -0.060669  3.648237  -0.078  -0.285376  -0.052116  3.674321  -0.071  -0.344908  -0.236391  -0.064644  3.633254  -0.081
N  N45  1  0.70415323  0.63902459  0.32784104  1  -0.305147  0.081904  3.36232  0.1  -0.253836  0.060665  3.648165  0.078  -0.285114  0.052118  3.674183  0.071  -0.344935  -0.236149  0.064643  3.633179  0.081
N  N46  1  0.45106587  0.31220125  0.69222852  1  -0.560828  -0.115961  3.243881  -0.14  -0.534291  -0.083485  3.577766  -0.107  -0.583558  -0.069911  3.591184  -0.094  -0.396791  -0.504981  -0.090382  3.571421  -0.112
N  N47  1  0.45103642  0.68780182  0.19223129  1  -0.560711  0.115927  3.244393  0.14  -0.5341  0.083463  3.578171  0.107  -0.58333  0.069896  3.591541  0.094  -0.39673  -0.504796  0.090362  3.571802  0.112
N  N48  1  0.65539607  0.02500568  0.67103634  1  -0.307484  -0.08037  3.349779  -0.098  -0.254591  -0.059354  3.631021  -0.077  -0.286144  -0.050973  3.657214  -0.069  -0.340234  -0.236672  -0.063255  3.616006  -0.079
N  N49  1  0.65538143  0.97498758  0.17104037  1  -0.307392  0.080372  3.349693  0.098  -0.254501  0.059357  3.630895  0.077  -0.286036  0.050979  3.657059  0.069  -0.340091  -0.236577  0.06326  3.615874  0.079
O  O50  1  0.21115156  0.56317964  0.68622150  1  -0.496606  -0.018054  1.928378  -0.022  -0.458451  -0.00915  2.147134  -0.012  -0.48133  -0.004949  2.143809  -0.007  -0.267251  -0.441578  -0.01352  2.148318  -0.017
O  O51  1  0.21109303  0.43684173  0.18623138  1  -0.496706  0.018053  1.927903  0.022  -0.458628  0.009153  2.146845  0.012  -0.481505  0.004951  2.143519  0.007  -0.267454  -0.441765  0.013524  2.148006  0.017
O  O52  1  0.19801402  0.32368982  0.57037009  1  -0.49625  -0.01744  1.921823  -0.021  -0.457966  -0.00881  2.135933  -0.011  -0.480547  -0.004699  2.131491  -0.006  -0.272262  -0.441325  -0.013052  2.137865  -0.016
O  O53  1  0.19798214  0.67631388  0.07037401  1  -0.496233  0.017429  1.921732  0.021  -0.457987  0.008808  2.135796  0.011  -0.480567  0.004696  2.131362  0.006  -0.272314  -0.441345  0.013048  2.137719  0.016
