# generated using pymatgen
data_CuH8C7(NO2)2
_symmetry_space_group_name_H-M   'P 1'
_cell_length_a   4.82548897
_cell_length_b   13.57376749
_cell_length_c   14.52226103
_cell_angle_alpha   112.47150543
_cell_angle_beta   89.99819209
_cell_angle_gamma   89.99560722
_symmetry_Int_Tables_number   1
_chemical_formula_structural   CuH8C7(NO2)2
_chemical_formula_sum   'Cu4 H32 C28 N8 O16'
_cell_volume   878.98348702
_cell_formula_units_Z   4
loop_
 _symmetry_equiv_pos_site_id
 _symmetry_equiv_pos_as_xyz
  1  'x, y, z'
loop_
 _atom_site_type_symbol
 _atom_site_label
 _atom_site_symmetry_multiplicity
 _atom_site_fract_x
 _atom_site_fract_y
 _atom_site_fract_z
 _atom_site_occupancy
 _atom_site_hle17_ddec_charge
 _atom_site_hle17_ddec_spin_density
 _atom_site_hle17_ddec_sum_bond_order
 _atom_site_hle17_magmom
 _atom_site_hse06_10hf_ddec_charge
 _atom_site_hse06_10hf_ddec_spin_density
 _atom_site_hse06_10hf_ddec_sum_bond_order
 _atom_site_hse06_10hf_magmom
 _atom_site_hse06_ddec_charge
 _atom_site_hse06_ddec_spin_density
 _atom_site_hse06_ddec_sum_bond_order
 _atom_site_hse06_magmom
 _atom_site_pbe_cm5_charge
 _atom_site_pbe_ddec_charge
 _atom_site_pbe_ddec_spin_density
 _atom_site_pbe_ddec_sum_bond_order
 _atom_site_pbe_magmom
Cu  Cu0  1  0.92618725  0.45826318  0.58123708  1  0.871563  0.49354  1.825924  0.365  0.872932  0.723085  2.215863  0.582  0.98515  0.840433  2.117664  0.695  0.712216  0.801515  0.497418  2.276505  0.396
Cu  Cu1  1  0.42610534  0.04174629  0.91875408  1  0.871555  0.492808  1.826491  0.364  0.872767  0.722918  2.216853  0.582  0.987803  0.840378  2.114518  0.695  0.712332  0.801402  0.496587  2.27747  0.395
Cu  Cu2  1  0.07377907  0.54174206  0.41877444  1  0.871568  -0.49351  1.82579  -0.365  0.872604  -0.723066  2.216191  -0.582  0.984935  -0.840402  2.117779  -0.695  0.712131  0.801227  -0.497381  2.276784  -0.396
Cu  Cu3  1  0.57375115  0.95826690  0.08124031  1  0.87144  -0.492849  1.825912  -0.364  0.872739  -0.722901  2.215717  -0.581  0.985145  -0.840358  2.117399  -0.695  0.712132  0.801404  -0.496636  2.27613  -0.395
H  H4  1  0.07985214  0.34677581  0.70766894  1  0.078866  0.000726  0.960481  0.001  0.08118  0.000828  1.036553  0.001  0.082908  0.000665  1.034871  0.001  0.113599  0.079547  0.000709  1.038174  0.001
H  H5  1  0.57987852  0.15319537  0.79232183  1  0.079046  0.000725  0.960212  0.001  0.081322  0.000828  1.036327  0.001  0.083045  0.000665  1.034669  0.001  0.113646  0.079694  0.000708  1.037954  0.001
H  H6  1  0.92014735  0.65320471  0.29232619  1  0.079047  -0.000726  0.960369  -0.001  0.081326  -0.000827  1.0365  -0.001  0.083042  -0.000665  1.034837  -0.001  0.113691  0.079701  -0.000708  1.038124  -0.001
H  H7  1  0.42013754  0.84679630  0.20767246  1  0.079069  -0.000725  0.960439  -0.001  0.081362  -0.000827  1.036526  -0.001  0.083084  -0.000665  1.034855  -0.001  0.113674  0.079731  -0.000707  1.03815  -0.001
H  H8  1  0.02046473  0.16233653  0.70666652  1  0.1024  0.000303  0.961533  0.0  0.110499  0.000394  1.023282  0.0  0.112502  0.000302  1.024406  0.0  0.103935  0.108975  0.000345  1.022718  0.0
H  H9  1  0.52045309  0.33763683  0.79332289  1  0.102475  0.000304  0.961549  0.0  0.110585  0.000394  1.023273  0.0  0.11258  0.000302  1.024408  0.0  0.103961  0.109061  0.000345  1.022694  0.0
H  H10  1  0.97953268  0.83763202  0.29331332  1  0.102515  -0.000302  0.961309  0.0  0.110468  -0.000394  1.023216  0.0  0.112461  -0.000302  1.024358  0.0  0.103876  0.108947  -0.000345  1.022638  0.0
H  H11  1  0.47953395  0.66235804  0.20668287  1  0.102431  -0.000302  0.961437  0.0  0.110506  -0.000394  1.023222  0.0  0.112505  -0.000302  1.024359  0.0  0.103875  0.108977  -0.000344  1.02266  0.0
H  H12  1  0.76886228  0.02625099  0.56376741  1  0.096253  0.000285  0.957775  0.0  0.10765  8e-05  1.017835  0.0  0.109633  3.7e-05  1.016479  0.0  0.106888  0.106046  8.7e-05  1.019088  0.0
H  H13  1  0.26888395  0.47374115  0.93624057  1  0.096482  0.000285  0.957691  0.0  0.107794  7.9e-05  1.017813  0.0  0.109778  3.6e-05  1.016448  0.0  0.106952  0.106189  8.7e-05  1.019059  0.0
H  H14  1  0.23112062  0.97372552  0.43620357  1  0.0964  -0.000286  0.957834  0.0  0.107724  -8e-05  1.017894  0.0  0.109718  -3.7e-05  1.016549  0.0  0.106907  0.106107  -8.7e-05  1.019156  0.0
H  H15  1  0.73110310  0.52625134  0.06377742  1  0.096272  -0.000285  0.957749  0.0  0.107629  -8e-05  1.017822  0.0  0.109596  -3.7e-05  1.016512  0.0  0.106929  0.106062  -8.7e-05  1.019034  0.0
H  H16  1  0.60183572  0.07817456  0.42336048  1  0.118878  0.000166  0.94922  0.0  0.127192  0.00026  1.01191  0.0  0.130767  0.000214  1.009973  0.0  0.109933  0.124399  0.00022  1.013655  0.0
H  H17  1  0.10177033  0.42182871  0.07664272  1  0.118782  0.000165  0.949182  0.0  0.127099  0.00026  1.011861  0.0  0.130678  0.000214  1.009912  0.0  0.109902  0.124307  0.000219  1.013618  0.0
H  H18  1  0.39819899  0.92182108  0.57660768  1  0.119068  -0.000165  0.949434  0.0  0.127394  -0.00026  1.012073  0.0  0.13098  -0.000214  1.010117  0.0  0.109971  0.124598  -0.00022  1.013831  0.0
H  H19  1  0.89824366  0.57814704  0.92337343  1  0.118856  -0.000165  0.9492  0.0  0.127208  -0.00026  1.01182  0.0  0.130789  -0.000215  1.009874  0.0  0.109866  0.12441  -0.000219  1.013567  0.0
H  H20  1  0.50352462  0.33707954  0.43920679  1  0.119041  -0.000467  0.930974  -0.001  0.130642  -0.000344  0.999827  0.0  0.132144  -0.000329  0.999324  0.0  0.104931  0.129012  -0.000268  1.000936  0.0
H  H21  1  0.00362673  0.16293449  0.06079302  1  0.119034  -0.000465  0.931179  -0.001  0.130869  -0.000344  0.999778  0.0  0.132352  -0.000329  0.99933  0.0  0.105046  0.129245  -0.000268  1.000884  0.0
H  H22  1  0.49645621  0.66291452  0.56078973  1  0.119017  0.000467  0.931155  0.001  0.130674  0.000344  0.999926  0.0  0.132176  0.000329  0.999427  0.0  0.104977  0.129049  0.000269  1.001034  0.0
H  H23  1  0.99645564  0.83707393  0.93922308  1  0.119045  0.000465  0.930918  0.001  0.130693  0.000344  0.999737  0.0  0.132201  0.000328  0.999207  0.0  0.104982  0.129067  0.000268  1.000845  0.0
H  H24  1  0.56691703  0.20483476  0.35153987  1  0.107484  -0.00057  0.948304  -0.001  0.120475  -0.000533  1.016304  -0.001  0.122685  -0.000453  1.015063  -0.001  0.100791  0.118724  -0.000422  1.017148  0.0
H  H25  1  0.06684739  0.29518574  0.14848499  1  0.107625  -0.000569  0.948001  -0.001  0.120578  -0.000533  1.016152  -0.001  0.122797  -0.000454  1.014903  -0.001  0.100907  0.118831  -0.000422  1.016998  0.0
H  H26  1  0.43314255  0.79516409  0.64845766  1  0.107413  0.00057  0.948317  0.001  0.120479  0.000533  1.016218  0.001  0.122706  0.000453  1.014952  0.001  0.100813  0.118728  0.000422  1.017067  0.0
H  H27  1  0.93312100  0.70484500  0.85152185  1  0.107449  0.000569  0.948293  0.001  0.12051  0.000534  1.016213  0.001  0.122722  0.000454  1.014963  0.001  0.100799  0.118759  0.000422  1.017056  0.0
H  H28  1  0.83336802  0.32873169  0.30319041  1  0.052782  0.001616  0.93197  0.002  0.061202  0.001622  1.002128  0.002  0.055455  0.001375  1.006048  0.001  0.098122  0.066406  0.001207  0.998734  0.001
H  H29  1  0.33335172  0.17127423  0.19681339  1  0.052738  0.001617  0.931844  0.002  0.061179  0.001624  1.001998  0.002  0.055436  0.001377  1.005897  0.001  0.098121  0.066392  0.001208  0.998592  0.001
H  H30  1  0.16663767  0.67132537  0.69684166  1  0.052745  -0.001618  0.931944  -0.002  0.061049  -0.001625  1.002209  -0.002  0.0553  -0.001379  1.006137  -0.001  0.098099  0.066259  -0.00121  0.9988  -0.001
H  H31  1  0.66667885  0.82868394  0.80314554  1  0.052691  -0.00162  0.931979  -0.002  0.0611  -0.00163  1.00216  -0.002  0.055384  -0.001383  1.00607  -0.001  0.098086  0.066279  -0.001211  0.998788  -0.001
H  H32  1  0.06784999  0.25147392  0.34315948  1  0.038244  -0.000591  0.938602  -0.001  0.051999  -0.000443  1.005265  -0.001  0.050947  -0.000287  1.00541  0.0  0.086989  0.052036  -0.000431  1.005859  -0.001
H  H33  1  0.56791009  0.24848116  0.15681863  1  0.03823  -0.000588  0.938587  -0.001  0.051991  -0.00044  1.005283  -0.001  0.05098  -0.000286  1.005361  0.0  0.087055  0.052024  -0.000428  1.005885  -0.001
H  H34  1  0.93217642  0.74856160  0.65684425  1  0.038083  0.000592  0.938759  0.001  0.051771  0.000444  1.005457  0.001  0.050789  0.000288  1.005526  0.0  0.086928  0.051809  0.000431  1.006057  0.001
H  H35  1  0.43214949  0.75151610  0.84318660  1  0.038176  0.00059  0.938657  0.001  0.051936  0.000443  1.005356  0.001  0.050969  0.000287  1.005401  0.0  0.086969  0.051975  0.00043  1.005944  0.001
C  C36  1  0.97444477  0.28392373  0.64698438  1  0.120824  -0.005071  3.720732  -0.006  0.091073  -0.001241  3.978476  -0.002  0.099611  -0.002105  4.000278  -0.003  0.03845  0.085471  -0.000551  3.964601  -0.001
C  C37  1  0.47447845  0.21605687  0.85300976  1  0.120855  -0.005061  3.720459  -0.006  0.091127  -0.001244  3.978164  -0.002  0.09966  -0.002106  4.000184  -0.003  0.038556  0.085518  -0.000552  3.964297  -0.001
C  C38  1  0.02555057  0.71606077  0.35300391  1  0.120809  0.005093  3.720702  0.006  0.091064  0.001242  3.978356  0.002  0.099599  0.002106  4.00017  0.003  0.038447  0.085461  0.000552  3.964494  0.001
C  C39  1  0.52554589  0.78393879  0.14699422  1  0.120777  0.00507  3.720574  0.006  0.090995  0.001243  3.978296  0.002  0.099529  0.002106  4.000112  0.003  0.038423  0.085388  0.000552  3.964433  0.001
C  C40  1  0.93868332  0.18207774  0.64603442  1  -0.13246  0.006826  3.758308  0.007  -0.143803  0.003615  4.008745  0.004  -0.152439  0.003539  4.031374  0.004  -0.09181  -0.138157  0.002745  3.993661  0.003
C  C41  1  0.43871140  0.31790259  0.85396481  1  -0.132638  0.006807  3.758345  0.007  -0.143979  0.003613  4.008743  0.004  -0.152597  0.003538  4.031339  0.004  -0.091935  -0.138307  0.00274  3.993623  0.003
C  C42  1  0.06131824  0.81789240  0.35394117  1  -0.132645  -0.006847  3.758298  -0.007  -0.143859  -0.003612  4.008681  -0.004  -0.152503  -0.003538  4.031333  -0.004  -0.091784  -0.138188  -0.002744  3.993562  -0.003
C  C43  1  0.56132745  0.68209149  0.14604962  1  -0.132599  -0.006819  3.758026  -0.007  -0.143911  -0.003612  4.008436  -0.004  -0.152553  -0.003538  4.031069  -0.004  -0.091742  -0.138253  -0.002739  3.993359  -0.003
C  C44  1  0.79853337  0.10660369  0.56582258  1  -0.002125  -0.006626  3.734026  -0.007  -0.021671  -0.003074  3.982619  -0.003  -0.016209  -0.003262  4.00035  -0.003  -0.068595  -0.025437  -0.002293  3.971043  -0.002
C  C45  1  0.29855193  0.39338816  0.93417810  1  -0.002506  -0.006614  3.734125  -0.007  -0.022015  -0.003075  3.982764  -0.003  -0.016548  -0.003263  4.00047  -0.003  -0.068683  -0.025764  -0.002291  3.971168  -0.002
C  C46  1  0.20147234  0.89337681  0.43415120  1  -0.002094  0.006653  3.734041  0.007  -0.021539  0.003076  3.982585  0.003  -0.016104  0.003264  4.000308  0.003  -0.068523  -0.025285  0.002295  3.970999  0.002
C  C47  1  0.70148485  0.60660592  0.06583564  1  -0.001925  0.006622  3.733871  0.007  -0.021409  0.003074  3.982465  0.003  -0.015953  0.003261  4.000198  0.003  -0.06859  -0.025213  0.002289  3.970881  0.002
C  C48  1  0.70438182  0.13517626  0.48888663  1  -0.154563  0.007635  3.678582  0.008  -0.172819  0.004132  3.920557  0.005  -0.18132  0.004015  3.939238  0.005  -0.080084  -0.167445  0.003124  3.908682  0.004
C  C49  1  0.20437442  0.36483440  0.01112640  1  -0.154368  0.007617  3.678473  0.008  -0.172575  0.00413  3.920307  0.005  -0.181052  0.004012  3.938912  0.005  -0.080041  -0.167205  0.003117  3.908443  0.004
C  C50  1  0.29564875  0.86482098  0.51109932  1  -0.155068  -0.007663  3.678683  -0.008  -0.173294  -0.004134  3.920637  -0.005  -0.181797  -0.004019  3.939309  -0.005  -0.080253  -0.167924  -0.003125  3.908778  -0.004
C  C51  1  0.79565822  0.63516287  0.98888641  1  -0.15496  -0.007628  3.678526  -0.008  -0.17316  -0.004131  3.920498  -0.005  -0.181663  -0.004015  3.939165  -0.005  -0.08019  -0.167787  -0.003118  3.908644  -0.004
C  C52  1  0.74828922  0.23889795  0.49345689  1  0.29726  -0.00486  3.66057  -0.006  0.306272  -0.001181  3.89597  -0.002  0.31951  -0.002111  3.914784  -0.003  0.131083  0.296877  -0.000433  3.884219  -0.001
C  C53  1  0.24830475  0.26111668  0.00655641  1  0.297323  -0.004846  3.660392  -0.005  0.306392  -0.001182  3.895782  -0.002  0.319664  -0.002111  3.914738  -0.003  0.131109  0.29699  -0.000433  3.884053  -0.001
C  C54  1  0.25172269  0.76109771  0.50653882  1  0.297519  0.004882  3.660482  0.006  0.306391  0.001183  3.896037  0.002  0.319643  0.002115  3.914855  0.003  0.131085  0.296988  0.000434  3.88431  0.001
C  C55  1  0.75171959  0.73888536  0.99344846  1  0.297591  0.004856  3.660141  0.005  0.306468  0.001181  3.895718  0.002  0.319718  0.002111  3.914514  0.003  0.131132  0.297066  0.000432  3.883981  0.001
C  C56  1  0.66034599  0.27322971  0.41138268  1  -0.249897  0.003741  3.679785  0.005  -0.303469  0.001877  3.935381  0.003  -0.310389  0.000994  3.947332  0.002  -0.16688  -0.297671  0.001917  3.926855  0.003
C  C57  1  0.16035699  0.22679453  0.08863497  1  -0.250083  0.003722  3.679824  0.005  -0.303992  0.001868  3.935777  0.003  -0.310984  0.000987  3.947843  0.002  -0.167112  -0.298195  0.001907  3.927258  0.003
C  C58  1  0.33967214  0.72677312  0.58861491  1  -0.249959  -0.003743  3.680009  -0.005  -0.303533  -0.001875  3.935536  -0.003  -0.310476  -0.000997  3.94752  -0.002  -0.166977  -0.297733  -0.001917  3.927021  -0.003
C  C59  1  0.83965699  0.77322665  0.91137673  1  -0.249896  -0.003726  3.679556  -0.005  -0.303576  -0.001868  3.935428  -0.003  -0.310484  -0.000992  3.94736  -0.002  -0.16694  -0.297775  -0.001907  3.926892  -0.003
C  C60  1  0.90653007  0.31392962  0.36870110  1  0.155481  -0.000288  3.671995  -0.001  0.111586  0.000558  3.952807  0.0  0.126897  0.000174  3.968466  -0.001  -0.08672  0.09943  0.00062  3.9426  0.0
C  C61  1  0.40651474  0.18607202  0.13130109  1  0.155595  -0.00028  3.671539  -0.001  0.111656  0.000565  3.952574  0.0  0.126983  0.000181  3.968348  -0.001  -0.086755  0.099483  0.000624  3.942396  0.0
C  C62  1  0.09347148  0.68610192  0.63131705  1  0.15573  0.000292  3.671794  0.001  0.112  -0.000561  3.952533  0.0  0.127284  -0.000166  3.968159  0.001  -0.086682  0.099834  -0.000617  3.942352  0.0
C  C63  1  0.59351375  0.81394356  0.86869140  1  0.155602  0.000295  3.671931  0.001  0.111642  -0.000558  3.952957  0.0  0.126898  -0.000164  3.968751  0.001  -0.08671  0.099485  -0.000614  3.942783  0.0
N  N64  1  0.88024349  0.31131081  0.57271602  1  -0.349463  0.049109  3.32605  0.063  -0.301156  0.045062  3.604309  0.061  -0.33598  0.041147  3.624477  0.058  -0.357338  -0.280221  0.034566  3.592794  0.046
N  N65  1  0.38026566  0.18868760  0.92728752  1  -0.349614  0.049025  3.326208  0.063  -0.301214  0.045042  3.604412  0.061  -0.3367  0.041137  3.624632  0.058  -0.357444  -0.28028  0.0345  3.592927  0.046
N  N66  1  0.11974978  0.68868167  0.42728820  1  -0.349677  -0.04912  3.326134  -0.063  -0.301226  -0.045053  3.60441  -0.061  -0.33608  -0.041144  3.624565  -0.058  -0.35738  -0.280298  -0.034556  3.592926  -0.046
N  N67  1  0.61973589  0.81131125  0.07271277  1  -0.349669  -0.049009  3.326076  -0.063  -0.301215  -0.045021  3.604274  -0.061  -0.336053  -0.041121  3.624394  -0.058  -0.357345  -0.280299  -0.034483  3.592757  -0.046
N  N68  1  0.51633865  0.51095472  0.72175661  1  0.681598  -0.001945  4.119231  -0.003  0.723311  -0.000704  4.406214  -0.002  0.752635  -0.000644  4.41339  -0.002  0.096784  0.701496  -0.000604  4.40188  -0.002
N  N69  1  0.01638036  0.98904896  0.77823703  1  0.681774  -0.001943  4.119366  -0.003  0.723325  -0.000702  4.406578  -0.002  0.752851  -0.000644  4.413795  -0.002  0.096731  0.701503  -0.000602  4.402264  -0.002
N  N70  1  0.48360074  0.48905131  0.27823935  1  0.681731  0.001945  4.119521  0.003  0.723391  0.000703  4.406498  0.002  0.752736  0.000643  4.41369  0.002  0.096642  0.701564  0.000604  4.402196  0.002
N  N71  1  0.98362741  0.01095310  0.22178506  1  0.681395  0.001943  4.119963  0.003  0.722714  0.000701  4.407372  0.002  0.752253  0.000643  4.414287  0.002  0.096449  0.700898  0.000603  4.403048  0.002
O  O72  1  0.01767791  0.40957819  0.43917461  1  -0.589885  0.024658  2.159395  0.034  -0.588839  0.016224  2.514256  0.025  -0.659679  0.013533  2.515683  0.022  -0.403832  -0.53983  0.012547  2.512477  0.018
O  O73  1  0.51750376  0.09040105  0.06080782  1  -0.589723  0.024596  2.159455  0.034  -0.588753  0.016198  2.514412  0.025  -0.660248  0.013513  2.515767  0.022  -0.403857  -0.539744  0.012529  2.512607  0.018
O  O74  1  0.98232986  0.59044220  0.56085333  1  -0.589832  -0.02469  2.159059  -0.034  -0.588851  -0.016252  2.513857  -0.025  -0.659698  -0.013563  2.515314  -0.022  -0.40373  -0.539838  -0.012577  2.512078  -0.019
O  O75  1  0.48242319  0.90961052  0.93915363  1  -0.589735  -0.024644  2.159509  -0.034  -0.588637  -0.016266  2.514346  -0.025  -0.660189  -0.013577  2.515754  -0.022  -0.403758  -0.539628  -0.012553  2.512524  -0.018
O  O76  1  0.78268079  0.52825213  0.72125644  1  -0.472991  0.035944  1.862958  0.049  -0.470056  0.038266  2.124707  0.056  -0.500053  0.032363  2.113575  0.049  -0.206994  -0.448542  0.03192  2.131464  0.045
O  O77  1  0.28271792  0.97172344  0.77874713  1  -0.472973  0.035899  1.862785  0.049  -0.470124  0.038263  2.124817  0.056  -0.50071  0.032368  2.113399  0.049  -0.207016  -0.448622  0.031871  2.131616  0.045
O  O78  1  0.21726481  0.47172998  0.27873857  1  -0.472944  -0.035937  1.862653  -0.049  -0.470008  -0.03827  2.124492  -0.056  -0.500019  -0.032358  2.113319  -0.049  -0.206924  -0.44852  -0.031921  2.131296  -0.045
O  O79  1  0.71727949  0.02828102  0.22129166  1  -0.473082  -0.03586  1.862805  -0.049  -0.469944  -0.038236  2.12454  -0.056  -0.500016  -0.032333  2.113307  -0.049  -0.206956  -0.448464  -0.031853  2.131287  -0.045
O  O80  1  0.39851514  0.46337022  0.63890879  1  -0.473322  -0.002499  1.854119  -0.002  -0.487619  -0.002401  2.115377  -0.002  -0.508517  -0.002723  2.102744  -0.002  -0.178751  -0.474114  -0.001414  2.124898  -0.001
O  O81  1  0.89851673  0.03666497  0.86107118  1  -0.473392  -0.002494  1.854161  -0.002  -0.487573  -0.002398  2.115451  -0.002  -0.509214  -0.002725  2.102912  -0.002  -0.17865  -0.474083  -0.001411  2.124988  -0.001
O  O82  1  0.60141388  0.53664217  0.36107912  1  -0.473334  0.002497  1.854194  0.002  -0.487582  0.0024  2.115528  0.002  -0.508476  0.002715  2.10282  0.002  -0.178674  -0.474085  0.001415  2.12507  0.001
O  O83  1  0.10143509  0.96333549  0.13894001  1  -0.473243  0.002489  1.854449  0.002  -0.487419  0.002397  2.115846  0.002  -0.508346  0.002713  2.103021  0.002  -0.178672  -0.473958  0.00141  2.125405  0.001
O  O84  1  0.39250156  0.54112579  0.80307995  1  -0.415977  0.003516  1.750192  0.005  -0.40652  0.003967  1.956148  0.005  -0.416219  0.002258  1.94995  0.003  -0.162745  -0.398491  0.004454  1.960224  0.006
O  O85  1  0.89261167  0.95886645  0.69690293  1  -0.416032  0.003513  1.750546  0.005  -0.406442  0.003967  1.956508  0.005  -0.416123  0.002259  1.950184  0.003  -0.162687  -0.398355  0.004448  1.960534  0.006
O  O86  1  0.60741710  0.45888979  0.19690772  1  -0.416103  -0.003518  1.750425  -0.005  -0.406521  -0.003968  1.956306  -0.005  -0.416229  -0.002259  1.950099  -0.003  -0.162649  -0.398437  -0.004454  1.960345  -0.006
O  O87  1  0.10746241  0.04113001  0.30310408  1  -0.415852  -0.003511  1.750441  -0.005  -0.406234  -0.003964  1.956501  -0.005  -0.415996  -0.002256  1.950206  -0.003  -0.162516  -0.398196  -0.004443  1.96056  -0.006
