# generated using pymatgen
data_InH3(CO2)3
_symmetry_space_group_name_H-M   'P 1'
_cell_length_a   6.94865739
_cell_length_b   12.62250687
_cell_length_c   12.62248483
_cell_angle_alpha   120.00019795
_cell_angle_beta   89.99987106
_cell_angle_gamma   89.99998826
_symmetry_Int_Tables_number   1
_chemical_formula_structural   InH3(CO2)3
_chemical_formula_sum   'In6 H18 C18 O36'
_cell_volume   958.78479390
_cell_formula_units_Z   6
loop_
 _symmetry_equiv_pos_site_id
 _symmetry_equiv_pos_as_xyz
  1  'x, y, z'
loop_
 _atom_site_type_symbol
 _atom_site_label
 _atom_site_symmetry_multiplicity
 _atom_site_fract_x
 _atom_site_fract_y
 _atom_site_fract_z
 _atom_site_occupancy
 _atom_site_hle17_bader_spin_density
 _atom_site_hle17_ddec_charge
 _atom_site_hle17_ddec_spin_density
 _atom_site_hle17_ddec_sum_bond_order
 _atom_site_hle17_magmom
 _atom_site_hse06_10hf_bader_spin_density
 _atom_site_hse06_10hf_ddec_charge
 _atom_site_hse06_10hf_ddec_spin_density
 _atom_site_hse06_10hf_ddec_sum_bond_order
 _atom_site_hse06_10hf_magmom
 _atom_site_hse06_bader_spin_density
 _atom_site_hse06_ddec_charge
 _atom_site_hse06_ddec_spin_density
 _atom_site_hse06_ddec_sum_bond_order
 _atom_site_hse06_magmom
 _atom_site_pbe_bader_spin_density
 _atom_site_pbe_cm5_charge
 _atom_site_pbe_ddec_charge
 _atom_site_pbe_ddec_spin_density
 _atom_site_pbe_ddec_sum_bond_order
 _atom_site_pbe_magmom
In  In0  1  0.99440495  0.34461861  0.01895049  1  0  1.687728  0  2.120509  0  0  1.503786  0  2.592455  0  0  1.577591  0  2.533066  0  0  0.780589  1.451617  0  2.632829  0
In  In1  1  0.99439126  0.98104726  0.32566118  1  0  1.687776  0  2.120423  0  0  1.503823  0  2.592396  0  0  1.577617  0  2.53301  0  0  0.780583  1.451646  0  2.632777  0
In  In2  1  0.99439927  0.67433087  0.65538239  1  0  1.687729  0  2.120414  0  0  1.5038  0  2.59236  0  0  1.577607  0  2.53297  0  0  0.780584  1.451628  0  2.632734  0
In  In3  1  0.49439266  0.65538380  0.98104678  1  0  1.687766  0  2.120441  0  0  1.503812  0  2.592389  0  0  1.577622  0  2.533  0  0  0.780625  1.451647  0  2.632779  0
In  In4  1  0.49440059  0.01894874  0.67433210  1  0  1.687685  0  2.120464  0  0  1.503755  0  2.592391  0  0  1.577566  0  2.533001  0  0  0.780584  1.451586  0  2.632768  0
In  In5  1  0.49438683  0.32566421  0.34461360  1  0  1.687757  0  2.120381  0  0  1.503763  0  2.592364  0  0  1.577571  0  2.532977  0  0  0.780581  1.451591  0  2.632761  0
H  H6  1  0.71339224  0.30580780  0.79582184  1  0  0.034856  0  0.949739  0  0  0.041132  0  1.020661  0  0  0.041506  0  1.015605  0  0  0.124417  0.040556  0  1.024458  0
H  H7  1  0.71339285  0.20417785  0.50998717  1  0  0.03485  0  0.949694  0  0  0.041114  0  1.020624  0  0  0.041494  0  1.015563  0  0  0.124411  0.040535  0  1.024427  0
H  H8  1  0.71339242  0.49001627  0.69419595  1  0  0.034765  0  0.949757  0  0  0.041003  0  1.020732  0  0  0.041401  0  1.01565  0  0  0.124379  0.040429  0  1.024531  0
H  H9  1  0.21339176  0.69419305  0.20417897  1  0  0.034796  0  0.949687  0  0  0.041044  0  1.020644  0  0  0.041436  0  1.015568  0  0  0.124386  0.040463  0  1.024443  0
H  H10  1  0.21339692  0.79581934  0.49001339  1  0  0.034791  0  0.949693  0  0  0.041049  0  1.02064  0  0  0.041438  0  1.015569  0  0  0.124398  0.040474  0  1.024442  0
H  H11  1  0.21339446  0.50998824  0.30580985  1  0  0.034771  0  0.949755  0  0  0.041057  0  1.020667  0  0  0.04142  0  1.015624  0  0  0.1244  0.040471  0  1.024474  0
H  H12  1  0.73422762  0.53908559  0.22189825  1  0  0.037073  0  0.931996  0  0  0.04471  0  1.002606  0  0  0.044848  0  0.997468  0  0  0.127994  0.044367  0  1.006358  0
H  H13  1  0.73422595  0.77809722  0.31717950  1  0  0.037074  0  0.931997  0  0  0.044628  0  1.002689  0  0  0.044762  0  0.997554  0  0  0.127966  0.044285  0  1.006436  0
H  H14  1  0.73422711  0.68281340  0.46091652  1  0  0.037078  0  0.931991  0  0  0.044669  0  1.002643  0  0  0.044805  0  0.99751  0  0  0.127977  0.04433  0  1.006391  0
H  H15  1  0.23422486  0.46091616  0.77810377  1  0  0.037108  0  0.931989  0  0  0.044721  0  1.002622  0  0  0.044859  0  0.997483  0  0  0.128008  0.04438  0  1.006374  0
H  H16  1  0.23423086  0.22189812  0.68281377  1  0  0.03708  0  0.93199  0  0  0.044697  0  1.002629  0  0  0.044835  0  0.99749  0  0  0.127969  0.04436  0  1.006375  0
H  H17  1  0.23422394  0.31718103  0.53908263  1  0  0.037091  0  0.932039  0  0  0.044691  0  1.00269  0  0  0.044827  0  0.997552  0  0  0.127988  0.044346  0  1.00644  0
H  H18  1  0.31093284  0.14060464  0.98573943  1  0  0.039975  0  0.939756  0  0  0.046487  0  1.009457  0  0  0.047042  0  1.004043  0  0  0.126098  0.045812  0  1.013498  0
H  H19  1  0.31093169  0.01426374  0.15487124  1  0  0.039998  0  0.93974  0  0  0.04652  0  1.009427  0  0  0.047072  0  1.004014  0  0  0.12611  0.045847  0  1.013466  0
H  H20  1  0.31093010  0.84513505  0.85939658  1  0  0.040027  0  0.939761  0  0  0.046537  0  1.009462  0  0  0.047094  0  1.004051  0  0  0.126104  0.04586  0  1.013508  0
H  H21  1  0.81093058  0.85939795  0.01426291  1  0  0.040007  0  0.939757  0  0  0.046523  0  1.009447  0  0  0.04708  0  1.004037  0  0  0.126114  0.045844  0  1.013488  0
H  H22  1  0.81093317  0.98573793  0.84513382  1  0  0.039951  0  0.939776  0  0  0.04646  0  1.009477  0  0  0.047018  0  1.004065  0  0  0.126081  0.045784  0  1.013516  0
H  H23  1  0.81093476  0.15486754  0.14060576  1  0  0.039991  0  0.939789  0  0  0.046516  0  1.00946  0  0  0.047068  0  1.00405  0  0  0.1261  0.045839  0  1.0135  0
C  C24  1  0.67796651  0.39597393  0.87472015  1  0  0.619052  0  3.822993  0  0  0.542248  0  4.133739  0  0  0.580086  0  4.121772  0  0  0.176931  0.516517  0  4.141217  0
C  C25  1  0.67796009  0.12527861  0.52125327  1  0  0.619078  0  3.822988  0  0  0.542301  0  4.133715  0  0  0.580133  0  4.121745  0  0  0.176987  0.516564  0  4.141202  0
C  C26  1  0.67796418  0.47874943  0.60403242  1  0  0.619317  0  3.822878  0  0  0.542527  0  4.133612  0  0  0.580349  0  4.121637  0  0  0.17704  0.516793  0  4.1411  0
C  C27  1  0.17796495  0.60402604  0.12527550  1  0  0.61918  0  3.822926  0  0  0.542417  0  4.133649  0  0  0.580239  0  4.121677  0  0  0.176981  0.516694  0  4.141122  0
C  C28  1  0.17796706  0.87472045  0.47875065  1  0  0.619319  0  3.822805  0  0  0.542538  0  4.133533  0  0  0.580365  0  4.121558  0  0  0.17702  0.516796  0  4.141024  0
C  C29  1  0.17797017  0.52124871  0.39597420  1  0  0.6193  0  3.823026  0  0  0.542518  0  4.133752  0  0  0.58036  0  4.121775  0  0  0.177021  0.516795  0  4.141226  0
C  C30  1  0.71482386  0.45997960  0.23536399  1  0  0.616196  0  3.825707  0  0  0.539496  0  4.137648  0  0  0.577148  0  4.126282  0  0  0.178756  0.51385  0  4.144791  0
C  C31  1  0.71482095  0.76463669  0.22460876  1  0  0.616122  0  3.826127  0  0  0.539504  0  4.138024  0  0  0.577157  0  4.126655  0  0  0.178727  0.513861  0  4.145161  0
C  C32  1  0.71482318  0.77538452  0.54002386  1  0  0.616123  0  3.82583  0  0  0.539479  0  4.137735  0  0  0.577132  0  4.126368  0  0  0.178742  0.513829  0  4.144881  0
C  C33  1  0.21482401  0.54002308  0.76463772  1  0  0.616028  0  3.826082  0  0  0.53937  0  4.137991  0  0  0.577022  0  4.126626  0  0  0.17869  0.513732  0  4.145132  0
C  C34  1  0.21483123  0.23536141  0.77538592  1  0  0.616131  0  3.825987  0  0  0.539441  0  4.137927  0  0  0.577094  0  4.126562  0  0  0.178745  0.513788  0  4.145079  0
C  C35  1  0.21482757  0.22461267  0.45997352  1  0  0.61615  0  3.825928  0  0  0.53947  0  4.137869  0  0  0.577123  0  4.1265  0  0  0.178701  0.51383  0  4.145009  0
C  C36  1  0.32746594  0.21703255  0.08018689  1  0  0.618834  0  3.818668  0  0  0.544  0  4.126935  0  0  0.581767  0  4.114888  0  0  0.179936  0.518295  0  4.134458  0
C  C37  1  0.32746282  0.91981617  0.13684570  1  0  0.618813  0  3.818428  0  0  0.543962  0  4.126744  0  0  0.581733  0  4.114692  0  0  0.179961  0.518254  0  4.134268  0
C  C38  1  0.32746582  0.86315448  0.78297069  1  0  0.618731  0  3.818571  0  0  0.54389  0  4.12687  0  0  0.581654  0  4.114827  0  0  0.179908  0.518182  0  4.134397  0
C  C39  1  0.82746286  0.78296818  0.91981609  1  0  0.61881  0  3.818603  0  0  0.543954  0  4.126911  0  0  0.581716  0  4.114868  0  0  0.179965  0.518257  0  4.134426  0
C  C40  1  0.82746310  0.08018365  0.86315128  1  0  0.618825  0  3.818601  0  0  0.543996  0  4.126868  0  0  0.581759  0  4.114826  0  0  0.179943  0.518288  0  4.134387  0
C  C41  1  0.82746298  0.13684991  0.21703333  1  0  0.618807  0  3.818471  0  0  0.543977  0  4.126735  0  0  0.581745  0  4.114687  0  0  0.179948  0.518275  0  4.134251  0
O  O42  1  0.23916102  0.31704088  0.11370485  1  0  -0.618625  0  2.083773  0  0  -0.554521  0  2.344333  0  0  -0.58561  0  2.332485  0  0  -0.282529  -0.532901  0  2.351661  0
O  O43  1  0.23915211  0.88629462  0.20333714  1  0  -0.618754  0  2.083582  0  0  -0.554659  0  2.344187  0  0  -0.585751  0  2.332336  0  0  -0.282634  -0.533034  0  2.35151  0
O  O44  1  0.23916121  0.79666052  0.68295707  1  0  -0.618671  0  2.083652  0  0  -0.554566  0  2.344217  0  0  -0.585659  0  2.332373  0  0  -0.282572  -0.53294  0  2.351539  0
O  O45  1  0.73915092  0.68296360  0.88629616  1  0  -0.61869  0  2.083809  0  0  -0.554588  0  2.344418  0  0  -0.585681  0  2.332574  0  0  -0.282612  -0.532974  0  2.351747  0
O  O46  1  0.73916272  0.11370346  0.79666066  1  0  -0.618645  0  2.083771  0  0  -0.554548  0  2.344334  0  0  -0.58564  0  2.332488  0  0  -0.282558  -0.532926  0  2.351654  0
O  O47  1  0.73916657  0.20333847  0.31704357  1  0  -0.618643  0  2.083637  0  0  -0.55456  0  2.344228  0  0  -0.585651  0  2.332383  0  0  -0.28256  -0.532938  0  2.351549  0
O  O48  1  0.74418772  0.42629782  0.97979389  1  0  -0.622081  0  2.094462  0  0  -0.557994  0  2.355938  0  0  -0.589209  0  2.344332  0  0  -0.286436  -0.536242  0  2.363043  0
O  O49  1  0.74417881  0.02020222  0.44650050  1  0  -0.622127  0  2.094374  0  0  -0.558041  0  2.355831  0  0  -0.589255  0  2.344227  0  0  -0.286486  -0.536285  0  2.362935  0
O  O50  1  0.74418565  0.55349727  0.57370266  1  0  -0.62213  0  2.094351  0  0  -0.558047  0  2.355825  0  0  -0.589266  0  2.34423  0  0  -0.286438  -0.536299  0  2.362939  0
O  O51  1  0.24417941  0.57370392  0.02020415  1  0  -0.622088  0  2.094556  0  0  -0.558011  0  2.356034  0  0  -0.589228  0  2.344436  0  0  -0.286424  -0.536269  0  2.363147  0
O  O52  1  0.24418687  0.97979403  0.55349876  1  0  -0.622136  0  2.094432  0  0  -0.558054  0  2.355909  0  0  -0.589273  0  2.344309  0  0  -0.286418  -0.536305  0  2.363022  0
O  O53  1  0.24419586  0.44650447  0.42629696  1  0  -0.622121  0  2.094679  0  0  -0.558026  0  2.35616  0  0  -0.589241  0  2.344546  0  0  -0.286397  -0.536284  0  2.363272  0
O  O54  1  0.43854337  0.19861510  0.14939447  1  0  -0.601284  0  2.064848  0  0  -0.534965  0  2.322961  0  0  -0.566532  0  2.310593  0  0  -0.282032  -0.513  0  2.330601  0
O  O55  1  0.43853339  0.85061161  0.04922116  1  0  -0.601176  0  2.06482  0  0  -0.534857  0  2.322938  0  0  -0.566424  0  2.31057  0  0  -0.281973  -0.512893  0  2.330577  0
O  O56  1  0.43853614  0.95078092  0.80139044  1  0  -0.601214  0  2.064808  0  0  -0.534899  0  2.322919  0  0  -0.566466  0  2.310554  0  0  -0.282002  -0.512936  0  2.330559  0
O  O57  1  0.93854201  0.80138919  0.85061094  1  0  -0.601241  0  2.064702  0  0  -0.53491  0  2.322799  0  0  -0.566478  0  2.310435  0  0  -0.282008  -0.512948  0  2.330431  0
O  O58  1  0.93854192  0.14938994  0.95077813  1  0  -0.601253  0  2.064698  0  0  -0.534939  0  2.322797  0  0  -0.566506  0  2.310431  0  0  -0.282025  -0.512977  0  2.330436  0
O  O59  1  0.93853629  0.04921697  0.19861019  1  0  -0.601268  0  2.064606  0  0  -0.534956  0  2.322715  0  0  -0.566524  0  2.310348  0  0  -0.282033  -0.512994  0  2.330353  0
O  O60  1  0.81142109  0.36322512  0.17141746  1  0  -0.611339  0  2.081554  0  0  -0.547533  0  2.33856  0  0  -0.578943  0  2.329193  0  0  -0.280671  -0.525706  0  2.344221  0
O  O61  1  0.81141952  0.82857894  0.19180427  1  0  -0.611297  0  2.081939  0  0  -0.547475  0  2.338871  0  0  -0.578886  0  2.329512  0  0  -0.280635  -0.52565  0  2.344531  0
O  O62  1  0.81141717  0.80819204  0.63677472  1  0  -0.611271  0  2.081708  0  0  -0.547469  0  2.338691  0  0  -0.578879  0  2.329324  0  0  -0.280644  -0.525644  0  2.344354  0
O  O63  1  0.31141374  0.63677106  0.82857692  1  0  -0.611239  0  2.081931  0  0  -0.54741  0  2.338878  0  0  -0.578823  0  2.329521  0  0  -0.280609  -0.525591  0  2.344546  0
O  O64  1  0.31141818  0.17141998  0.80819149  1  0  -0.611174  0  2.081977  0  0  -0.547364  0  2.338968  0  0  -0.578771  0  2.329602  0  0  -0.280571  -0.525535  0  2.344629  0
O  O65  1  0.31142629  0.19181146  0.36322649  1  0  -0.611246  0  2.08181  0  0  -0.547434  0  2.338823  0  0  -0.578842  0  2.329452  0  0  -0.2806  -0.525615  0  2.344493  0
O  O66  1  0.59269650  0.47349231  0.31624056  1  0  -0.603105  0  2.080857  0  0  -0.538172  0  2.345142  0  0  -0.569134  0  2.331707  0  0  -0.280777  -0.516697  0  2.353605  0
O  O67  1  0.59268816  0.68376133  0.15724761  1  0  -0.603044  0  2.080945  0  0  -0.538143  0  2.345219  0  0  -0.569105  0  2.33178  0  0  -0.280734  -0.516672  0  2.353685  0
O  O68  1  0.59269025  0.84274826  0.52651080  1  0  -0.60302  0  2.080825  0  0  -0.538119  0  2.345103  0  0  -0.569082  0  2.331667  0  0  -0.280734  -0.516645  0  2.35357  0
O  O69  1  0.09268691  0.52650957  0.68376170  1  0  -0.60303  0  2.080849  0  0  -0.53815  0  2.34515  0  0  -0.569113  0  2.331715  0  0  -0.280765  -0.516675  0  2.35361  0
O  O70  1  0.09269238  0.31623873  0.84274978  1  0  -0.603143  0  2.080767  0  0  -0.53823  0  2.345065  0  0  -0.569195  0  2.33163  0  0  -0.280802  -0.516754  0  2.353534  0
O  O71  1  0.09269460  0.15724722  0.47348430  1  0  -0.603118  0  2.08079  0  0  -0.538186  0  2.34507  0  0  -0.569147  0  2.331631  0  0  -0.280754  -0.516711  0  2.353528  0
O  O72  1  0.56820146  0.46363313  0.85322645  1  0  -0.597323  0  2.073816  0  0  -0.528674  0  2.333908  0  0  -0.560556  0  2.322221  0  0  -0.282295  -0.506459  0  2.341039  0
O  O73  1  0.56820489  0.14677567  0.61040723  1  0  -0.597289  0  2.07399  0  0  -0.528665  0  2.334083  0  0  -0.560547  0  2.322402  0  0  -0.282285  -0.506449  0  2.341214  0
O  O74  1  0.56820644  0.38959425  0.53637290  1  0  -0.597485  0  2.073871  0  0  -0.528808  0  2.333941  0  0  -0.56069  0  2.322262  0  0  -0.282366  -0.506587  0  2.341073  0
O  O75  1  0.06820415  0.53636787  0.14677460  1  0  -0.597365  0  2.073782  0  0  -0.528748  0  2.333877  0  0  -0.56063  0  2.322196  0  0  -0.282319  -0.506532  0  2.341  0
O  O76  1  0.06820360  0.85322349  0.38959529  1  0  -0.597465  0  2.073733  0  0  -0.528834  0  2.333836  0  0  -0.560711  0  2.322143  0  0  -0.282373  -0.506612  0  2.340966  0
O  O77  1  0.06820636  0.61040400  0.46363074  1  0  -0.597442  0  2.073801  0  0  -0.528834  0  2.333905  0  0  -0.560713  0  2.322208  0  0  -0.282382  -0.506617  0  2.341029  0
