# generated using pymatgen
data_NiH18C20(NO)6
_symmetry_space_group_name_H-M   'P 1'
_cell_length_a   9.35310453
_cell_length_b   16.20873324
_cell_length_c   18.72251850
_cell_angle_alpha   103.50172372
_cell_angle_beta   89.99885428
_cell_angle_gamma   89.99808776
_symmetry_Int_Tables_number   1
_chemical_formula_structural   NiH18C20(NO)6
_chemical_formula_sum   'Ni4 H72 C80 N24 O24'
_cell_volume   2759.92645514
_cell_formula_units_Z   4
loop_
 _symmetry_equiv_pos_site_id
 _symmetry_equiv_pos_as_xyz
  1  'x, y, z'
loop_
 _atom_site_type_symbol
 _atom_site_label
 _atom_site_symmetry_multiplicity
 _atom_site_fract_x
 _atom_site_fract_y
 _atom_site_fract_z
 _atom_site_occupancy
 _atom_site_pbe_bader_charge
 _atom_site_pbe_bader_spin_density
 _atom_site_pbe_cm5_charge
 _atom_site_pbe_ddec_charge
 _atom_site_pbe_ddec_spin_density
 _atom_site_pbe_ddec_sum_bond_order
 _atom_site_pbe_magmom
Ni  Ni0  1  0.42267560  0.26356113  0.59038657  1  1.115946  -0.015499  0.678853  0.592863  -0.018386  2.84373  -0.015
Ni  Ni1  1  0.92499891  0.73678480  0.90987943  1  1.154137  1.518511  0.690132  0.637625  2.000974  2.800905  1.503
Ni  Ni2  1  0.57501700  0.73678227  0.40987712  1  1.15375  -1.518599  0.690206  0.63768  -1.987575  2.800965  -1.504
Ni  Ni3  1  0.07731248  0.26355929  0.09038012  1  1.116341  -0.015544  0.678882  0.592964  -0.018448  2.843591  -0.015
H  H4  1  0.50002454  0.09302318  0.50169216  1  0.651686  -0.000807  0.296765  0.321093  -0.000548  1.028961  -0.001
H  H5  1  0.99921456  0.90990794  0.99772690  1  0.648667  0.000906  0.297243  0.321009  0.000556  1.026928  0.002
H  H6  1  0.50078355  0.90989769  0.49772092  1  0.648473  -0.000906  0.297236  0.321115  -0.000547  1.026763  -0.002
H  H7  1  0.99997326  0.09301754  0.00169361  1  0.651715  -0.000772  0.296729  0.320971  -0.000406  1.028972  -0.001
H  H8  1  0.56621005  0.42455572  0.66386759  1  0.631591  0.000667  0.288062  0.32475  0.000414  1.032699  0.001
H  H9  1  0.06543062  0.57281546  0.83733380  1  0.635227  0.00075  0.289815  0.325073  0.000471  1.029537  0.001
H  H10  1  0.43459709  0.57280749  0.33733697  1  0.635472  -0.000753  0.289761  0.325063  -0.000475  1.029436  -0.001
H  H11  1  0.93377813  0.42455277  0.16387455  1  0.631587  0.000665  0.288075  0.324772  0.000408  1.032645  0.001
H  H12  1  0.19654643  0.13809705  0.50313423  1  0.122724  0.003403  0.124927  0.096399  0.001661  0.987163  0.002
H  H13  1  0.69704467  0.86126576  0.99627235  1  0.10665  0.003079  0.124577  0.09569  0.001476  0.98754  0.002
H  H14  1  0.80294455  0.86126237  0.49626819  1  0.106638  -0.003074  0.12453  0.095644  -0.001463  0.987522  -0.002
H  H15  1  0.30347164  0.13809176  0.00312911  1  0.122708  0.003408  0.125003  0.096419  0.001661  0.987186  0.002
H  H16  1  0.99274433  0.15122678  0.41836441  1  0.081681  0.001606  0.110411  0.115301  0.000803  0.995949  0.001
H  H17  1  0.49368150  0.84846498  0.08140185  1  0.086831  0.001388  0.110662  0.115957  0.000716  0.994896  0.001
H  H18  1  0.00630935  0.84846227  0.58139688  1  0.087047  -0.001383  0.110629  0.115933  -0.000709  0.994749  -0.001
H  H19  1  0.50727743  0.15122093  0.91835660  1  0.081344  0.00159  0.110394  0.115265  0.000788  0.996077  0.001
H  H20  1  0.94584508  0.29344011  0.39125310  1  0.117727  -1e-05  0.102625  0.098521  4e-06  1.056274  0.0
H  H21  1  0.44661408  0.70635230  0.10860589  1  0.120704  -8.6e-05  0.103407  0.099115  -8.4e-05  1.054657  0.0
H  H22  1  0.05336790  0.70635321  0.60861463  1  0.12064  8.6e-05  0.10337  0.098999  8.5e-05  1.054675  0.0
H  H23  1  0.55416629  0.29343756  0.89124771  1  0.117541  -1.1e-05  0.102748  0.098785  -0.0  1.056218  0.0
H  H24  1  0.09976300  0.41620588  0.44955112  1  0.086946  0.001603  0.112353  0.120409  0.000798  0.987737  0.001
H  H25  1  0.60044366  0.58357192  0.05048589  1  0.083459  0.001458  0.112622  0.120904  0.000752  0.987178  0.001
H  H26  1  0.89952696  0.58357818  0.55051384  1  0.083336  -0.001412  0.112727  0.121006  -0.000715  0.987075  -0.001
H  H27  1  0.40024156  0.41620263  0.94955292  1  0.087  0.001629  0.112352  0.120458  0.000807  0.987682  0.001
H  H28  1  0.26799431  0.40462056  0.70946679  1  0.112835  -0.003456  0.123337  0.093866  -0.001659  0.987754  -0.002
H  H29  1  0.76895341  0.59605378  0.79128860  1  0.104674  0.003185  0.123129  0.094408  0.001543  0.988344  0.002
H  H30  1  0.73110316  0.59604150  0.29132109  1  0.104556  -0.003175  0.123005  0.094022  -0.001522  0.988656  -0.002
H  H31  1  0.23197660  0.40461798  0.20947096  1  0.113065  -0.003466  0.123305  0.09386  -0.001663  0.987704  -0.002
H  H32  1  0.13259199  0.40665094  0.82550358  1  0.121297  -0.001191  0.107328  0.117788  -0.000519  1.017472  -0.001
H  H33  1  0.63354192  0.59358835  0.67526784  1  0.116306  0.001177  0.107265  0.117377  0.000584  1.014428  0.001
H  H34  1  0.86647342  0.59354476  0.17527874  1  0.115467  -0.001339  0.107249  0.11753  -0.000686  1.014464  -0.001
H  H35  1  0.36741056  0.40663725  0.32549384  1  0.121255  -0.001708  0.107175  0.117634  -0.000919  1.01766  -0.001
H  H36  1  0.10075019  0.26870248  0.86390183  1  0.118861  2.5e-05  0.105715  0.102466  2.4e-05  1.020286  0.0
H  H37  1  0.60138787  0.73142716  0.63659183  1  0.125299  4.6e-05  0.105803  0.102579  5.1e-05  1.01942  0.0
H  H38  1  0.89857931  0.73136410  0.13656391  1  0.125421  -4.9e-05  0.105808  0.102682  -5.1e-05  1.019387  0.0
H  H39  1  0.39926526  0.26868443  0.36388388  1  0.118729  1.8e-05  0.10573  0.102672  2.1e-05  1.020266  0.0
H  H40  1  0.19145066  0.13568302  0.78342650  1  0.076803  -0.001475  0.109604  0.113793  -0.000728  0.998404  -0.001
H  H41  1  0.69193309  0.86456550  0.71693663  1  0.072893  0.001324  0.109361  0.113955  0.000679  0.998205  0.001
H  H42  1  0.80805311  0.86451700  0.21689784  1  0.073289  -0.001326  0.1093  0.113877  -0.000677  0.998043  -0.001
H  H43  1  0.30855751  0.13567089  0.28341073  1  0.076677  -0.00147  0.109648  0.113886  -0.000722  0.998372  -0.001
H  H44  1  0.62314534  0.35172761  0.43735115  1  0.079526  -0.000145  0.100623  0.101946  -0.00012  1.039258  0.0
H  H45  1  0.12328127  0.64796017  0.06239001  1  0.078031  7.4e-05  0.100207  0.101623  6.9e-05  1.03878  0.0
H  H46  1  0.37671662  0.64796851  0.56238499  1  0.077976  -5.5e-05  0.100269  0.10168  -5.8e-05  1.038752  0.0
H  H47  1  0.87686723  0.35173436  0.93733402  1  0.07996  -0.000144  0.10051  0.101864  -0.000128  1.039238  0.0
H  H48  1  0.72940663  0.41075287  0.33503864  1  0.089876  9e-06  0.101082  0.107495  -3e-06  1.021008  0.0
H  H49  1  0.22913777  0.58925045  0.16490230  1  0.090314  -8.8e-05  0.101068  0.107628  -5.9e-05  1.021623  0.0
H  H50  1  0.27088192  0.58925918  0.66490426  1  0.090279  -2.2e-05  0.101048  0.107568  -3.4e-05  1.02169  0.0
H  H51  1  0.77058840  0.41075131  0.83502070  1  0.089966  0.000112  0.101105  0.107518  6.3e-05  1.021037  0.0
H  H52  1  0.84199597  0.15776404  0.22069219  1  0.102977  5.6e-05  0.103775  0.113533  4.9e-05  1.00285  0.0
H  H53  1  0.34130483  0.84230614  0.27906587  1  0.106997  2e-05  0.103839  0.113938  0.0  1.002422  0.0
H  H54  1  0.15870100  0.84232123  0.77907193  1  0.105927  -1e-05  0.103812  0.113886  7e-06  1.002497  0.0
H  H55  1  0.65799154  0.15775990  0.72070201  1  0.103007  5.1e-05  0.103743  0.113572  5e-05  1.002824  0.0
H  H56  1  0.73426454  0.10052209  0.32248890  1  0.050206  -8e-06  0.097689  0.094847  -2e-06  1.049225  0.0
H  H57  1  0.23397933  0.89934340  0.17707739  1  0.054498  4.7e-05  0.097681  0.095089  3e-05  1.04752  0.0
H  H58  1  0.26599729  0.89935554  0.67707535  1  0.05406  -2.8e-05  0.097721  0.095195  -1.7e-05  1.047287  0.0
H  H59  1  0.76572547  0.10052862  0.82250539  1  0.050237  -2.7e-05  0.097668  0.09494  -2.4e-05  1.049124  0.0
H  H60  1  0.30742194  0.48986574  0.47227281  1  0.473725  0.000165  0.310661  0.305813  3.3e-05  0.951113  0.0
H  H61  1  0.80698943  0.50955116  0.02833937  1  0.463996  0.00105  0.311047  0.30695  0.000558  0.948969  0.001
H  H62  1  0.69298743  0.50954544  0.52835331  1  0.463435  -0.00112  0.311029  0.307059  -0.000595  0.948971  -0.001
H  H63  1  0.19255499  0.48986169  0.97227270  1  0.473751  0.000457  0.310618  0.305732  0.000272  0.951235  0.0
H  H64  1  0.41635984  0.52185192  0.54663140  1  0.469855  0.000138  0.307154  0.297429  9e-05  0.980248  0.0
H  H65  1  0.91530185  0.47679858  0.95393327  1  0.4693  0.00024  0.307031  0.296739  0.000135  0.980571  0.0
H  H66  1  0.58470923  0.47679692  0.45393747  1  0.468961  -0.000261  0.307049  0.296755  -0.000152  0.980593  0.0
H  H67  1  0.08361499  0.52184593  0.04663145  1  0.469697  0.00012  0.307188  0.297292  5.4e-05  0.980404  0.0
H  H68  1  0.31601129  0.04002040  0.71507982  1  0.437163  -0.000244  0.306174  0.296204  -0.000118  0.959988  0.0
H  H69  1  0.81610486  0.96053623  0.78427972  1  0.430719  0.000823  0.305056  0.294313  0.000418  0.962704  0.001
H  H70  1  0.68393298  0.96052062  0.28426491  1  0.430791  -0.000832  0.305081  0.294329  -0.000424  0.96279  -0.001
H  H71  1  0.18400728  0.04001682  0.21506875  1  0.437377  -0.000237  0.306182  0.296228  -0.000114  0.959815  0.0
H  H72  1  0.37866714  0.99666836  0.62688460  1  0.554312  -7.4e-05  0.296766  0.318592  -3.3e-05  0.997466  0.0
H  H73  1  0.87789323  0.00444290  0.87248983  1  0.531085  0.000114  0.295967  0.31788  2.3e-05  0.998718  0.0
H  H74  1  0.62211320  0.00443583  0.37247271  1  0.531246  -0.000117  0.29597  0.317864  -2.3e-05  0.998688  0.0
H  H75  1  0.12134110  0.99666871  0.12687714  1  0.554029  -9.8e-05  0.296785  0.318626  -5.5e-05  0.997418  0.0
C  C76  1  0.17138113  0.19812295  0.48912139  1  0.450434  -0.00034  0.055844  0.101059  0.0005  3.939277  -0.001
C  C77  1  0.67188714  0.80122640  0.01028414  1  0.497848  -0.005346  0.056489  0.103918  -0.002685  3.934124  -0.004
C  C78  1  0.82810344  0.80122105  0.51028457  1  0.497484  0.005347  0.056436  0.103822  0.002728  3.934119  0.004
C  C79  1  0.32863452  0.19811768  0.98911862  1  0.450093  -0.000343  0.055703  0.10099  0.000497  3.939105  -0.001
C  C80  1  0.05896675  0.20595303  0.44225688  1  0.037105  0.006371  -0.082274  -0.129813  0.00432  3.968357  0.005
C  C81  1  0.55969159  0.79364479  0.05739872  1  -0.065425  0.005944  -0.082082  -0.130567  0.003952  3.966468  0.005
C  C82  1  0.94029649  0.79364257  0.55739823  1  -0.065396  -0.005935  -0.082016  -0.13052  -0.003918  3.966159  -0.005
C  C83  1  0.44104816  0.20595088  0.94225319  1  0.037485  0.006384  -0.082238  -0.129712  0.00433  3.96833  0.005
C  C84  1  0.03287823  0.28499178  0.42737253  1  -0.061  -0.001671  -0.0653  -0.014245  -0.001116  3.960451  -0.001
C  C85  1  0.53356643  0.71468940  0.07238353  1  -0.007537  -0.007992  -0.065589  -0.014263  -0.005133  3.961238  -0.005
C  C86  1  0.96641174  0.71468763  0.57239090  1  -0.007644  0.00799  -0.065566  -0.014074  0.005165  3.961363  0.005
C  C87  1  0.46713269  0.28498962  0.92737019  1  -0.060995  -0.001676  -0.065434  -0.014619  -0.001122  3.960556  -0.001
C  C88  1  0.11962755  0.35351554  0.45940000  1  -0.027161  0.004537  -0.082249  -0.156416  0.003145  3.943034  0.003
C  C89  1  0.62024509  0.64611508  0.04037981  1  -0.024886  0.004867  -0.081554  -0.156171  0.003329  3.941659  0.004
C  C90  1  0.87973084  0.64611946  0.54040007  1  -0.024852  -0.004843  -0.081705  -0.156445  -0.003279  3.942022  -0.004
C  C91  1  0.38037919  0.35351469  0.95940093  1  -0.028145  0.004553  -0.08227  -0.156444  0.003149  3.943181  0.003
C  C92  1  0.23209343  0.34054411  0.50476263  1  0.497797  0.002329  0.12103  0.138963  0.002187  4.011512  0.001
C  C93  1  0.73243134  0.65879206  0.99474670  1  0.483459  -0.004007  0.121778  0.14113  -0.002056  4.003694  -0.003
C  C94  1  0.76754831  0.65879342  0.49476263  1  0.484269  0.00401  0.121881  0.141326  0.002098  4.003765  0.003
C  C95  1  0.26791390  0.34054579  0.00476634  1  0.499036  0.002328  0.120979  0.138953  0.002182  4.011617  0.001
C  C96  1  0.33307226  0.40658707  0.53949669  1  1.07716  0.004199  0.210734  0.277316  0.002933  4.11666  0.003
C  C97  1  0.83312994  0.59207177  0.96023452  1  1.098473  0.001837  0.212663  0.283198  0.001913  4.119099  0.003
C  C98  1  0.66686030  0.59207535  0.46025618  1  1.097192  -0.001823  0.212507  0.283001  -0.001858  4.119328  -0.003
C  C99  1  0.16692237  0.40658859  0.03950027  1  1.077116  0.004279  0.210729  0.277135  0.002989  4.116764  0.003
C  C100  1  0.24940714  0.34654878  0.72801217  1  0.488938  0.000723  0.058523  0.111933  -0.000339  3.931313  0.001
C  C101  1  0.75012198  0.65412708  0.77279662  1  0.478238  -0.004066  0.058515  0.112191  -0.001809  3.929695  -0.003
C  C102  1  0.74992554  0.65410720  0.27281122  1  0.478325  0.00407  0.058728  0.112828  0.001859  3.929746  0.003
C  C103  1  0.25057602  0.34654154  0.22800712  1  0.488939  0.000716  0.058598  0.111938  -0.000333  3.931403  0.001
C  C104  1  0.17560360  0.34727011  0.79288226  1  -0.006916  -0.005585  -0.085388  -0.135723  -0.003738  3.961646  -0.004
C  C105  1  0.67630289  0.65309756  0.70784881  1  0.014471  0.00382  -0.085039  -0.13478  0.002606  3.960114  0.003
C  C106  1  0.82370877  0.65305770  0.20785346  1  0.013784  -0.003985  -0.085365  -0.135172  -0.002697  3.959799  -0.003
C  C107  1  0.32440047  0.34725878  0.29286972  1  -0.006374  -0.005914  -0.08525  -0.135547  -0.003938  3.961528  -0.004
C  C108  1  0.15694744  0.27072229  0.81349942  1  -0.053072  0.002788  -0.068511  -0.018972  0.00182  3.983315  0.002
C  C109  1  0.65750946  0.72954314  0.68706706  1  -0.062552  -0.006699  -0.068645  -0.019367  -0.004296  3.985067  -0.004
C  C110  1  0.84248148  0.72949384  0.18705074  1  -0.063339  0.006702  -0.068441  -0.019411  0.004329  3.984871  0.004
C  C111  1  0.34305384  0.27070930  0.31348526  1  -0.053056  0.002792  -0.068601  -0.019254  0.001826  3.983648  0.002
C  C112  1  0.20927430  0.19599754  0.76851038  1  -0.069306  -0.004288  -0.085042  -0.159785  -0.002967  3.945611  -0.003
C  C113  1  0.70964738  0.80435019  0.73198942  1  -0.068979  0.003073  -0.084729  -0.159926  0.002194  3.945335  0.003
C  C114  1  0.79035241  0.80430852  0.23197262  1  -0.067556  -0.003087  -0.084611  -0.159892  -0.002186  3.945633  -0.003
C  C115  1  0.29073631  0.19598577  0.26849647  1  -0.069091  -0.004302  -0.084912  -0.159833  -0.002974  3.945509  -0.003
C  C116  1  0.28214325  0.20004341  0.70410723  1  0.486806  -9.7e-05  0.122168  0.142281  -0.000641  3.994533  0.001
C  C117  1  0.78234934  0.80065829  0.79654670  1  0.469306  -0.004233  0.123055  0.146331  -0.002246  3.9859  -0.003
C  C118  1  0.71767698  0.80063841  0.29654237  1  0.469038  0.004234  0.123072  0.146605  0.002285  3.986347  0.003
C  C119  1  0.21785685  0.20003707  0.20409789  1  0.486439  -7.7e-05  0.122148  0.142376  -0.000624  3.994217  0.001
C  C120  1  0.34169884  0.12607725  0.65206466  1  1.07566  -0.00246  0.213827  0.288475  -0.001857  4.130483  -0.002
C  C121  1  0.84131267  0.87528457  0.84822954  1  1.123907  -0.002594  0.211849  0.288193  -0.000843  4.131275  0.001
C  C122  1  0.65871582  0.87527383  0.34822194  1  1.124532  0.002582  0.211766  0.287902  0.000882  4.131389  -0.001
C  C123  1  0.15830226  0.12607358  0.15205542  1  1.076062  -0.002473  0.213816  0.288411  -0.001868  4.130456  -0.002
C  C124  1  0.59581233  0.19322736  0.44573368  1  1.571344  -0.003659  0.206397  0.563956  -0.003749  4.208948  -0.003
C  C125  1  0.09477399  0.80689248  0.05407729  1  1.569327  0.001237  0.207928  0.566974  0.002159  4.203353  0.001
C  C126  1  0.40521181  0.80690074  0.55407412  1  1.569305  -0.001247  0.20797  0.567021  -0.002132  4.203185  -0.001
C  C127  1  0.90418987  0.19324379  0.94573553  1  1.571627  -0.003632  0.206343  0.563954  -0.003746  4.20857  -0.003
C  C128  1  0.66879805  0.22355036  0.38488886  1  -0.040434  -0.000801  -0.019373  -0.036011  -0.000739  3.984744  -0.001
C  C129  1  0.16864006  0.77629926  0.11468363  1  -0.013134  0.004661  -0.018412  -0.034568  0.003289  3.978899  0.004
C  C130  1  0.33133549  0.77630623  0.61467447  1  -0.013264  -0.004641  -0.018407  -0.034755  -0.003253  3.979141  -0.004
C  C131  1  0.83119732  0.22355832  0.88489007  1  -0.040972  -0.000818  -0.019329  -0.035764  -0.000754  3.984561  -0.001
C  C132  1  0.66969033  0.31087479  0.38845988  1  -0.066987  -0.001652  -0.091733  -0.113191  -0.001035  4.007302  -0.001
C  C133  1  0.16969044  0.68898488  0.11123343  1  -0.068004  0.000206  -0.091207  -0.110778  0.000128  4.002852  0.0
C  C134  1  0.33030741  0.68899437  0.61122644  1  -0.068399  -0.000166  -0.091347  -0.110817  -8.7e-05  4.002992  0.0
C  C135  1  0.83031265  0.31088249  0.88844822  1  -0.067373  -0.001631  -0.091721  -0.113355  -0.001027  4.007409  -0.001
C  C136  1  0.72851056  0.34289097  0.33234020  1  -0.041604  0.003899  -0.087397  -0.102921  0.002462  3.986659  0.003
C  C137  1  0.22828684  0.65710581  0.16753786  1  -0.045411  -0.00213  -0.087862  -0.105171  -0.001352  3.986123  -0.001
C  C138  1  0.27171812  0.65711852  0.66753375  1  -0.044334  0.002087  -0.087704  -0.104972  0.00133  3.986207  0.001
C  C139  1  0.77148210  0.34288985  0.83232876  1  -0.041853  0.003979  -0.087353  -0.102836  0.002518  3.986928  0.003
C  C140  1  0.78995073  0.28718445  0.27146922  1  0.0031  0.001997  -0.016377  -0.029043  0.00152  3.963949  0.001
C  C141  1  0.28948187  0.71281631  0.22846683  1  0.001886  -0.004483  -0.015941  -0.027413  -0.003111  3.956563  -0.003
C  C142  1  0.21052599  0.71282964  0.72846933  1  0.001909  0.004477  -0.015943  -0.027326  0.003134  3.956725  0.003
C  C143  1  0.71003902  0.28718193  0.77146821  1  0.002972  0.001986  -0.016235  -0.028805  0.001508  3.96393  0.001
C  C144  1  0.79213229  0.19973336  0.26818533  1  -0.057823  0.002747  -0.086623  -0.099854  0.001755  3.971329  0.002
C  C145  1  0.29158232  0.80022989  0.23158158  1  -0.074649  -0.000876  -0.08636  -0.099523  -0.00055  3.970037  0.0
C  C146  1  0.20841286  0.80024388  0.73158531  1  -0.073665  0.000864  -0.086512  -0.099668  0.000551  3.970367  0.0
C  C147  1  0.70785518  0.19973259  0.76819221  1  -0.057992  0.002751  -0.086601  -0.100031  0.001761  3.971349  0.002
C  C148  1  0.73169548  0.16813841  0.32437430  1  -0.0617  -0.002334  -0.091778  -0.109581  -0.0015  4.001621  -0.002
C  C149  1  0.23140785  0.83173861  0.17523891  1  -0.069987  0.001398  -0.09228  -0.1107  0.000947  4.001995  0.001
C  C150  1  0.26857598  0.83174622  0.67523691  1  -0.069997  -0.00137  -0.092308  -0.110728  -0.000922  4.002017  -0.001
C  C151  1  0.76829588  0.16814194  0.82438155  1  -0.060759  -0.002324  -0.091816  -0.109776  -0.001497  4.00171  -0.002
C  C152  1  0.85805564  0.31982127  0.21096023  1  1.55969  0.009646  0.20972  0.568464  0.00831  4.190876  0.007
C  C153  1  0.35853784  0.68007031  0.28891891  1  1.568582  -0.005224  0.210791  0.572256  -0.005061  4.192268  -0.004
C  C154  1  0.14148450  0.68007689  0.78892432  1  1.568588  0.005221  0.210822  0.571959  0.005109  4.192989  0.004
C  C155  1  0.64192178  0.31981514  0.71096335  1  1.56139  0.009648  0.209742  0.568379  0.00831  4.191077  0.007
N  N156  1  0.30186324  0.27512448  0.68516215  1  -1.18231  -0.093769  -0.313811  -0.244575  -0.061981  3.580761  -0.079
N  N157  1  0.80227179  0.72567599  0.81571168  1  -1.183101  0.082578  -0.316312  -0.252666  0.05671  3.580263  0.074
N  N158  1  0.69777308  0.72566327  0.31571928  1  -1.182775  -0.082594  -0.316324  -0.252952  -0.05632  3.580996  -0.074
N  N159  1  0.19812042  0.27512100  0.18515844  1  -1.182891  -0.093827  -0.313896  -0.244652  -0.062021  3.581031  -0.079
N  N160  1  0.40040944  0.14268064  0.59336836  1  -0.581416  -0.007815  -0.265336  -0.146895  -0.00511  3.559388  -0.008
N  N161  1  0.90011703  0.85967830  0.90716703  1  -0.615246  0.072796  -0.265883  -0.165642  0.051176  3.543121  0.065
N  N162  1  0.59989827  0.85966641  0.40715867  1  -0.615278  -0.072713  -0.26566  -0.165422  -0.050759  3.542132  -0.065
N  N163  1  0.09958447  0.14267826  0.09336264  1  -0.581699  -0.007561  -0.265327  -0.146923  -0.004981  3.559538  -0.008
N  N164  1  0.25618149  0.26351683  0.51921219  1  -1.213076  0.091876  -0.319404  -0.244211  0.060841  3.601745  0.077
N  N165  1  0.75627924  0.73564601  0.97996627  1  -1.199666  0.080225  -0.319927  -0.250412  0.055117  3.599606  0.072
N  N166  1  0.74370830  0.73564807  0.47997724  1  -1.198985  -0.080228  -0.31992  -0.250381  -0.054725  3.599579  -0.072
N  N167  1  0.24382866  0.26351670  0.01920985  1  -1.212844  0.091856  -0.319289  -0.244086  0.060826  3.601413  0.077
N  N168  1  0.41850768  0.38665464  0.58837338  1  -0.605599  0.003563  -0.262585  -0.135397  0.002285  3.545061  0.004
N  N169  1  0.91847743  0.61107351  0.91108401  1  -0.608063  0.062713  -0.263094  -0.154971  0.044595  3.523129  0.056
N  N170  1  0.58152221  0.61107481  0.41109905  1  -0.608254  -0.062813  -0.262999  -0.154783  -0.044332  3.52315  -0.056
N  N171  1  0.08149366  0.38665495  0.08837805  1  -0.60562  0.00371  -0.262577  -0.13536  0.002385  3.545162  0.004
N  N172  1  0.32966965  0.04614685  0.66298832  1  -1.306852  -0.000142  -0.588064  -0.631168  -4.4e-05  3.370415  0.0
N  N173  1  0.82841433  0.95492065  0.83660342  1  -1.288019  -0.003326  -0.588833  -0.631002  -0.002185  3.369033  -0.002
N  N174  1  0.67160251  0.95490785  0.33658990  1  -1.288587  0.003329  -0.588828  -0.630839  0.00221  3.369054  0.002
N  N175  1  0.17033780  0.04614545  0.16297893  1  -1.306853  -0.000143  -0.588174  -0.631273  -5.3e-05  3.370001  0.0
N  N176  1  0.33296873  0.48490121  0.52377744  1  -1.26108  0.00068  -0.587427  -0.616446  0.000363  3.359923  0.0
N  N177  1  0.83225195  0.51414422  0.97670030  1  -1.262627  -0.001238  -0.588168  -0.61777  -0.000931  3.35636  -0.001
N  N178  1  0.66774643  0.51414227  0.47671325  1  -1.261341  0.001278  -0.588181  -0.617953  0.000977  3.356264  0.001
N  N179  1  0.16700808  0.48489776  0.02377618  1  -1.260912  0.000901  -0.587402  -0.616106  0.000493  3.360436  0.0
O  O180  1  0.89553149  0.26453696  0.15446018  1  -1.137231  0.060336  -0.308534  -0.51423  0.038711  2.35906  0.05
O  O181  1  0.39810593  0.73597179  0.34475982  1  -1.143393  -0.062196  -0.31343  -0.523174  -0.041048  2.372074  -0.056
O  O182  1  0.10193768  0.73597966  0.84477551  1  -1.143501  0.062195  -0.313422  -0.52303  0.041344  2.372509  0.056
O  O183  1  0.60442786  0.26453214  0.65447090  1  -1.139032  0.060387  -0.308613  -0.514214  0.038747  2.359185  0.05
O  O184  1  0.45267529  0.07259088  0.54533200  1  -0.733532  0.001289  -0.252947  -0.312702  0.000821  2.30135  0.002
O  O185  1  0.95211281  0.93050993  0.95463907  1  -0.731896  0.015934  -0.255519  -0.310676  0.009853  2.309358  0.012
O  O186  1  0.54785694  0.93049870  0.45462815  1  -0.731518  -0.01576  -0.255727  -0.310906  -0.009678  2.308638  -0.011
O  O187  1  0.04732887  0.07258575  0.04533205  1  -0.733676  0.001791  -0.252914  -0.312592  0.001165  2.30125  0.002
O  O188  1  0.56527102  0.25082126  0.50207011  1  -1.147353  -0.060452  -0.308696  -0.518813  -0.039058  2.374228  -0.052
O  O189  1  0.06180213  0.74891289  0.99824066  1  -1.152928  0.064582  -0.313131  -0.526336  0.043341  2.390825  0.059
O  O190  1  0.43816515  0.74892884  0.49822933  1  -1.152813  -0.064596  -0.313059  -0.526203  -0.043037  2.390742  -0.059
O  O191  1  0.93473793  0.25083772  0.00206640  1  -1.147735  -0.060459  -0.308639  -0.518792  -0.039069  2.374021  -0.052
O  O192  1  0.87536820  0.40038520  0.22154084  1  -1.167358  0.006995  -0.330548  -0.536327  0.004035  2.196482  0.005
O  O193  1  0.37452651  0.59975687  0.27886806  1  -1.167046  -0.005116  -0.329108  -0.539526  -0.002871  2.188373  -0.004
O  O194  1  0.12550196  0.59976405  0.77886521  1  -1.166754  0.00498  -0.329102  -0.539401  0.002816  2.188357  0.004
O  O195  1  0.62462551  0.40037918  0.72153133  1  -1.167181  0.007103  -0.330582  -0.53634  0.004104  2.19666  0.005
O  O196  1  0.56681161  0.11431591  0.43591460  1  -1.175396  -0.001204  -0.316799  -0.54656  -0.000527  2.238707  -0.001
O  O197  1  0.06743834  0.88581812  0.06368341  1  -1.173599  0.000241  -0.315091  -0.546736  -0.000117  2.231854  0.0
O  O198  1  0.43257136  0.88582296  0.56368830  1  -1.173813  -0.000265  -0.315223  -0.546904  0.000102  2.231752  0.0
O  O199  1  0.93317845  0.11432825  0.93592435  1  -1.175412  -0.000741  -0.316735  -0.54653  -0.000194  2.23858  0.0
O  O200  1  0.51554794  0.44821207  0.61863028  1  -0.745019  -0.002806  -0.266486  -0.372814  -0.001776  2.220156  -0.003
O  O201  1  0.01497662  0.54875172  0.88100251  1  -0.760707  0.012379  -0.270206  -0.369732  0.007551  2.233514  0.008
O  O202  1  0.48504542  0.54874562  0.38101041  1  -0.760781  -0.01255  -0.270123  -0.369712  -0.007597  2.233385  -0.008
O  O203  1  0.98443959  0.44820933  0.11863252  1  -0.745006  -0.002832  -0.266527  -0.372877  -0.001796  2.22012  -0.003
