# generated using pymatgen
data_AlH8(C2O)5
_symmetry_space_group_name_H-M   'P 1'
_cell_length_a   6.67982402
_cell_length_b   16.25235742
_cell_length_c   17.30726226
_cell_angle_alpha   80.23022609
_cell_angle_beta   89.99968487
_cell_angle_gamma   89.99950901
_symmetry_Int_Tables_number   1
_chemical_formula_structural   AlH8(C2O)5
_chemical_formula_sum   'Al4 H32 C40 O20'
_cell_volume   1851.67733589
_cell_formula_units_Z   4
loop_
 _symmetry_equiv_pos_site_id
 _symmetry_equiv_pos_as_xyz
  1  'x, y, z'
loop_
 _atom_site_type_symbol
 _atom_site_label
 _atom_site_symmetry_multiplicity
 _atom_site_fract_x
 _atom_site_fract_y
 _atom_site_fract_z
 _atom_site_occupancy
 _atom_site_pbe_bader_charge
 _atom_site_pbe_bader_spin_density
 _atom_site_pbe_cm5_charge
 _atom_site_pbe_ddec_charge
 _atom_site_pbe_ddec_spin_density
 _atom_site_pbe_ddec_sum_bond_order
 _atom_site_pbe_magmom
Al  Al0  1  0.12698885  0.50268010  0.50162221  1  2.503139  0  0.398683  1.651482  0  2.575345  0
Al  Al1  1  0.62698581  0.49732134  0.49837352  1  2.503014  0  0.398689  1.651397  0  2.575257  0
Al  Al2  1  0.61482890  0.99775950  0.99770728  1  2.502804  0  0.398514  1.649354  0  2.578556  0
Al  Al3  1  0.11483224  0.00224740  0.00227787  1  2.502544  0  0.398477  1.649331  0  2.578657  0
H  H4  1  0.02632926  0.19190340  0.79504416  1  0.08693  0  0.10975  0.124954  0  0.992326  0
H  H5  1  0.52630327  0.80810807  0.20495791  1  0.087145  0  0.109827  0.125104  0  0.9923  0
H  H6  1  0.57298073  0.30259534  0.68666769  1  0.125858  0  0.112086  0.110543  0  0.980851  0
H  H7  1  0.07297312  0.69740681  0.31331864  1  0.125668  0  0.11215  0.110613  0  0.980819  0
H  H8  1  0.03071137  0.30792268  0.70764770  1  0.068675  0  0.109821  0.126342  0  0.991834  0
H  H9  1  0.53070881  0.69208478  0.29233859  1  0.068528  0  0.109842  0.126287  0  0.991948  0
H  H10  1  0.62360643  0.29657394  0.36594918  1  0.070476  0  0.106533  0.10733  0  1.022409  0
H  H11  1  0.12360458  0.70342911  0.63404069  1  0.070842  0  0.106555  0.107308  0  1.022391  0
H  H12  1  0.18696603  0.41380105  0.29865454  1  0.080399  0  0.111239  0.118854  0  0.9886  0
H  H13  1  0.68698484  0.58621220  0.70133528  1  0.08083  0  0.111248  0.118913  0  0.988752  0
H  H14  1  0.22878071  0.32536007  0.19508493  1  0.072998  0  0.106517  0.107258  0  0.987969  0
H  H15  1  0.72881158  0.67467157  0.80488898  1  0.073357  0  0.106414  0.107143  0  0.98801  0
H  H16  1  0.11481314  0.21012414  0.13082240  1  0.085201  0  0.108519  0.112085  0  0.997999  0
H  H17  1  0.61481507  0.78991486  0.86914439  1  0.085571  0  0.10856  0.112044  0  0.998102  0
H  H18  1  0.56580281  0.19374879  0.80463142  1  0.103287  0  0.112126  0.110767  0  0.97913  0
H  H19  1  0.06578689  0.80625907  0.19535722  1  0.10311  0  0.112135  0.110759  0  0.978878  0
H  H20  1  0.25729772  0.10206722  0.25359467  1  0.015551  0  0.085598  0.115973  0  1.027584  0
H  H21  1  0.40478938  0.03476474  0.32277437  1  0.024698  0  0.085371  0.110673  0  1.003543  0
H  H22  1  0.19996546  0.09037830  0.35452380  1  0.029323  0  0.087921  0.117528  0  0.994405  0
H  H23  1  0.51979720  0.15779432  0.38225379  1  0.017126  0  0.094261  0.089423  0  0.967335  0
H  H24  1  0.37129349  0.22497061  0.31612185  1  0.038473  0  0.08981  0.084174  0  1.015847  0
H  H25  1  0.75730955  0.89795307  0.74637815  1  0.016275  0  0.085691  0.116106  0  1.027569  0
H  H26  1  0.90481818  0.96524588  0.67719506  1  0.025584  0  0.085387  0.110546  0  1.003617  0
H  H27  1  0.69998610  0.90964198  0.64544724  1  0.029266  0  0.087887  0.117443  0  0.994394  0
H  H28  1  0.01980055  0.84220926  0.61771905  1  0.016673  0  0.094245  0.089369  0  0.967403  0
H  H29  1  0.87128087  0.77504179  0.68385399  1  0.038248  0  0.089725  0.084111  0  1.015972  0
H  H30  1  0.56020849  0.08593360  0.19985887  1  0.100987  0  0.107781  0.1177  0  1.016478  0
H  H31  1  0.06017433  0.91407678  0.80012214  1  0.102102  0  0.107781  0.117644  0  1.01649  0
H  H32  1  0.36747845  0.39277880  0.49518057  1  0.590205  0  0.356732  0.434091  0  0.845724  0
H  H33  1  0.86747894  0.60723182  0.50478767  1  0.590283  0  0.356773  0.434128  0  0.845469  0
H  H34  1  0.37407912  0.10681175  0.00550114  1  0.644332  0  0.356621  0.433709  0  0.847533  0
H  H35  1  0.87407473  0.89318587  0.99452458  1  0.64436  0  0.356678  0.433789  0  0.84738  0
C  C36  1  0.38265225  0.58862261  0.59953261  1  1.551582  0  0.268784  0.64634  0  4.087625  0
C  C37  1  0.88263827  0.41137479  0.40046266  1  1.551645  0  0.268721  0.646249  0  4.08811  0
C  C38  1  0.37758331  0.61127519  0.38696420  1  1.551126  0  0.255734  0.672233  0  4.126739  0
C  C39  1  0.87755575  0.38872691  0.61302869  1  1.550922  0  0.255466  0.671863  0  4.126864  0
C  C40  1  0.71218206  0.21489438  0.78085038  1  -0.052859  0  -0.068556  -0.026974  0  3.986007  0
C  C41  1  0.21217433  0.78510947  0.21914126  1  -0.052595  0  -0.068557  -0.026925  0  3.985848  0
C  C42  1  0.87488029  0.17563763  0.81573809  1  -0.039537  0  -0.083956  -0.226107  0  3.878102  0
C  C43  1  0.37487839  0.82436702  0.18425420  1  -0.039734  0  -0.084133  -0.226502  0  3.878153  0
C  C44  1  0.71623776  0.28226979  0.71400565  1  -0.103026  0  -0.068364  -0.024166  0  3.983543  0
C  C45  1  0.21623861  0.71773202  0.28598367  1  -0.102611  0  -0.068351  -0.024114  0  3.983727  0
C  C46  1  0.88210646  0.32261352  0.68303092  1  0.020113  0  -0.085413  -0.23163  0  3.876448  0
C  C47  1  0.38210170  0.67738962  0.31695611  1  0.019674  0  -0.085553  -0.231769  0  3.876736  0
C  C48  1  0.90115234  0.35916060  0.33780685  1  0.017782  0  -0.01628  -0.039812  0  3.996353  0
C  C49  1  0.40115563  0.64083742  0.66218900  1  0.017718  0  -0.016329  -0.039731  0  3.996132  0
C  C50  1  0.83901080  0.14418121  0.15934836  1  0.023727  0  -0.016351  -0.035249  0  4.020365  0
C  C51  1  0.33899748  0.85583943  0.84062508  1  0.024476  0  -0.016351  -0.035407  0  4.020317  0
C  C52  1  0.63686439  0.18191860  0.26615210  1  -0.045254  0  -0.004632  0.07559  0  3.930095  0
C  C53  1  0.13685780  0.81809098  0.73382894  1  -0.045333  0  -0.004655  0.075735  0  3.9302  0
C  C54  1  0.66722581  0.13409418  0.20847668  1  -0.016746  0  -0.090126  -0.16499  0  3.954211  0
C  C55  1  0.16720755  0.86592079  0.79149907  1  -0.018702  0  -0.09005  -0.164898  0  3.954299  0
C  C56  1  0.98166638  0.20337844  0.16785770  1  -0.053905  0  -0.080357  -0.152315  0  3.967486  0
C  C57  1  0.48166229  0.79664956  0.83211691  1  -0.054709  0  -0.080298  -0.151995  0  3.967161  0
C  C58  1  0.95407433  0.25629534  0.22403143  1  -0.029273  0  -0.003884  0.084426  0  4.005004  0
C  C59  1  0.45406427  0.74371855  0.77594911  1  -0.027431  0  -0.003779  0.084257  0  4.005025  0
C  C60  1  0.77960363  0.24632203  0.27350100  1  -0.039519  0  -0.005582  0.019934  0  3.950464  0
C  C61  1  0.27959314  0.75368239  0.72648247  1  -0.039961  0  -0.005669  0.019905  0  3.950825  0
C  C62  1  0.75597122  0.30071365  0.32873565  1  -0.056699  0  -0.078765  -0.138117  0  3.945524  0
C  C63  1  0.25596682  0.69928860  0.67125954  1  -0.056929  0  -0.078771  -0.138119  0  3.945742  0
C  C64  1  0.07472394  0.36761536  0.28987497  1  0.044721  0  -0.086121  -0.104033  0  4.000755  0
C  C65  1  0.57474048  0.63238886  0.71011370  1  0.043753  0  -0.086087  -0.104239  0  4.000897  0
C  C66  1  0.09768850  0.31835790  0.23326367  1  -0.099123  0  -0.085659  -0.128298  0  4.00058  0
C  C67  1  0.59769928  0.68166009  0.76671730  1  -0.09925  0  -0.085537  -0.127977  0  4.000397  0
C  C68  1  0.36483951  0.89046486  0.11435924  1  1.546634  0  0.255747  0.671383  0  4.127856  0
C  C69  1  0.86483929  0.10953694  0.88562428  1  1.546034  0  0.255516  0.670965  0  4.128188  0
C  C70  1  0.35852332  0.90889018  0.90254511  1  1.553865  0  0.270063  0.648557  0  4.082606  0
C  C71  1  0.85854737  0.09112226  0.09743365  1  1.554405  0  0.270285  0.648525  0  4.082915  0
C  C72  1  0.46110030  0.16731917  0.32177472  1  0.00646  0  -0.160248  -0.143293  0  3.994678  0
C  C73  1  0.32398431  0.09453703  0.31234358  1  -0.049246  0  -0.245231  -0.350933  0  3.974901  0
C  C74  1  0.96109555  0.83268911  0.67820293  1  0.006548  0  -0.160132  -0.143348  0  3.994982  0
C  C75  1  0.82399474  0.90547828  0.68762461  1  -0.050418  0  -0.24534  -0.350794  0  3.974894  0
O  O76  1  0.54831745  0.58285456  0.41215304  1  -1.248805  0  -0.243061  -0.600514  0  2.300334  0
O  O77  1  0.04830126  0.41715773  0.58783791  1  -1.248698  0  -0.242983  -0.600421  0  2.300242  0
O  O78  1  0.20846606  0.57254320  0.57580656  1  -1.252614  0  -0.237632  -0.593165  0  2.312078  0
O  O79  1  0.70846348  0.42746145  0.42418391  1  -1.252619  0  -0.237602  -0.593022  0  2.312226  0
O  O80  1  0.20796386  0.58874903  0.41719722  1  -1.261276  0  -0.241573  -0.603876  0  2.335392  0
O  O81  1  0.70793123  0.41125018  0.58279621  1  -1.26149  0  -0.241353  -0.603646  0  2.335483  0
O  O82  1  0.04763288  0.43495347  0.42640130  1  -1.261532  0  -0.234599  -0.596498  0  2.363285  0
O  O83  1  0.54764897  0.56503912  0.57360032  1  -1.261664  0  -0.234645  -0.596497  0  2.363116  0
O  O84  1  0.37460509  0.45018504  0.50317230  1  -1.393514  0  -0.448005  -0.995706  0  2.215382  0
O  O85  1  0.87460268  0.54981765  0.49682059  1  -1.393479  0  -0.448079  -0.995642  0  2.214938  0
O  O86  1  0.19408798  0.93250332  0.92883151  1  -1.26195  0  -0.234258  -0.593347  0  2.363104  0
O  O87  1  0.69410877  0.06751467  0.07114189  1  -1.261793  0  -0.234402  -0.593439  0  2.363294  0
O  O88  1  0.53440954  0.91349178  0.08390332  1  -1.248135  0  -0.242312  -0.600141  0  2.313122  0
O  O89  1  0.03440305  0.08651581  0.91608590  1  -1.247699  0  -0.242265  -0.600086  0  2.313271  0
O  O90  1  0.53319902  0.92597358  0.92516184  1  -1.25515  0  -0.237431  -0.594113  0  2.307533  0
O  O91  1  0.03323476  0.07402683  0.07483679  1  -1.255582  0  -0.237411  -0.594038  0  2.30778  0
O  O92  1  0.69378896  0.08191339  0.91055072  1  -1.259407  0  -0.241226  -0.601637  0  2.320957  0
O  O93  1  0.19378503  0.91808057  0.08942284  1  -1.2595  0  -0.241309  -0.601828  0  2.320887  0
O  O94  1  0.36682638  0.04995863  0.99586163  1  -1.448579  0  -0.448459  -0.995393  0  2.214928  0
O  O95  1  0.86680911  0.95005120  0.00412535  1  -1.448703  0  -0.448539  -0.995492  0  2.214913  0
