# generated using pymatgen
data_CuH12C14BrN6
_symmetry_space_group_name_H-M   'P 1'
_cell_length_a   10.07125190
_cell_length_b   10.22272483
_cell_length_c   16.57735783
_cell_angle_alpha   96.55387058
_cell_angle_beta   89.99973580
_cell_angle_gamma   119.51131402
_symmetry_Int_Tables_number   1
_chemical_formula_structural   CuH12C14BrN6
_chemical_formula_sum   'Cu4 H48 C56 Br4 N24'
_cell_volume   1472.46894470
_cell_formula_units_Z   4
loop_
 _symmetry_equiv_pos_site_id
 _symmetry_equiv_pos_as_xyz
  1  'x, y, z'
loop_
 _atom_site_type_symbol
 _atom_site_label
 _atom_site_symmetry_multiplicity
 _atom_site_fract_x
 _atom_site_fract_y
 _atom_site_fract_z
 _atom_site_occupancy
 _atom_site_hle17_bader_spin_density
 _atom_site_hle17_ddec_charge
 _atom_site_hle17_ddec_spin_density
 _atom_site_hle17_ddec_sum_bond_order
 _atom_site_hle17_magmom
 _atom_site_hse06_10hf_bader_spin_density
 _atom_site_hse06_10hf_ddec_charge
 _atom_site_hse06_10hf_ddec_spin_density
 _atom_site_hse06_10hf_ddec_sum_bond_order
 _atom_site_hse06_10hf_magmom
 _atom_site_hse06_bader_spin_density
 _atom_site_hse06_ddec_charge
 _atom_site_hse06_ddec_spin_density
 _atom_site_hse06_ddec_sum_bond_order
 _atom_site_hse06_magmom
 _atom_site_pbe_bader_spin_density
 _atom_site_pbe_cm5_charge
 _atom_site_pbe_ddec_charge
 _atom_site_pbe_ddec_spin_density
 _atom_site_pbe_ddec_sum_bond_order
 _atom_site_pbe_magmom
Cu  Cu0  1  0.98773556  0.85188064  0.97534974  1  0  0.366125  0  2.040842  0  0  0.254821  0  2.549093  0  0  0.256079  0  2.50014  0  0  0.398555  0.256579  0  2.579778  0
Cu  Cu1  1  0.13585294  0.14811749  0.52464919  1  0  0.366109  0  2.040857  0  0  0.254819  0  2.549119  0  0  0.256056  0  2.500165  0  0  0.39854  0.256568  0  2.579723  0
Cu  Cu2  1  0.01226536  0.14812329  0.02465001  1  0  0.366086  0  2.040868  0  0  0.254822  0  2.54914  0  0  0.256063  0  2.500186  0  0  0.398557  0.25656  0  2.579792  0
Cu  Cu3  1  0.86414543  0.85187737  0.47534991  1  0  0.366094  0  2.040842  0  0  0.25481  0  2.549101  0  0  0.256049  0  2.500142  0  0  0.398549  0.256561  0  2.579722  0
H  H4  1  0.60260317  0.86025501  0.07977539  1  0  0.110608  0  0.993228  0  0  0.111695  0  1.07043  0  0  0.115526  0  1.068019  0  0  0.091224  0.109609  0  1.071353  0
H  H5  1  0.74234847  0.13974822  0.42022527  1  0  0.110586  0  0.993253  0  0  0.111613  0  1.07052  0  0  0.115443  0  1.068112  0  0  0.091214  0.109536  0  1.07144  0
H  H6  1  0.39740086  0.13975117  0.92022814  1  0  0.110602  0  0.993239  0  0  0.111677  0  1.070451  0  0  0.115512  0  1.068031  0  0  0.091233  0.109597  0  1.071379  0
H  H7  1  0.25764906  0.86024892  0.57976977  1  0  0.11061  0  0.993265  0  0  0.111678  0  1.070469  0  0  0.115506  0  1.068073  0  0  0.091226  0.109597  0  1.07141  0
H  H8  1  0.66936798  0.08108580  0.18281437  1  0  0.094203  0  0.939318  0  0  0.105907  0  0.997918  0  0  0.10878  0  0.996777  0  0  0.101201  0.103138  0  0.999788  0
H  H9  1  0.58828196  0.91891396  0.31718737  1  0  0.094236  0  0.939269  0  0  0.105938  0  0.997879  0  0  0.108812  0  0.996738  0  0  0.101219  0.103181  0  0.999735  0
H  H10  1  0.33063251  0.91891924  0.81718968  1  0  0.094212  0  0.939386  0  0  0.105914  0  0.997992  0  0  0.108786  0  0.996851  0  0  0.101197  0.103153  0  0.999856  0
H  H11  1  0.41171188  0.08107977  0.68280924  1  0  0.094202  0  0.939385  0  0  0.105905  0  0.997989  0  0  0.108779  0  0.996848  0  0  0.101209  0.103138  0  0.999862  0
H  H12  1  0.49094039  0.18096584  0.21018895  1  0  0.08857  0  0.954027  0  0  0.101292  0  1.011074  0  0  0.103405  0  1.011682  0  0  0.098158  0.099785  0  1.010434  0
H  H13  1  0.30997372  0.81903362  0.28981281  1  0  0.088541  0  0.954078  0  0  0.101304  0  1.011083  0  0  0.103416  0  1.011695  0  0  0.098169  0.099801  0  1.010438  0
H  H14  1  0.50905542  0.81903581  0.78981124  1  0  0.088613  0  0.953968  0  0  0.101384  0  1.010954  0  0  0.10349  0  1.011585  0  0  0.098178  0.099878  0  1.010314  0
H  H15  1  0.69001940  0.18096463  0.71018714  1  0  0.088622  0  0.95399  0  0  0.101392  0  1.01098  0  0  0.103503  0  1.011597  0  0  0.098186  0.099883  0  1.010334  0
H  H16  1  0.23923481  0.06492078  0.12951976  1  0  0.104358  0  0.992246  0  0  0.108686  0  1.065619  0  0  0.111988  0  1.063438  0  0  0.096255  0.106613  0  1.066918  0
H  H17  1  0.17431338  0.93508070  0.37048087  1  0  0.104318  0  0.992276  0  0  0.108635  0  1.065666  0  0  0.111937  0  1.063489  0  0  0.096265  0.106576  0  1.066948  0
H  H18  1  0.76076186  0.93507860  0.87048147  1  0  0.104369  0  0.992201  0  0  0.108645  0  1.065631  0  0  0.111949  0  1.063447  0  0  0.09623  0.10658  0  1.066914  0
H  H19  1  0.82568442  0.06492095  0.62951932  1  0  0.104351  0  0.992229  0  0  0.108631  0  1.065659  0  0  0.111935  0  1.063478  0  0  0.096219  0.106568  0  1.06694  0
H  H20  1  0.11207669  0.16835951  0.22452953  1  0  0.114652  0  0.975708  0  0  0.118933  0  1.044867  0  0  0.122945  0  1.042759  0  0  0.093666  0.115973  0  1.046407  0
H  H21  1  0.94371233  0.83163786  0.27547051  1  0  0.114691  0  0.975611  0  0  0.118961  0  1.044787  0  0  0.122974  0  1.042678  0  0  0.093678  0.116003  0  1.046325  0
H  H22  1  0.88792097  0.83163988  0.77546929  1  0  0.114655  0  0.975723  0  0  0.118926  0  1.044882  0  0  0.122937  0  1.042777  0  0  0.09367  0.115973  0  1.046419  0
H  H23  1  0.05628150  0.16835586  0.72452851  1  0  0.11467  0  0.975677  0  0  0.118932  0  1.044858  0  0  0.122944  0  1.042751  0  0  0.093674  0.115973  0  1.046395  0
H  H24  1  0.29557895  0.26561231  0.34508331  1  0  0.090213  0  0.979786  0  0  0.097406  0  1.047137  0  0  0.100024  0  1.046666  0  0  0.092619  0.095396  0  1.047589  0
H  H25  1  0.02997150  0.73439365  0.15491716  1  0  0.090215  0  0.979797  0  0  0.097407  0  1.047145  0  0  0.100026  0  1.046673  0  0  0.092616  0.095395  0  1.047595  0
H  H26  1  0.70441361  0.73438480  0.65491776  1  0  0.090265  0  0.979755  0  0  0.097415  0  1.047148  0  0  0.100031  0  1.046676  0  0  0.092624  0.095403  0  1.047593  0
H  H27  1  0.97002914  0.26560574  0.84508166  1  0  0.090201  0  0.979835  0  0  0.097419  0  1.047156  0  0  0.100042  0  1.046683  0  0  0.092604  0.095405  0  1.047601  0
H  H28  1  0.54603431  0.50311830  0.34987509  1  0  0.093739  0  0.9651  0  0  0.096282  0  1.037832  0  0  0.099579  0  1.035966  0  0  0.095493  0.093762  0  1.039415  0
H  H29  1  0.04292609  0.49689124  0.15012467  1  0  0.093733  0  0.965155  0  0  0.096286  0  1.037866  0  0  0.099591  0  1.035987  0  0  0.095507  0.093769  0  1.039449  0
H  H30  1  0.45396121  0.49687881  0.65012719  1  0  0.093757  0  0.9652  0  0  0.096303  0  1.037918  0  0  0.099608  0  1.03604  0  0  0.095516  0.093784  0  1.039496  0
H  H31  1  0.95707455  0.50310814  0.84987537  1  0  0.093749  0  0.965087  0  0  0.096305  0  1.0378  0  0  0.099607  0  1.035923  0  0  0.095497  0.093785  0  1.039388  0
H  H32  1  0.62367462  0.65169876  0.23238818  1  0  0.116505  0  0.940302  0  0  0.12643  0  0.99836  0  0  0.129928  0  0.996751  0  0  0.107046  0.123406  0  1.000398  0
H  H33  1  0.97198391  0.34830691  0.26760989  1  0  0.116411  0  0.940344  0  0  0.126322  0  0.998422  0  0  0.129822  0  0.996815  0  0  0.106983  0.123298  0  1.000463  0
H  H34  1  0.37632474  0.34829608  0.76761394  1  0  0.116456  0  0.940306  0  0  0.126414  0  0.998333  0  0  0.129916  0  0.996725  0  0  0.107031  0.123389  0  1.000366  0
H  H35  1  0.02801673  0.65169248  0.73238833  1  0  0.116388  0  0.94032  0  0  0.126302  0  0.9984  0  0  0.129802  0  0.996791  0  0  0.106968  0.123281  0  1.000444  0
H  H36  1  0.47431225  0.66580052  0.95816339  1  0  0.101771  0  0.921164  0  0  0.113527  0  0.985998  0  0  0.114659  0  0.985921  0  0  0.124383  0.112125  0  0.987738  0
H  H37  1  0.80850846  0.33420111  0.54183677  1  0  0.101859  0  0.921092  0  0  0.113594  0  0.985911  0  0  0.114728  0  0.985832  0  0  0.124414  0.112189  0  0.987654  0
H  H38  1  0.52569164  0.33420340  0.04183756  1  0  0.101841  0  0.921095  0  0  0.113558  0  0.98594  0  0  0.114691  0  0.985864  0  0  0.124398  0.112149  0  0.987685  0
H  H39  1  0.19148793  0.66579374  0.45816234  1  0  0.101877  0  0.921072  0  0  0.113593  0  0.985917  0  0  0.114726  0  0.985839  0  0  0.124418  0.112188  0  0.987662  0
H  H40  1  0.33389819  0.61519771  0.87794493  1  0  0.095672  0  0.9139  0  0  0.111507  0  0.974779  0  0  0.11202  0  0.975717  0  0  0.122327  0.111374  0  0.9744  0
H  H41  1  0.71869643  0.38480490  0.62205442  1  0  0.095658  0  0.913966  0  0  0.111459  0  0.974878  0  0  0.111969  0  0.97582  0  0  0.122316  0.111328  0  0.974498  0
H  H42  1  0.66610628  0.38480734  0.12205671  1  0  0.095629  0  0.913964  0  0  0.111436  0  0.974862  0  0  0.111947  0  0.975803  0  0  0.122312  0.111303  0  0.974479  0
H  H43  1  0.28129798  0.61518996  0.37794227  1  0  0.095614  0  0.913962  0  0  0.111423  0  0.974866  0  0  0.111934  0  0.975808  0  0  0.122301  0.111295  0  0.974487  0
H  H44  1  0.28400966  0.38022587  0.92253714  1  0  0.102814  0  0.945974  0  0  0.115138  0  1.012729  0  0  0.116693  0  1.012202  0  0  0.11119  0.113607  0  1.01381  0
H  H45  1  0.90378567  0.61977683  0.57746142  1  0  0.102852  0  0.946019  0  0  0.115178  0  1.012755  0  0  0.116735  0  1.012228  0  0  0.111208  0.11365  0  1.013838  0
H  H46  1  0.71599438  0.61978032  0.07746338  1  0  0.10284  0  0.945995  0  0  0.115161  0  1.012739  0  0  0.116719  0  1.012213  0  0  0.111181  0.113631  0  1.013825  0
H  H47  1  0.09621483  0.38022029  0.42253724  1  0  0.102831  0  0.945985  0  0  0.115159  0  1.012732  0  0  0.116716  0  1.012205  0  0  0.111187  0.113631  0  1.013818  0
H  H48  1  0.13693006  0.41587277  0.95706341  1  0  0.098401  0  0.935419  0  0  0.107556  0  1.008804  0  0  0.10982  0  1.00624  0  0  0.118476  0.105495  0  1.011108  0
H  H49  1  0.72106008  0.58412971  0.54293620  1  0  0.098417  0  0.935426  0  0  0.107559  0  1.008823  0  0  0.109826  0  1.006254  0  0  0.118477  0.1055  0  1.01113  0
H  H50  1  0.86307284  0.58413115  0.04293634  1  0  0.098397  0  0.935415  0  0  0.107552  0  1.008791  0  0  0.109818  0  1.006224  0  0  0.118486  0.105491  0  1.011102  0
H  H51  1  0.27894198  0.41586854  0.45706315  1  0  0.098405  0  0.935412  0  0  0.107562  0  1.008808  0  0  0.109826  0  1.006237  0  0  0.118491  0.105501  0  1.011109  0
C  C52  1  0.28120755  0.89764295  0.06029928  1  0  0.109908  0  3.824636  0  0  0.110608  0  4.069205  0  0  0.109694  0  4.091823  0  0  0.089602  0.110315  0  4.056861  0
C  C53  1  0.38356343  0.10236210  0.43970006  1  0  0.109875  0  3.824583  0  0  0.110598  0  4.06913  0  0  0.109678  0  4.091745  0  0  0.089508  0.110306  0  4.056786  0
C  C54  1  0.71879393  0.10236209  0.93970538  1  0  0.109915  0  3.824594  0  0  0.110582  0  4.069151  0  0  0.109663  0  4.091768  0  0  0.089628  0.110297  0  4.056793  0
C  C55  1  0.61643324  0.89763730  0.56029575  1  0  0.10992  0  3.82463  0  0  0.110648  0  4.069126  0  0  0.109725  0  4.091743  0  0  0.089616  0.110356  0  4.056783  0
C  C56  1  0.38114297  0.83864260  0.04686754  1  0  0.097239  0  3.790035  0  0  0.082071  0  4.033871  0  0  0.086022  0  4.057167  0  0  0.104058  0.072316  0  4.015862  0
C  C57  1  0.54250001  0.16136150  0.45312955  1  0  0.097134  0  3.79012  0  0  0.081956  0  4.033937  0  0  0.08591  0  4.057234  0  0  0.104025  0.072194  0  4.015932  0
C  C58  1  0.61885937  0.16136019  0.95313394  1  0  0.097187  0  3.790128  0  0  0.082083  0  4.033867  0  0  0.086037  0  4.057164  0  0  0.10408  0.072331  0  4.015858  0
C  C59  1  0.45750035  0.83864131  0.54686409  1  0  0.097174  0  3.790028  0  0  0.082041  0  4.033769  0  0  0.085998  0  4.057064  0  0  0.104088  0.072276  0  4.015774  0
C  C60  1  0.52344644  0.90315366  0.09016878  1  0  -0.140382  0  3.747681  0  0  -0.159451  0  4.007553  0  0  -0.163299  0  4.027467  0  0  -0.094873  -0.157035  0  3.994315  0
C  C61  1  0.62029040  0.09685057  0.40983042  1  0  -0.140208  0  3.747761  0  0  -0.15921  0  4.007609  0  0  -0.163056  0  4.027524  0  0  -0.094794  -0.156801  0  3.994385  0
C  C62  1  0.47655405  0.09685138  0.90983467  1  0  -0.140207  0  3.747605  0  0  -0.159259  0  4.007398  0  0  -0.163105  0  4.027308  0  0  -0.094851  -0.156845  0  3.994169  0
C  C63  1  0.37970387  0.90314997  0.59016366  1  0  -0.140248  0  3.747673  0  0  -0.159277  0  4.00748  0  0  -0.163126  0  4.027386  0  0  -0.094833  -0.15687  0  3.994253  0
C  C64  1  0.55951611  0.02721458  0.14792474  1  0  -0.047634  0  3.739284  0  0  -0.068673  0  3.998113  0  0  -0.069228  0  4.019006  0  0  -0.087666  -0.068176  0  3.984115  0
C  C65  1  0.53230207  0.97278848  0.35207687  1  0  -0.047747  0  3.739343  0  0  -0.068807  0  3.99819  0  0  -0.069362  0  4.019081  0  0  -0.087703  -0.068312  0  3.98421  0
C  C66  1  0.44048381  0.97278934  0.85207863  1  0  -0.047765  0  3.739506  0  0  -0.068834  0  3.998366  0  0  -0.069388  0  4.01926  0  0  -0.087704  -0.068343  0  3.984386  0
C  C67  1  0.46769517  0.02721205  0.64792023  1  0  -0.047702  0  3.739468  0  0  -0.068776  0  3.998333  0  0  -0.069331  0  4.019225  0  0  -0.087701  -0.06828  0  3.984336  0
C  C68  1  0.45853516  0.08535115  0.16282280  1  0  -0.072386  0  3.766504  0  0  -0.087639  0  4.020578  0  0  -0.090816  0  4.04361  0  0  -0.093724  -0.085068  0  4.004536  0
C  C69  1  0.37318263  0.91465061  0.33717848  1  0  -0.072332  0  3.766454  0  0  -0.087616  0  4.020536  0  0  -0.090791  0  4.043564  0  0  -0.093733  -0.08505  0  4.004509  0
C  C70  1  0.54146278  0.91465276  0.83718057  1  0  -0.072431  0  3.766492  0  0  -0.08771  0  4.020574  0  0  -0.090889  0  4.0436  0  0  -0.093748  -0.08514  0  4.004539  0
C  C71  1  0.62681107  0.08534879  0.66281914  1  0  -0.072453  0  3.766493  0  0  -0.087734  0  4.020588  0  0  -0.090912  0  4.043616  0  0  -0.093749  -0.08516  0  4.004541  0
C  C72  1  0.31879451  0.02264139  0.11911871  1  0  -0.124893  0  3.723351  0  0  -0.143029  0  3.971115  0  0  -0.144138  0  3.990691  0  0  -0.08956  -0.142556  0  3.958267  0
C  C73  1  0.29615586  0.97736249  0.38088242  1  0  -0.124886  0  3.723248  0  0  -0.143029  0  3.971059  0  0  -0.144138  0  3.990635  0  0  -0.089539  -0.142569  0  3.958216  0
C  C74  1  0.68120428  0.97736025  0.88088510  1  0  -0.124896  0  3.723142  0  0  -0.142992  0  3.970966  0  0  -0.144096  0  3.990538  0  0  -0.089533  -0.142528  0  3.958107  0
C  C75  1  0.70384436  0.02263804  0.61911528  1  0  -0.12493  0  3.723211  0  0  -0.143048  0  3.971025  0  0  -0.144156  0  3.990602  0  0  -0.089554  -0.142584  0  3.958168  0
C  C76  1  0.41081254  0.49060758  0.16146029  1  0  0.111466  0  3.85653  0  0  0.115191  0  4.104659  0  0  0.115938  0  4.126285  0  0  0.094053  0.114306  0  4.090237  0
C  C77  1  0.92020878  0.50939451  0.33853850  1  0  0.111416  0  3.856508  0  0  0.115134  0  4.10466  0  0  0.115881  0  4.126285  0  0  0.094014  0.114246  0  4.090248  0
C  C78  1  0.58918909  0.50939181  0.83854094  1  0  0.111499  0  3.856536  0  0  0.115223  0  4.10469  0  0  0.115972  0  4.126315  0  0  0.094093  0.114336  0  4.09027  0
C  C79  1  0.07979526  0.49060375  0.66145904  1  0  0.111469  0  3.856512  0  0  0.115174  0  4.104671  0  0  0.11592  0  4.126297  0  0  0.094099  0.114297  0  4.090239  0
C  C80  1  0.26737073  0.35394252  0.15895826  1  0  0.123353  0  3.817254  0  0  0.120586  0  4.061861  0  0  0.122528  0  4.08312  0  0  0.095809  0.119217  0  4.047904  0
C  C81  1  0.91342933  0.64605834  0.34104065  1  0  0.123339  0  3.817322  0  0  0.120555  0  4.06194  0  0  0.122499  0  4.083198  0  0  0.0958  0.119179  0  4.048  0
C  C82  1  0.73263090  0.64605687  0.84104116  1  0  0.123294  0  3.817424  0  0  0.120513  0  4.062027  0  0  0.122455  0  4.083288  0  0  0.095766  0.119139  0  4.048098  0
C  C83  1  0.08657216  0.35393878  0.65895862  1  0  0.123387  0  3.817316  0  0  0.120619  0  4.06189  0  0  0.122563  0  4.083145  0  0  0.095809  0.119237  0  4.047943  0
C  C84  1  0.22230588  0.27176919  0.22588248  1  0  -0.13534  0  3.732362  0  0  -0.148565  0  3.97513  0  0  -0.151253  0  3.993533  0  0  -0.089998  -0.146938  0  3.963057  0
C  C85  1  0.95053730  0.72823053  0.27411757  1  0  -0.135341  0  3.732354  0  0  -0.148547  0  3.975122  0  0  -0.151236  0  3.993522  0  0  -0.089976  -0.146917  0  3.96304  0
C  C86  1  0.77769122  0.72822907  0.77411687  1  0  -0.135322  0  3.732454  0  0  -0.148512  0  3.975178  0  0  -0.151203  0  3.993581  0  0  -0.089991  -0.146898  0  3.963121  0
C  C87  1  0.04946320  0.27176660  0.72588109  1  0  -0.135381  0  3.732408  0  0  -0.148586  0  3.97517  0  0  -0.151275  0  3.993574  0  0  -0.090015  -0.146964  0  3.963098  0
C  C88  1  0.32634803  0.32786259  0.29269403  1  0  -0.060288  0  3.740912  0  0  -0.075206  0  3.990467  0  0  -0.076012  0  4.011042  0  0  -0.093705  -0.074423  0  3.976598  0
C  C89  1  0.99849049  0.67214176  0.20730613  1  0  -0.060319  0  3.740923  0  0  -0.075235  0  3.990471  0  0  -0.076048  0  4.01106  0  0  -0.093733  -0.074443  0  3.976585  0
C  C90  1  0.67364906  0.67213566  0.70730712  1  0  -0.060295  0  3.741013  0  0  -0.075175  0  3.990549  0  0  -0.075982  0  4.011134  0  0  -0.093681  -0.074379  0  3.976667  0
C  C91  1  0.00150958  0.32785649  0.79269442  1  0  -0.060252  0  3.740877  0  0  -0.075187  0  3.990398  0  0  -0.076005  0  4.010997  0  0  -0.093704  -0.074391  0  3.9765  0
C  C92  1  0.47026131  0.46282146  0.29500729  1  0  -0.069307  0  3.768045  0  0  -0.08865  0  4.030335  0  0  -0.090169  0  4.050003  0  0  -0.096139  -0.087769  0  4.016884  0
C  C93  1  0.00744803  0.53718461  0.20499178  1  0  -0.06931  0  3.768017  0  0  -0.088661  0  4.030301  0  0  -0.090184  0  4.049968  0  0  -0.096148  -0.087781  0  4.01684  0
C  C94  1  0.52973621  0.53717565  0.70499379  1  0  -0.069375  0  3.768242  0  0  -0.088724  0  4.030553  0  0  -0.090248  0  4.050218  0  0  -0.096177  -0.087849  0  4.017097  0
C  C95  1  0.99255417  0.46281592  0.79500592  1  0  -0.069349  0  3.768077  0  0  -0.088709  0  4.030372  0  0  -0.090229  0  4.05004  0  0  -0.096124  -0.087823  0  4.016909  0
C  C96  1  0.51441951  0.54706383  0.23051041  1  0  -0.137996  0  3.7319  0  0  -0.153895  0  3.976682  0  0  -0.155769  0  3.995332  0  0  -0.090979  -0.15234  0  3.96414  0
C  C97  1  0.96736337  0.45294176  0.26948902  1  0  -0.137842  0  3.731886  0  0  -0.153724  0  3.976658  0  0  -0.155601  0  3.995314  0  0  -0.090868  -0.152163  0  3.964111  0
C  C98  1  0.48558198  0.45293327  0.76949247  1  0  -0.137904  0  3.732016  0  0  -0.153832  0  3.976799  0  0  -0.155711  0  3.995452  0  0  -0.090945  -0.152268  0  3.964242  0
C  C99  1  0.03263968  0.54705650  0.73051033  1  0  -0.137843  0  3.732035  0  0  -0.153728  0  3.976814  0  0  -0.155602  0  3.995466  0  0  -0.090898  -0.152179  0  3.964275  0
C  C100  1  0.35198203  0.61811281  0.94350433  1  0  -0.023954  0  3.651623  0  0  -0.092284  0  3.91803  0  0  -0.08894  0  3.928536  0  0  -0.04096  -0.101227  0  3.908359  0
C  C101  1  0.73386835  0.38189323  0.55649461  1  0  -0.024028  0  3.651831  0  0  -0.092268  0  3.918143  0  0  -0.088924  0  3.928653  0  0  -0.040963  -0.101221  0  3.908472  0
C  C102  1  0.64802343  0.38189224  0.05649610  1  0  -0.023942  0  3.651741  0  0  -0.092183  0  3.918065  0  0  -0.088836  0  3.928573  0  0  -0.040945  -0.101123  0  3.908391  0
C  C103  1  0.26613229  0.61810617  0.44350361  1  0  -0.023961  0  3.651719  0  0  -0.092194  0  3.918037  0  0  -0.088848  0  3.928546  0  0  -0.040917  -0.101141  0  3.908368  0
C  C104  1  0.26012930  0.45724587  0.96373061  1  0  -0.083926  0  3.635469  0  0  -0.149285  0  3.901985  0  0  -0.147159  0  3.910267  0  0  -0.049193  -0.151077  0  3.897839  0
C  C105  1  0.80288564  0.54275789  0.53626880  1  0  -0.084002  0  3.635662  0  0  -0.149357  0  3.902149  0  0  -0.147235  0  3.910439  0  0  -0.0492  -0.151146  0  3.898002  0
C  C106  1  0.73987417  0.54275919  0.03626922  1  0  -0.083962  0  3.635663  0  0  -0.14931  0  3.902111  0  0  -0.14719  0  3.910403  0  0  -0.049176  -0.151103  0  3.897968  0
C  C107  1  0.19711642  0.45724036  0.46373175  1  0  -0.083982  0  3.635696  0  0  -0.149363  0  3.902215  0  0  -0.147237  0  3.9105  0  0  -0.049229  -0.15115  0  3.898061  0
Br  Br108  1  0.09926595  0.06536910  0.89390314  1  0  -0.528143  0  1.225381  0  0  -0.460957  0  1.590369  0  0  -0.477317  0  1.557638  0  0  -0.275703  -0.447913  0  1.611415  0
Br  Br109  1  0.03389393  0.93463177  0.60609737  1  0  -0.528153  0  1.225409  0  0  -0.460969  0  1.590391  0  0  -0.477318  0  1.557653  0  0  -0.27571  -0.44793  0  1.611417  0
Br  Br110  1  0.90073328  0.93463144  0.10609396  1  0  -0.528146  0  1.225414  0  0  -0.460954  0  1.59039  0  0  -0.477313  0  1.557664  0  0  -0.27571  -0.447911  0  1.611434  0
Br  Br111  1  0.96610287  0.06536987  0.39390584  1  0  -0.528152  0  1.225427  0  0  -0.460944  0  1.590387  0  0  -0.477306  0  1.557659  0  0  -0.275713  -0.447911  0  1.611411  0
N  N112  1  0.30548248  0.71974258  0.98619428  1  0  -0.000665  0  3.521707  0  0  0.083194  0  3.747232  0  0  0.070619  0  3.773144  0  0  -0.1305  0.114016  0  3.700339  0
N  N113  1  0.58574003  0.28026220  0.51380424  1  0  -0.000611  0  3.521683  0  0  0.083242  0  3.747197  0  0  0.070664  0  3.773113  0  0  -0.130473  0.114087  0  3.700268  0
N  N114  1  0.69451929  0.28025907  0.01380591  1  0  -0.000718  0  3.521759  0  0  0.083102  0  3.747263  0  0  0.070526  0  3.773176  0  0  -0.130563  0.113912  0  3.700377  0
N  N115  1  0.41426231  0.71974061  0.48619241  1  0  -0.000571  0  3.52158  0  0  0.083266  0  3.747081  0  0  0.070686  0  3.772997  0  0  -0.130502  0.114099  0  3.700184  0
N  N116  1  0.16940602  0.70496376  0.96332459  1  0  -0.07776  0  2.848525  0  0  -0.081589  0  3.131362  0  0  -0.074929  0  3.13921  0  0  -0.084313  -0.092716  0  3.122136  0
N  N117  1  0.46443798  0.29503631  0.53667396  1  0  -0.077833  0  2.8486  0  0  -0.081671  0  3.131451  0  0  -0.075016  0  3.139299  0  0  -0.084374  -0.092806  0  3.122206  0
N  N118  1  0.83059603  0.29503448  0.03667717  1  0  -0.077773  0  2.84855  0  0  -0.081614  0  3.1314  0  0  -0.074957  0  3.139244  0  0  -0.084341  -0.092734  0  3.122167  0
N  N119  1  0.53556209  0.70496194  0.46332599  1  0  -0.077891  0  2.848618  0  0  -0.081735  0  3.131477  0  0  -0.075079  0  3.139321  0  0  -0.084413  -0.092871  0  3.122247  0
N  N120  1  0.15382899  0.81167535  0.00715053  1  0  -0.215484  0  3.304588  0  0  -0.170289  0  3.638066  0  0  -0.172464  0  3.637915  0  0  -0.246258  -0.169895  0  3.640669  0
N  N121  1  0.34215244  0.18832732  0.49285008  1  0  -0.215385  0  3.304644  0  0  -0.170201  0  3.638109  0  0  -0.17236  0  3.637945  0  0  -0.246186  -0.169797  0  3.640667  0
N  N122  1  0.84617320  0.18832516  0.99285260  1  0  -0.215452  0  3.304739  0  0  -0.170248  0  3.638241  0  0  -0.172412  0  3.638077  0  0  -0.246236  -0.169854  0  3.640819  0
N  N123  1  0.65784848  0.81166867  0.50715032  1  0  -0.215438  0  3.304723  0  0  -0.170242  0  3.638176  0  0  -0.172399  0  3.638008  0  0  -0.246214  -0.169837  0  3.640743  0
N  N124  1  0.19539524  0.32681475  0.08391026  1  0  -0.2761  0  3.130442  0  0  -0.23662  0  3.447469  0  0  -0.238325  0  3.446882  0  0  -0.255289  -0.236205  0  3.448556  0
N  N125  1  0.86858103  0.67318376  0.41608865  1  0  -0.27608  0  3.130388  0  0  -0.23657  0  3.44739  0  0  -0.238276  0  3.446802  0  0  -0.25527  -0.236154  0  3.448475  0
N  N126  1  0.80460200  0.67318577  0.91608865  1  0  -0.276165  0  3.130541  0  0  -0.236647  0  3.447524  0  0  -0.238357  0  3.446944  0  0  -0.255306  -0.236242  0  3.44864  0
N  N127  1  0.13141890  0.32681223  0.58391053  1  0  -0.276166  0  3.130399  0  0  -0.236627  0  3.447367  0  0  -0.238332  0  3.446775  0  0  -0.255296  -0.236204  0  3.44843  0
N  N128  1  0.29390502  0.44520548  0.04709849  1  0  0.255851  0  3.524145  0  0  0.306784  0  3.797548  0  0  0.306529  0  3.817907  0  0  -0.015503  0.306723  0  3.784038  0
N  N129  1  0.84869904  0.55479307  0.45290212  1  0  0.255852  0  3.524156  0  0  0.306771  0  3.797575  0  0  0.306518  0  3.817935  0  0  -0.015552  0.306711  0  3.78407  0
N  N130  1  0.70609632  0.55479730  0.95290359  1  0  0.255856  0  3.52417  0  0  0.30677  0  3.797584  0  0  0.306516  0  3.817946  0  0  -0.015538  0.306714  0  3.78407  0
N  N131  1  0.15130104  0.44520518  0.54709662  1  0  0.25581  0  3.524172  0  0  0.306722  0  3.797594  0  0  0.306468  0  3.817951  0  0  -0.01554  0.30666  0  3.784079  0
N  N132  1  0.42364048  0.54546447  0.08908106  1  0  -0.281167  0  2.830754  0  0  -0.271494  0  3.102334  0  0  -0.272965  0  3.113403  0  0  -0.199753  -0.270431  0  3.096404  0
N  N133  1  0.87817848  0.45453873  0.41091906  1  0  -0.281135  0  2.830681  0  0  -0.271465  0  3.102273  0  0  -0.272935  0  3.113338  0  0  -0.199716  -0.270407  0  3.096351  0
N  N134  1  0.57636115  0.45453491  0.91092138  1  0  -0.281134  0  2.830642  0  0  -0.271469  0  3.102239  0  0  -0.272941  0  3.113308  0  0  -0.199751  -0.270402  0  3.096303  0
N  N135  1  0.12182429  0.54546293  0.58907932  1  0  -0.281095  0  2.830733  0  0  -0.271432  0  3.102336  0  0  -0.2729  0  3.113404  0  0  -0.199736  -0.270372  0  3.096402  0
