# generated using pymatgen
data_ZnSiH12C16(N2F3)2
_symmetry_space_group_name_H-M   'P 1'
_cell_length_a   7.82905337
_cell_length_b   9.26617116
_cell_length_c   9.26615173
_cell_angle_alpha   88.69310816
_cell_angle_beta   81.03755524
_cell_angle_gamma   81.03801507
_symmetry_Int_Tables_number   1
_chemical_formula_structural   ZnSiH12C16(N2F3)2
_chemical_formula_sum   'Zn1 Si1 H12 C16 N4 F6'
_cell_volume   655.90188229
_cell_formula_units_Z   1
loop_
 _symmetry_equiv_pos_site_id
 _symmetry_equiv_pos_as_xyz
  1  'x, y, z'
loop_
 _atom_site_type_symbol
 _atom_site_label
 _atom_site_symmetry_multiplicity
 _atom_site_fract_x
 _atom_site_fract_y
 _atom_site_fract_z
 _atom_site_occupancy
 _atom_site_pbe_bader_charge
 _atom_site_pbe_bader_spin_density
 _atom_site_pbe_cm5_charge
 _atom_site_pbe_ddec_charge
 _atom_site_pbe_ddec_spin_density
 _atom_site_pbe_ddec_sum_bond_order
 _atom_site_pbe_magmom
Zn  Zn0  1  0.50000064  0.49999985  0.49999751  1  1.344896  0  0.705565  0.73892  0  2.30051  0
Si  Si1  1  0.00000186  0.50000126  0.49999752  1  3.206222  0  0.263851  1.719592  0  3.935163  0
H  H2  1  0.27454180  0.50119663  0.26313134  1  0.163593  0  0.118699  0.103175  0  1.055964  0
H  H3  1  0.80941108  0.49915428  0.24512687  1  0.170675  0  0.115323  0.100771  0  1.040787  0
H  H4  1  0.85904153  0.49865184  0.96992395  1  0.135525  0  0.119277  0.13023  0  0.989358  0
H  H5  1  0.72546099  0.49880197  0.73685919  1  0.163489  0  0.118669  0.103174  0  1.055998  0
H  H6  1  0.19059446  0.50084323  0.75487089  1  0.170668  0  0.115312  0.100793  0  1.040823  0
H  H7  1  0.14096571  0.50134349  0.03007256  1  0.135578  0  0.119257  0.130212  0  0.989259  0
H  H8  1  0.27454616  0.26313620  0.50117791  1  0.163574  0  0.118662  0.103152  0  1.055948  0
H  H9  1  0.80941118  0.24512533  0.49913353  1  0.170884  0  0.115312  0.100923  0  1.040746  0
H  H10  1  0.85903466  0.96992439  0.49866035  1  0.13558  0  0.119249  0.130217  0  0.989254  0
H  H11  1  0.72544969  0.73686460  0.49882749  1  0.163603  0  0.118695  0.10317  0  1.055966  0
H  H12  1  0.19058925  0.75487218  0.50085301  1  0.170636  0  0.115324  0.100807  0  1.040802  0
H  H13  1  0.14096164  0.03007421  0.50133641  1  0.135278  0  0.119293  0.130243  0  0.989306  0
C  C14  1  0.40184229  0.50071095  0.19597164  1  0.538222  0  0.071295  0.073115  0  3.844561  0
C  C15  1  0.70236916  0.49943442  0.18275164  1  0.48961  0  0.039576  0.072673  0  3.918271  0
C  C16  1  0.72890285  0.49918037  0.03238374  1  -0.123745  0  -0.066729  -0.14466  0  3.934993  0
C  C17  1  0.58420016  0.49956721  0.95811511  1  0.011528  0  0.00955  0.055511  0  4.005886  0
C  C18  1  0.59815980  0.49928437  0.80402230  1  0.538236  0  0.071368  0.073235  0  3.844631  0
C  C19  1  0.29763381  0.50056309  0.81724429  1  0.489637  0  0.039605  0.072617  0  3.918227  0
C  C20  1  0.27110180  0.50081496  0.96761526  1  -0.123398  0  -0.066741  -0.144635  0  3.934891  0
C  C21  1  0.41580472  0.50042702  0.04187849  1  -0.050542  0  0.009673  0.055732  0  4.005857  0
C  C22  1  0.40184505  0.19597295  0.50069893  1  0.537956  0  0.071353  0.073273  0  3.844642  0
C  C23  1  0.70237081  0.18275305  0.49942207  1  0.489415  0  0.039617  0.072548  0  3.918174  0
C  C24  1  0.72889769  0.03238276  0.49918168  1  -0.123515  0  -0.066753  -0.144687  0  3.935001  0
C  C25  1  0.58419292  0.95811802  0.49957653  1  -0.050333  0  0.009658  0.055697  0  4.006065  0
C  C26  1  0.59815123  0.80402566  0.49930323  1  0.537959  0  0.071308  0.073201  0  3.8447  0
C  C27  1  0.29762810  0.81724555  0.50056895  1  0.489602  0  0.039558  0.072679  0  3.91817  0
C  C28  1  0.27109731  0.96761585  0.50081525  1  -0.123205  0  -0.066781  -0.14472  0  3.935039  0
C  C29  1  0.41580077  0.04188059  0.50042380  1  0.011108  0  0.009621  0.05561  0  4.006049  0
N  N30  1  0.53961689  0.50009309  0.26338736  1  -1.2433  0  -0.311782  -0.217722  0  3.517864  0
N  N31  1  0.46038757  0.49990334  0.73660840  1  -1.243398  0  -0.311828  -0.217772  0  3.517885  0
N  N32  1  0.53961698  0.26338965  0.50007693  1  -1.243143  0  -0.311803  -0.217844  0  3.517884  0
N  N33  1  0.46038171  0.73661005  0.49991842  1  -1.243165  0  -0.311794  -0.21785  0  3.517874  0
F  F34  1  0.22319760  0.50582384  0.50582248  1  -0.832813  0  -0.195284  -0.498762  0  1.328549  0
F  F35  1  0.77680387  0.49417476  0.49417469  1  -0.832774  0  -0.195252  -0.498754  0  1.328507  0
F  F36  1  0.00000531  0.63126905  0.36872589  1  -0.832932  0  -0.239826  -0.538406  0  1.089491  0
F  F37  1  0.00000379  0.36873238  0.63126848  1  -0.833112  0  -0.239812  -0.538459  0  1.0896  0
F  F38  1  0.05678145  0.36865150  0.36864893  1  -0.832068  0  -0.240114  -0.538489  0  1.090952  0
F  F39  1  0.94321922  0.63135148  0.63134501  1  -0.832033  0  -0.240171  -0.538511  0  1.090896  0
