# generated using pymatgen
data_CuH4C3N3Cl
_symmetry_space_group_name_H-M   'P 1'
_cell_length_a   6.47832113
_cell_length_b   6.50560631
_cell_length_c   6.88821161
_cell_angle_alpha   81.80932143
_cell_angle_beta   67.94449655
_cell_angle_gamma   86.91177573
_symmetry_Int_Tables_number   1
_chemical_formula_structural   CuH4C3N3Cl
_chemical_formula_sum   'Cu2 H8 C6 N6 Cl2'
_cell_volume   266.31739643
_cell_formula_units_Z   2
loop_
 _symmetry_equiv_pos_site_id
 _symmetry_equiv_pos_as_xyz
  1  'x, y, z'
loop_
 _atom_site_type_symbol
 _atom_site_label
 _atom_site_symmetry_multiplicity
 _atom_site_fract_x
 _atom_site_fract_y
 _atom_site_fract_z
 _atom_site_occupancy
 _atom_site_hle17_bader_spin_density
 _atom_site_hle17_ddec_charge
 _atom_site_hle17_ddec_spin_density
 _atom_site_hle17_ddec_sum_bond_order
 _atom_site_hle17_magmom
 _atom_site_hse06_10hf_bader_spin_density
 _atom_site_hse06_10hf_ddec_charge
 _atom_site_hse06_10hf_ddec_spin_density
 _atom_site_hse06_10hf_ddec_sum_bond_order
 _atom_site_hse06_10hf_magmom
 _atom_site_hse06_bader_spin_density
 _atom_site_hse06_ddec_charge
 _atom_site_hse06_ddec_spin_density
 _atom_site_hse06_ddec_sum_bond_order
 _atom_site_hse06_magmom
 _atom_site_pbe_bader_spin_density
 _atom_site_pbe_cm5_charge
 _atom_site_pbe_ddec_charge
 _atom_site_pbe_ddec_spin_density
 _atom_site_pbe_ddec_sum_bond_order
 _atom_site_pbe_magmom
Cu  Cu0  1  0.51196755  0.27226020  0.96971516  1  0  0.402135  0  2.033935  0  0  0.296386  0  2.541773  0  0  0.29914  0  2.49217  0  0  0.414977  0.298016  0  2.572743  0
Cu  Cu1  1  0.48800856  0.72774967  0.03030558  1  0  0.402044  0  2.033972  0  0  0.296293  0  2.541796  0  0  0.299006  0  2.492184  0  0  0.41494  0.297927  0  2.572784  0
H  H2  1  0.23840794  0.35807447  0.63468462  1  0  0.118197  0  0.930784  0  0  0.126062  0  0.99501  0  0  0.1295  0  0.990779  0  0  0.136621  0.123282  0  0.998422  0
H  H3  1  0.76159874  0.64192317  0.36530425  1  0  0.118289  0  0.930662  0  0  0.126204  0  0.994844  0  0  0.129647  0  0.990616  0  0  0.136657  0.123415  0  0.998266  0
H  H4  1  0.11023780  0.71564644  0.82315318  1  0  0.115402  0  0.952269  0  0  0.123269  0  1.01876  0  0  0.126509  0  1.015201  0  0  0.130633  0.120586  0  1.021689  0
H  H5  1  0.88977367  0.28436521  0.17683654  1  0  0.115342  0  0.952021  0  0  0.123197  0  1.018566  0  0  0.126438  0  1.015006  0  0  0.130599  0.120535  0  1.021468  0
H  H6  1  0.92773498  0.21972128  0.56141955  1  0  0.094395  0  0.955963  0  0  0.10533  0  1.022983  0  0  0.106752  0  1.022759  0  0  0.10133  0.104103  0  1.023358  0
H  H7  1  0.07225470  0.78026848  0.43859498  1  0  0.094435  0  0.955871  0  0  0.105357  0  1.022913  0  0  0.106804  0  1.022711  0  0  0.101375  0.104116  0  1.023284  0
H  H8  1  0.80498490  0.98135831  0.71556273  1  0  0.08609  0  0.957736  0  0  0.088645  0  1.044056  0  0  0.092813  0  1.038162  0  0  0.101514  0.08537  0  1.048465  0
H  H9  1  0.19501964  0.01863622  0.28445052  1  0  0.086109  0  0.957674  0  0  0.088677  0  1.043993  0  0  0.092871  0  1.038118  0  0  0.101556  0.085396  0  1.048383  0
C  C10  1  0.24852148  0.19977158  0.70520749  1  0  0.167914  0  3.604491  0  0  0.10503  0  3.871844  0  0  0.118893  0  3.881612  0  0  0.155432  0.095605  0  3.865928  0
C  C11  1  0.75148825  0.80024938  0.29478157  1  0  0.167892  0  3.60481  0  0  0.104935  0  3.872155  0  0  0.118781  0  3.881927  0  0  0.155517  0.095519  0  3.866235  0
C  C12  1  0.18485487  0.86755907  0.79869925  1  0  0.160109  0  3.596931  0  0  0.099653  0  3.857194  0  0  0.112253  0  3.868418  0  0  0.15089  0.09122  0  3.850311  0
C  C13  1  0.81515364  0.13241839  0.20129173  1  0  0.160247  0  3.596822  0  0  0.099774  0  3.857085  0  0  0.11237  0  3.868313  0  0  0.150952  0.091331  0  3.850197  0
C  C14  1  0.95874947  0.05435837  0.59870841  1  0  -0.024539  0  3.614798  0  0  -0.085608  0  3.863188  0  0  -0.083021  0  3.873752  0  0  -0.058646  -0.087112  0  3.856403  0
C  C15  1  0.04123212  0.94564842  0.40128912  1  0  -0.02463  0  3.615268  0  0  -0.085701  0  3.863633  0  0  -0.083313  0  3.874373  0  0  -0.058636  -0.087138  0  3.85679  0
N  N16  1  0.37530110  0.12946127  0.81309187  1  0  -0.232925  0  3.267103  0  0  -0.181898  0  3.601798  0  0  -0.188593  0  3.602236  0  0  -0.286726  -0.178481  0  3.601985  0
N  N17  1  0.62470211  0.87055032  0.18689774  1  0  -0.232801  0  3.267348  0  0  -0.181785  0  3.602032  0  0  -0.188462  0  3.602457  0  0  -0.286787  -0.178372  0  3.602226  0
N  N18  1  0.33626361  0.91628294  0.87042599  1  0  -0.222576  0  3.26533  0  0  -0.171826  0  3.59539  0  0  -0.177799  0  3.596495  0  0  -0.282051  -0.168958  0  3.595182  0
N  N19  1  0.66374319  0.08371935  0.12955495  1  0  -0.22263  0  3.265626  0  0  -0.171836  0  3.595649  0  0  -0.177818  0  3.596772  0  0  -0.281981  -0.168965  0  3.595446  0
N  N20  1  0.12584313  0.04092426  0.69462845  1  0  -0.07047  0  3.52514  0  0  0.028562  0  3.738854  0  0  0.011404  0  3.764575  0  0  -0.230404  0.03965  0  3.721675  0
N  N21  1  0.87418167  0.95906729  0.30536676  1  0  -0.070757  0  3.526062  0  0  0.028301  0  3.739758  0  0  0.011194  0  3.765528  0  0  -0.230649  0.039373  0  3.72257  0
Cl  Cl22  1  0.22440604  0.46159980  0.21026977  1  0  -0.593657  0  1.215872  0  0  -0.533522  0  1.575046  0  0  -0.547694  0  1.541955  0  0  -0.333556  -0.523222  0  1.596624  0
Cl  Cl23  1  0.77557692  0.53840856  0.78974016  1  0  -0.593614  0  1.215705  0  0  -0.533499  0  1.574889  0  0  -0.547677  0  1.541807  0  0  -0.333557  -0.523198  0  1.596464  0
