# generated using pymatgen
data_ZnH20C42(NO10)2
_symmetry_space_group_name_H-M   'P 1'
_cell_length_a   16.86802670
_cell_length_b   17.43454345
_cell_length_c   27.86896035
_cell_angle_alpha   92.04885852
_cell_angle_beta   90.86545480
_cell_angle_gamma   90.39755035
_symmetry_Int_Tables_number   1
_chemical_formula_structural   ZnH20C42(NO10)2
_chemical_formula_sum   'Zn2 H40 C84 N4 O40'
_cell_volume   8189.47732697
_cell_formula_units_Z   2
loop_
 _symmetry_equiv_pos_site_id
 _symmetry_equiv_pos_as_xyz
  1  'x, y, z'
loop_
 _atom_site_type_symbol
 _atom_site_label
 _atom_site_symmetry_multiplicity
 _atom_site_fract_x
 _atom_site_fract_y
 _atom_site_fract_z
 _atom_site_occupancy
 _atom_site_pbe_bader_charge
 _atom_site_pbe_bader_spin_density
 _atom_site_pbe_cm5_charge
 _atom_site_pbe_ddec_charge
 _atom_site_pbe_ddec_spin_density
 _atom_site_pbe_ddec_sum_bond_order
 _atom_site_pbe_magmom
Zn  Zn0  1  0.41107208  0.50051367  0.50227096  1  1.312988  0  0.676474  0.855145  0  2.324328  0
Zn  Zn1  1  0.58329942  0.49617363  0.50245823  1  1.304425  0  0.674602  0.85827  0  2.333235  0
H  H2  1  0.37255336  0.50663176  0.35158408  1  0.147033  0  0.112383  0.126425  0  1.008825  0
H  H3  1  0.37975651  0.51410387  0.65687472  1  0.157751  0  0.116411  0.133253  0  0.99622  0
H  H4  1  0.47436505  0.31339644  0.12088355  1  0.124591  0  0.114756  0.120556  0  0.98017  0
H  H5  1  0.55578665  0.68775105  0.88189134  1  0.116264  0  0.115333  0.121918  0  0.978554  0
H  H6  1  0.63222276  0.48446096  0.64829946  1  0.117358  0  0.108189  0.121219  0  1.002199  0
H  H7  1  0.62669719  0.48895082  0.35039311  1  0.135666  0  0.10719  0.119125  0  1.011921  0
H  H8  1  0.64034767  0.47782850  0.73773183  1  0.085648  0  0.114565  0.123531  0  0.970264  0
H  H9  1  0.62302606  0.49853650  0.26096323  1  0.088586  0  0.11428  0.122981  0  0.96963  0
H  H10  1  0.54594137  0.30688303  0.87640119  1  0.092577  0  0.113675  0.120814  0  0.999778  0
H  H11  1  0.48504528  0.69421747  0.12713267  1  0.113474  0  0.112638  0.119493  0  1.001306  0
H  H12  1  0.48177677  0.31070029  0.03232182  1  0.069821  0  0.106613  0.104844  0  1.029443  0
H  H13  1  0.55306739  0.69061452  0.97057758  1  0.056847  0  0.106998  0.104875  0  1.028902  0
H  H14  1  0.37450329  0.73428011  0.47142865  1  0.12848  0  0.112514  0.12227  0  1.013285  0
H  H15  1  0.59383726  0.24766607  0.53872967  1  0.147321  0  0.121642  0.136081  0  0.974116  0
H  H16  1  0.41262388  0.27403565  0.43093606  1  0.118834  0  0.108632  0.107309  0  1.038938  0
H  H17  1  0.62859888  0.73667722  0.48311018  1  0.119741  0  0.115157  0.128118  0  0.99219  0
H  H18  1  0.03266500  0.30529369  0.46018696  1  0.6226  0  0.352691  0.399568  0  0.831751  0
H  H19  1  0.96100958  0.59257067  0.61979260  1  0.637582  0  0.357034  0.403029  0  0.823614  0
H  H20  1  0.04311268  0.70655156  0.53933051  1  0.63538  0  0.3567  0.40126  0  0.824645  0
H  H21  1  0.95966002  0.41223618  0.38357157  1  0.640221  0  0.349637  0.399636  0  0.83675  0
H  H22  1  0.32607379  0.34974076  0.39085039  1  0.633218  0  0.360505  0.402952  0  0.81967  0
H  H23  1  0.64978347  0.67317267  0.58658817  1  0.650756  0  0.368659  0.406844  0  0.804771  0
H  H24  1  0.30030539  0.73037348  0.55343767  1  0.633632  0  0.361366  0.404127  0  0.818295  0
H  H25  1  0.64313479  0.31660515  0.42442374  1  0.630386  0  0.360324  0.397177  0  0.820572  0
H  H26  1  0.28457859  0.52650677  0.20346929  1  0.617763  0  0.346092  0.380208  0  0.853724  0
H  H27  1  0.31317532  0.51388859  0.80915159  1  0.628575  0  0.34473  0.379858  0  0.855983  0
H  H28  1  0.61958206  0.22350428  0.90637048  1  0.058679  0  0.090899  0.117844  0  1.007052  0
H  H29  1  0.68830025  0.28630757  0.93686752  1  0.013147  0  0.089942  0.119443  0  0.994353  0
H  H30  1  0.66167411  0.19758015  0.96192430  1  0.022514  0  0.091286  0.119164  0  0.995562  0
H  H31  1  0.59373989  0.29824011  0.00683162  1  0.051955  0  0.095267  0.092256  0  0.997543  0
H  H32  1  0.52263558  0.24388973  0.97349266  1  0.038508  0  0.097771  0.09335  0  0.964737  0
H  H33  1  0.34684306  0.71711540  0.06627886  1  0.047359  0  0.089281  0.118383  0  0.995087  0
H  H34  1  0.41599349  0.77992440  0.09639423  1  0.049495  0  0.09033  0.116926  0  1.008293  0
H  H35  1  0.37444151  0.80499625  0.04052641  1  0.029506  0  0.091198  0.119603  0  0.99453  0
H  H36  1  0.51315236  0.75716840  0.02964986  1  0.024582  0  0.0973  0.092832  0  0.965243  0
H  H37  1  0.44159044  0.70324875  0.99647201  1  0.027582  0  0.095698  0.092863  0  0.997817  0
H  H38  1  0.29385404  0.95203516  0.41785933  1  0.634884  0  0.349576  0.38459  0  0.84652  0
H  H39  1  0.64834893  0.00468996  0.54932026  1  0.633369  0  0.345173  0.389102  0  0.845274  0
H  H40  1  0.41529048  0.06930471  0.33584242  1  0.623103  0  0.350361  0.386348  0  0.841881  0
H  H41  1  0.72090964  0.94753528  0.43117541  1  0.603937  0  0.350506  0.386722  0  0.841168  0
C  C42  1  0.49257409  0.35289186  0.50093770  1  1.58103  0  0.216087  0.594644  0  4.176203  0
C  C43  1  0.50003391  0.64359526  0.48995858  1  1.602656  0  0.214281  0.594324  0  4.173606  0
C  C44  1  0.49935512  0.49258404  0.41006302  1  1.556441  0  0.214379  0.595176  0  4.168187  0
C  C45  1  0.50098087  0.50370874  0.59359300  1  1.585553  0  0.22058  0.606157  0  4.148634  0
C  C46  1  0.49162561  0.43419041  0.18104247  1  1.331064  0  0.238763  0.437745  0  4.112416  0
C  C47  1  0.53246915  0.56668277  0.82202155  1  1.333845  0  0.239532  0.443959  0  4.111565  0
C  C48  1  0.50197048  0.57762745  0.18318037  1  1.324166  0  0.239361  0.444265  0  4.105369  0
C  C49  1  0.52377801  0.42320645  0.82050067  1  1.398622  0  0.24061  0.448021  0  4.106601  0
C  C50  1  0.56847220  0.50031348  0.28142955  1  0.050124  0  -0.077685  -0.149356  0  3.958708  0
C  C51  1  0.58356152  0.48577992  0.71948364  1  0.016807  0  -0.078073  -0.148465  0  3.969262  0
C  C52  1  0.57057458  0.49528000  0.33114583  1  -0.066497  0  -0.066693  -0.051161  0  3.926228  0
C  C53  1  0.57900648  0.48905931  0.66978084  1  -0.019612  0  -0.067105  -0.053599  0  3.934177  0
C  C54  1  0.42768210  0.50474826  0.33178798  1  0.042273  0  -0.064426  -0.077421  0  3.902045  0
C  C55  1  0.43704196  0.50587547  0.67444222  1  -0.010495  0  -0.057921  -0.069407  0  3.875002  0
C  C56  1  0.42449364  0.50853464  0.28169539  1  -0.018692  0  -0.007887  -0.108655  0  3.92739  0
C  C57  1  0.44086389  0.50385023  0.72470717  1  -0.008068  0  -0.006671  -0.105057  0  3.913545  0
C  C58  1  0.49645140  0.50629961  0.25671267  1  0.287167  0  0.108566  0.198959  0  3.964713  0
C  C59  1  0.51559082  0.49394980  0.74688199  1  0.356079  0  0.107303  0.199437  0  3.967057  0
C  C60  1  0.50427870  0.50352571  0.10393589  1  -0.047472  0  -0.000444  0.031089  0  4.018096  0
C  C61  1  0.52754562  0.49767949  0.89962389  1  -0.005281  0  0.000541  0.031489  0  4.018451  0
C  C62  1  0.49596900  0.43415928  0.12826898  1  0.012162  0  -0.013722  -0.07138  0  4.01411  0
C  C63  1  0.53407490  0.56688981  0.87497823  1  -0.071157  0  -0.011701  -0.06545  0  4.006175  0
C  C64  1  0.48688252  0.36560150  0.10190604  1  -0.050749  0  -0.073295  -0.072254  0  3.984749  0
C  C65  1  0.54469666  0.63547219  0.90110518  1  -0.014421  0  -0.072689  -0.074748  0  3.981718  0
C  C66  1  0.50203890  0.57444050  0.13013324  1  0.030604  0  -0.013791  -0.071883  0  4.032114  0
C  C67  1  0.52861406  0.42667049  0.87352542  1  -0.105824  0  -0.011973  -0.067089  0  4.027992  0
C  C68  1  0.49960972  0.49753605  0.35655228  1  -0.005005  0  -0.014694  -0.03537  0  3.967019  0
C  C69  1  0.50541231  0.49932293  0.64707797  1  0.001306  0  -0.010814  -0.031366  0  3.956937  0
C  C70  1  0.52456174  0.42713070  0.97511780  1  -0.02629  0  0.002913  -0.020286  0  3.923366  0
C  C71  1  0.51013545  0.57439030  0.02851201  1  0.00451  0  0.003991  -0.019051  0  3.91786  0
C  C72  1  0.52280705  0.57097228  0.97669763  1  -0.051096  0  0.002605  0.04601  0  3.963144  0
C  C73  1  0.51178145  0.43049340  0.02687625  1  0.015384  0  0.004157  0.04678  0  3.966155  0
C  C74  1  0.52293860  0.49829276  0.95077369  1  -0.010194  0  0.002752  0.001957  0  3.9222  0
C  C75  1  0.51100535  0.50313479  0.05285622  1  0.033404  0  0.00302  0.002828  0  3.916432  0
C  C76  1  0.54256800  0.35867950  0.94836726  1  -0.015105  0  0.003955  0.085074  0  3.868547  0
C  C77  1  0.49167102  0.64282758  0.05519137  1  0.030341  0  0.00268  0.082013  0  3.870202  0
C  C78  1  0.53880847  0.35974029  0.89792995  1  0.043802  0  -0.071236  -0.124995  0  3.937721  0
C  C79  1  0.49335427  0.64150907  0.10564235  1  -0.066497  0  -0.071498  -0.122381  0  3.93844  0
C  C80  1  0.49336116  0.36444747  0.05206379  1  -0.063897  0  -0.085849  -0.131502  0  3.98944  0
C  C81  1  0.54062861  0.63678576  0.95111441  1  0.040078  0  -0.084826  -0.129816  0  3.985981  0
C  C82  1  0.43064422  0.84146014  0.45611992  1  -0.018375  0  -0.005258  -0.076004  0  3.914173  0
C  C83  1  0.56018650  0.14484472  0.49834359  1  0.006088  0  -0.003403  -0.079134  0  3.896113  0
C  C84  1  0.46282112  0.16205409  0.43373802  1  -0.002525  0  -0.008248  -0.082453  0  3.916231  0
C  C85  1  0.57499525  0.84325614  0.46357590  1  -0.015907  0  -0.001531  -0.066148  0  3.902676  0
C  C86  1  0.43073986  0.76470490  0.46863801  1  -0.000833  0  -0.064904  -0.091532  0  3.928733  0
C  C87  1  0.55485582  0.22300843  0.51063490  1  -0.049086  0  -0.056857  -0.077307  0  3.90679  0
C  C88  1  0.45436402  0.23812904  0.44967160  1  -0.038332  0  -0.064476  -0.081275  0  3.937117  0
C  C89  1  0.57347104  0.76624309  0.47521183  1  -0.021785  0  -0.063029  -0.090542  0  3.916956  0
C  C90  1  0.50145199  0.72644929  0.47755667  1  0.039742  0  -0.010518  -0.018869  0  3.96467  0
C  C91  1  0.49952826  0.26919483  0.48795686  1  0.061943  0  -0.010592  -0.022208  0  3.966081  0
C  C92  1  0.50342210  0.88262694  0.45340057  1  0.106379  0  0.024423  0.11488  0  4.01918  0
C  C93  1  0.51253999  0.11214636  0.45996288  1  0.141196  0  0.022984  0.11188  0  4.025141  0
C  C94  1  0.50563985  0.96257453  0.44791274  1  0.063979  0  -0.028396  -0.059426  0  4.063623  0
C  C95  1  0.51129171  0.03226794  0.45053029  1  -0.322979  0  -0.029931  -0.05868  0  4.070747  0
C  C96  1  0.15680879  0.44493362  0.47576878  1  0.0974  0  0.023356  -0.097851  0  3.838027  0
C  C97  1  0.83699731  0.54479547  0.53514120  1  0.022157  0  0.02226  -0.097016  0  3.842596  0
C  C98  1  0.16120396  0.56486034  0.52239247  1  0.128525  0  0.020813  -0.096548  0  3.839366  0
C  C99  1  0.83567221  0.45598660  0.46633574  1  0.084628  0  0.022182  -0.096434  0  3.840685  0
C  C100  1  0.23966140  0.44637561  0.47568408  1  0.472638  0  0.152436  0.140177  0  3.847888  0
C  C101  1  0.75425585  0.54144406  0.53421088  1  0.540345  0  0.14826  0.131133  0  3.86241  0
C  C102  1  0.24374103  0.55976061  0.52256496  1  0.524169  0  0.1502  0.134171  0  3.86331  0
C  C103  1  0.75320683  0.45345444  0.46936999  1  0.521984  0  0.147324  0.12692  0  3.87063  0
C  C104  1  0.11675078  0.50573570  0.49898475  1  0.087205  0  0.037956  0.141188  0  4.060315  0
C  C105  1  0.87864087  0.50220938  0.50012670  1  0.085369  0  0.037523  0.143546  0  4.054453  0
C  C106  1  0.03360566  0.50646278  0.49907667  1  -0.087307  0  -0.009393  -0.049461  0  4.060157  0
C  C107  1  0.96170542  0.50490234  0.49935484  1  -0.109691  0  -0.012863  -0.056126  0  4.06344  0
C  C108  1  0.10679975  0.38486405  0.44899273  1  1.58136  0  0.241302  0.591101  0  4.148825  0
C  C109  1  0.88372491  0.59673921  0.56967393  1  1.570744  0  0.238419  0.588074  0  4.157392  0
C  C110  1  0.11674588  0.62671278  0.54959333  1  1.504995  0  0.237595  0.584776  0  4.159467  0
C  C111  1  0.88247895  0.40537030  0.43227454  1  1.551612  0  0.239399  0.591234  0  4.15026  0
C  C112  1  0.27561680  0.37823290  0.44873626  1  1.610074  0  0.244054  0.552746  0  4.149399  0
C  C113  1  0.71534157  0.58810928  0.57416983  1  1.604152  0  0.245133  0.55567  0  4.156292  0
C  C114  1  0.28853011  0.62132328  0.55195709  1  1.601178  0  0.240728  0.543266  0  4.154214  0
C  C115  1  0.71216607  0.40193859  0.43170427  1  1.611746  0  0.243584  0.556778  0  4.154942  0
C  C116  1  0.34339651  0.51300941  0.26002591  1  1.529921  0  0.231785  0.588189  0  4.103074  0
C  C117  1  0.36380299  0.51300825  0.74972952  1  1.514546  0  0.231263  0.585051  0  4.10144  0
C  C118  1  0.57196805  0.28521766  0.97010599  1  -0.026735  0  -0.157559  -0.14633  0  3.97219  0
C  C119  1  0.63887927  0.24613315  0.94192571  1  -0.060835  0  -0.240249  -0.352683  0  3.965324  0
C  C120  1  0.46329948  0.71646649  0.03319283  1  0.001332  0  -0.157165  -0.145318  0  3.971712  0
C  C121  1  0.39667604  0.75671131  0.06098469  1  -0.096972  0  -0.240415  -0.352849  0  3.967031  0
C  C122  1  0.35093086  0.87659833  0.45003141  1  1.522846  0  0.231987  0.583437  0  4.123824  0
C  C123  1  0.62092507  0.10198539  0.52636251  1  1.525287  0  0.229196  0.577541  0  4.128763  0
C  C124  1  0.41879418  0.14044839  0.38835875  1  1.498482  0  0.228532  0.579001  0  4.130298  0
C  C125  1  0.65358481  0.88337956  0.46563007  1  1.503983  0  0.235685  0.59083  0  4.122686  0
N  N126  1  0.49913729  0.50626680  0.20511420  1  -1.188029  0  -0.237347  -0.213795  0  3.596168  0
N  N127  1  0.52552854  0.49426103  0.79828927  1  -1.202444  0  -0.236443  -0.230803  0  3.624891  0
N  N128  1  0.28280928  0.50219168  0.49923270  1  -1.181181  0  -0.270772  -0.217754  0  3.346318  0
N  N129  1  0.71246403  0.49612996  0.50223567  1  -1.148615  0  -0.271514  -0.218391  0  3.343155  0
O  O130  1  0.42725033  0.38453195  0.48999696  1  -1.162292  0  -0.312698  -0.546827  0  2.356134  0
O  O131  1  0.56397057  0.60698700  0.48315956  1  -1.157661  0  -0.314723  -0.544931  0  2.363844  0
O  O132  1  0.43536700  0.61720875  0.50597166  1  -1.166906  0  -0.316594  -0.553925  0  2.347893  0
O  O133  1  0.55334326  0.38573476  0.51991307  1  -1.161153  0  -0.316955  -0.545177  0  2.336967  0
O  O134  1  0.43589350  0.51232498  0.43080259  1  -1.161631  0  -0.31099  -0.539617  0  2.370141  0
O  O135  1  0.56473493  0.52358323  0.57282563  1  -1.172351  0  -0.324903  -0.57537  0  2.376164  0
O  O136  1  0.43509929  0.48749691  0.57297815  1  -1.147064  0  -0.307754  -0.529028  0  2.353752  0
O  O137  1  0.56242440  0.46884828  0.43071859  1  -1.173561  0  -0.324111  -0.57305  0  2.354125  0
O  O138  1  0.48284097  0.37552152  0.20379680  1  -1.108018  0  -0.291216  -0.454148  0  2.058365  0
O  O139  1  0.53548414  0.62557116  0.79901363  1  -1.098689  0  -0.288299  -0.449233  0  2.053965  0
O  O140  1  0.51808377  0.36274193  0.79647160  1  -1.098688  0  -0.288226  -0.447604  0  2.049496  0
O  O141  1  0.50418992  0.63782374  0.20763949  1  -1.109324  0  -0.291111  -0.452205  0  2.054265  0
O  O142  1  0.09672925  0.38423803  0.40549770  1  -1.103323  0  -0.275438  -0.473148  0  2.051464  0
O  O143  1  0.07051855  0.33788757  0.47901202  1  -1.101097  0  -0.310933  -0.453611  0  2.217927  0
O  O144  1  0.88487945  0.66636653  0.56684747  1  -1.097772  0  -0.277235  -0.467924  0  2.039944  0
O  O145  1  0.92687692  0.55651073  0.60086388  1  -1.113263  0  -0.312937  -0.458935  0  2.216547  0
O  O146  1  0.11503169  0.63163321  0.59329215  1  -1.047744  0  -0.273084  -0.462675  0  2.045238  0
O  O147  1  0.07579732  0.67145518  0.51972795  1  -1.10558  0  -0.316074  -0.462563  0  2.215196  0
O  O148  1  0.88810376  0.33624034  0.43693347  1  -1.084242  0  -0.278125  -0.473014  0  2.043412  0
O  O149  1  0.92174233  0.44627898  0.40020821  1  -1.108905  0  -0.313759  -0.458528  0  2.223431  0
O  O150  1  0.26269570  0.31329885  0.46145501  1  -1.085263  0  -0.263093  -0.438527  0  2.074518  0
O  O151  1  0.31113495  0.39746989  0.40819750  1  -1.105026  0  -0.300236  -0.432212  0  2.27184  0
O  O152  1  0.72934500  0.57406380  0.61596224  1  -1.084149  0  -0.262755  -0.449569  0  2.092759  0
O  O153  1  0.67384424  0.64746840  0.55853231  1  -1.124309  0  -0.300802  -0.432801  0  2.291221  0
O  O154  1  0.32584301  0.60981304  0.58836064  1  -1.082892  0  -0.241302  -0.403364  0  2.130927  0
O  O155  1  0.27337381  0.69047824  0.53338033  1  -1.107165  0  -0.315668  -0.467285  0  2.266169  0
O  O156  1  0.72415273  0.40984751  0.38911060  1  -1.104323  0  -0.267528  -0.454869  0  2.092541  0
O  O157  1  0.66997431  0.34589276  0.45072931  1  -1.107827  0  -0.301018  -0.432042  0  2.308645  0
O  O158  1  0.28244389  0.50715954  0.28287068  1  -1.127854  0  -0.30051  -0.492033  0  2.046739  0
O  O159  1  0.34116307  0.52475866  0.21180073  1  -1.129283  0  -0.334221  -0.484204  0  2.249434  0
O  O160  1  0.30065862  0.52450740  0.72924793  1  -1.131706  0  -0.296981  -0.486277  0  2.045797  0
O  O161  1  0.36789738  0.50701334  0.79859206  1  -1.150162  0  -0.337336  -0.490901  0  2.249209  0
O  O162  1  0.29225664  0.85568606  0.47149722  1  -1.132216  0  -0.302842  -0.495983  0  2.045568  0
O  O163  1  0.34848748  0.93318531  0.41776558  1  -1.129939  0  -0.329009  -0.477605  0  2.248246  0
O  O164  1  0.68157481  0.13245941  0.54261771  1  -1.122146  0  -0.298709  -0.486762  0  2.038906  0
O  O165  1  0.60283076  0.02711948  0.53265531  1  -1.13005  0  -0.326033  -0.477517  0  2.273716  0
O  O166  1  0.36440212  0.17814490  0.37185608  1  -1.132328  0  -0.307159  -0.505705  0  2.053645  0
O  O167  1  0.44740729  0.07691117  0.36524362  1  -1.114249  0  -0.324816  -0.469544  0  2.259201  0
O  O168  1  0.70036289  0.88003176  0.49947063  1  -1.119749  0  -0.300883  -0.50102  0  2.039311  0
O  O169  1  0.66900944  0.92276985  0.42566217  1  -1.091679  0  -0.328914  -0.476461  0  2.21654  0
