# generated using pymatgen
data_CuP3H19C14NO10
_symmetry_space_group_name_H-M   'P 1'
_cell_length_a   9.69776117
_cell_length_b   9.82466894
_cell_length_c   10.18750779
_cell_angle_alpha   80.38463359
_cell_angle_beta   74.43736152
_cell_angle_gamma   87.51416340
_symmetry_Int_Tables_number   1
_chemical_formula_structural   CuP3H19C14NO10
_chemical_formula_sum   'Cu2 P6 H38 C28 N2 O20'
_cell_volume   921.91500135
_cell_formula_units_Z   2
loop_
 _symmetry_equiv_pos_site_id
 _symmetry_equiv_pos_as_xyz
  1  'x, y, z'
loop_
 _atom_site_type_symbol
 _atom_site_label
 _atom_site_symmetry_multiplicity
 _atom_site_fract_x
 _atom_site_fract_y
 _atom_site_fract_z
 _atom_site_occupancy
 _atom_site_hle17_ddec_charge
 _atom_site_hle17_ddec_spin_density
 _atom_site_hle17_ddec_sum_bond_order
 _atom_site_hle17_magmom
 _atom_site_hse06_10hf_ddec_charge
 _atom_site_hse06_10hf_ddec_spin_density
 _atom_site_hse06_10hf_ddec_sum_bond_order
 _atom_site_hse06_10hf_magmom
 _atom_site_hse06_ddec_charge
 _atom_site_hse06_ddec_spin_density
 _atom_site_hse06_ddec_sum_bond_order
 _atom_site_hse06_magmom
 _atom_site_pbe_cm5_charge
 _atom_site_pbe_ddec_charge
 _atom_site_pbe_ddec_spin_density
 _atom_site_pbe_ddec_sum_bond_order
 _atom_site_pbe_magmom
Cu  Cu0  1  0.79425413  0.35257049  0.71236198  1  1.091613  -0.726269  1.663219  -0.557  1.088451  -0.814331  2.04842  -0.682  1.152496  -0.871205  2.012976  -0.761  0.77738  1.039771  -0.772136  2.087917  -0.629
Cu  Cu1  1  0.27780986  0.67561049  0.67809462  1  1.084433  -0.729706  1.686759  -0.558  1.081356  -0.8137  2.070179  -0.68  1.153825  -0.869445  2.017665  -0.757  0.782059  1.032583  -0.772101  2.10944  -0.627
P  P2  1  0.86133063  0.10537082  0.52129045  1  1.529901  -0.002174  4.666957  -0.002  1.385525  -0.00401  5.167216  -0.004  1.436317  -0.002694  5.125051  -0.003  0.391259  1.349937  -0.005236  5.195978  -0.004
P  P3  1  0.18203672  0.49620401  0.00385996  1  1.535833  -0.003591  4.723077  -0.006  1.388584  -0.004253  5.214192  -0.007  1.43916  -0.003374  5.172701  -0.006  0.377337  1.353231  -0.005151  5.242087  -0.008
P  P4  1  0.87804458  0.53234972  0.38534807  1  1.534637  -0.002827  4.720619  -0.005  1.38659  -0.003802  5.211628  -0.006  1.437352  -0.002946  5.169985  -0.005  0.377154  1.351347  -0.004707  5.239365  -0.007
P  P5  1  0.20681795  0.92499127  0.86503574  1  1.529524  -0.002036  4.679601  -0.001  1.384714  -0.004031  5.180789  -0.004  1.435347  -0.002697  5.139354  -0.003  0.385743  1.34896  -0.005305  5.209333  -0.004
P  P6  1  0.37764609  0.37803254  0.62073783  1  1.531916  -0.001205  4.693527  0.002  1.388166  -0.003931  5.187194  -0.001  1.437656  -0.002446  5.151185  -0.001  0.365401  1.353529  -0.005306  5.211476  -0.002
P  P7  1  0.67171672  0.64529598  0.76833884  1  1.518038  -0.00135  4.717412  0.002  1.375516  -0.003983  5.21202  -0.001  1.42577  -0.002421  5.175531  -0.001  0.355528  1.340559  -0.005453  5.236269  -0.002
H  H8  1  0.09836710  0.59212169  0.25063185  1  0.4471  3.7e-05  0.853263  0.0  0.410851  -2.4e-05  0.924118  0.0  0.423053  -1.7e-05  0.906803  0.0  0.305729  0.402251  -3.2e-05  0.936284  0.0
H  H9  1  0.22118891  0.74223937  0.03144951  1  0.445816  7e-06  0.859634  0.0  0.407525  1.2e-05  0.933879  0.0  0.419387  1.7e-05  0.917101  0.0  0.305925  0.399322  4e-06  0.945533  0.0
H  H10  1  0.90650730  0.69692194  0.64545115  1  0.444826  -4.3e-05  0.861503  0.0  0.409054  -2.6e-05  0.930004  0.0  0.421763  -2.3e-05  0.912406  0.0  0.301873  0.400209  -2.9e-05  0.942296  0.0
H  H11  1  0.84109409  0.28813891  0.35672574  1  0.448604  1.3e-05  0.857386  0.0  0.409552  1.4e-05  0.932491  0.0  0.421618  1.6e-05  0.915495  0.0  0.306587  0.401249  5e-06  0.944229  0.0
H  H12  1  0.96309456  0.43542386  0.13925758  1  0.444863  -1.3e-05  0.856999  0.0  0.409243  -6.2e-05  0.927163  0.0  0.421209  -4.6e-05  0.910145  0.0  0.306162  0.400801  -7.6e-05  0.939124  0.0
H  H13  1  0.77185026  0.88989592  0.61673893  1  0.441827  6.7e-05  0.864536  0.0  0.40596  2.2e-05  0.934554  0.0  0.418025  1.8e-05  0.917377  0.0  0.309736  0.39761  2.6e-05  0.946434  0.0
H  H14  1  0.52570699  0.49608231  0.69069669  1  0.433055  0.000252  0.885144  0.0  0.396487  0.000223  0.959711  0.0  0.408058  0.000237  0.943081  0.0  0.302146  0.3886  0.000191  0.970988  0.0
H  H15  1  0.29389365  0.14549671  0.76798246  1  0.448109  6.1e-05  0.861813  0.0  0.408845  5e-06  0.937605  0.0  0.42137  1e-05  0.9201  0.0  0.301091  0.400172  1e-06  0.949706  0.0
H  H16  1  0.44123957  0.99364910  0.00327841  1  0.118055  -0.000815  0.978058  -0.001  0.124486  -0.000649  1.042764  -0.001  0.127206  -0.000432  1.042067  -0.001  0.11168  0.12203  -0.000754  1.044217  -0.001
H  H17  1  0.61729127  0.04159580  0.38651286  1  0.11554  -0.000772  0.9819  -0.001  0.122146  -0.000612  1.046082  -0.001  0.12478  -0.000408  1.045454  -0.001  0.110941  0.119764  -0.000736  1.047511  -0.001
H  H18  1  0.04755801  0.07199574  0.99997806  1  0.137432  -0.001017  0.934446  -0.001  0.151427  -0.000751  0.990721  -0.001  0.153672  -0.000488  0.990038  -0.001  0.108559  0.149932  -0.001026  0.99122  -0.001
H  H19  1  0.00865716  0.06967836  0.83967463  1  0.157246  0.000536  0.92252  0.0  0.170295  0.000154  0.977131  0.0  0.173092  0.000126  0.976418  0.0  0.114827  0.168271  0.000162  0.977823  0.0
H  H20  1  0.54073757  0.36327591  0.40176026  1  0.142706  0.000518  0.924896  0.0  0.156933  0.000172  0.977987  0.0  0.15965  0.00013  0.97688  0.0  0.109771  0.154884  0.000203  0.97923  0.0
H  H21  1  0.50606813  0.20179121  0.51027710  1  0.142091  -0.001515  0.936741  -0.002  0.155243  -0.000777  0.993963  -0.001  0.156318  -0.000465  0.994993  -0.001  0.111197  0.15433  -0.001105  0.993898  -0.001
H  H22  1  0.57083833  0.14135467  0.79072592  1  0.095234  -0.001194  0.936822  -0.002  0.100377  -0.000976  1.004387  -0.002  0.102131  -0.000636  1.00147  -0.001  0.122756  0.098861  -0.001284  1.006657  -0.002
H  H23  1  0.83600317  0.91422133  0.82008253  1  0.100364  0.000793  0.961286  0.001  0.11102  4.2e-05  1.026285  0.0  0.113837  3.9e-05  1.025177  0.0  0.09895  0.108673  3e-05  1.027905  0.0
H  H24  1  0.22755393  0.11524532  0.56413589  1  0.105014  0.000697  0.959069  0.001  0.115883  4.5e-05  1.02239  0.0  0.118903  3.8e-05  1.021082  0.0  0.100834  0.113365  2.6e-05  1.024156  0.0
H  H25  1  0.96843020  0.86633782  0.19509200  1  0.094657  0.000593  0.95419  0.001  0.106936  -2.9e-05  1.016989  0.0  0.109834  -1.2e-05  1.015745  0.0  0.095986  0.104692  -2.4e-05  1.018635  0.0
H  H26  1  0.48978999  0.89232443  0.59950687  1  0.094845  -0.001219  0.937888  -0.002  0.099229  -0.001011  1.006859  -0.002  0.101103  -0.000675  1.003891  -0.001  0.12224  0.097647  -0.001332  1.009086  -0.002
H  H27  1  0.09798507  0.15920184  0.18737219  1  0.094599  0.000506  0.953184  0.001  0.107196  -2.8e-05  1.015279  0.0  0.110216  -1.4e-05  1.013947  0.0  0.095774  0.104854  -2.6e-05  1.017021  0.0
H  H28  1  0.56084679  0.83299677  0.87182123  1  0.142005  -0.001811  0.937093  -0.003  0.154281  -0.00091  0.996245  -0.001  0.155316  -0.000536  0.997304  -0.001  0.110954  0.153456  -0.001296  0.996025  -0.002
H  H29  1  0.51636992  0.67571421  0.98507457  1  0.142374  0.000584  0.925627  0.0  0.156248  0.000185  0.980056  0.0  0.158906  0.000139  0.978973  0.0  0.110356  0.154137  0.00022  0.981428  0.0
H  H30  1  0.05767740  0.95554649  0.54206268  1  0.159781  0.000491  0.919996  0.0  0.174258  0.000146  0.9716  0.0  0.176939  0.000122  0.97126  0.0  0.116311  0.172272  0.000156  0.972114  0.0
H  H31  1  0.01456046  0.95734114  0.38253878  1  0.13738  -0.000957  0.934268  -0.001  0.151457  -0.00074  0.990204  -0.001  0.153867  -0.000487  0.98944  -0.001  0.108693  0.149855  -0.000998  0.990751  -0.001
H  H32  1  0.61418393  0.62934264  0.17489546  1  0.092937  0.000236  0.946888  0.0  0.104751  6e-06  1.009178  0.0  0.107729  7e-06  1.007776  0.0  0.096919  0.102683  2.7e-05  1.009817  0.0
H  H33  1  0.36118986  0.85785468  0.17188061  1  0.121177  -0.000602  0.96599  -0.001  0.130872  -0.000469  1.023909  -0.001  0.133735  -0.000323  1.023207  0.0  0.11164  0.128389  -0.000588  1.025115  -0.001
H  H34  1  0.71486162  0.15800215  0.21408758  1  0.119784  -0.000589  0.968535  -0.001  0.129578  -0.000451  1.026096  -0.001  0.132442  -0.000305  1.025407  0.0  0.110279  0.127144  -0.000575  1.027206  -0.001
H  H35  1  0.65369352  0.64031609  0.39534018  1  0.152576  0.000402  0.91944  0.0  0.167298  0.00017  0.970669  0.0  0.169955  0.000143  0.970419  0.0  0.113864  0.165376  0.000192  0.970937  0.0
H  H36  1  0.78046649  0.75401673  0.41303204  1  0.145789  0.000316  0.938318  0.0  0.157214  0.000148  0.997732  0.0  0.159839  0.000121  0.997207  0.0  0.109171  0.155031  0.000149  0.998879  0.0
H  H37  1  0.82148481  0.30996639  0.99501032  1  0.092021  -0.001273  0.952671  -0.002  0.098901  -0.000978  1.015898  -0.002  0.100518  -0.000639  1.013436  -0.001  0.122818  0.097575  -0.00126  1.017671  -0.002
H  H38  1  0.25783723  0.70420527  0.39191097  1  0.09437  -0.001223  0.946615  -0.002  0.101924  -0.000944  1.008472  -0.002  0.103514  -0.00062  1.006327  -0.001  0.123041  0.100524  -0.001207  1.010141  -0.002
H  H39  1  0.28222982  0.27723655  0.96914528  1  0.150064  0.000342  0.937272  0.0  0.161891  0.000134  0.995478  0.0  0.164741  0.000106  0.994912  0.0  0.110732  0.159475  0.000141  0.996788  0.0
H  H40  1  0.40851085  0.39093972  0.98855059  1  0.151817  0.000336  0.920051  0.0  0.166506  0.000153  0.971929  0.0  0.169192  0.000134  0.971552  0.0  0.113281  0.164554  0.000171  0.972338  0.0
H  H41  1  0.44958666  0.39912594  0.20860356  1  0.094376  0.000215  0.944919  0.0  0.106469  5e-06  1.00669  0.0  0.109508  6e-06  1.005238  0.0  0.097783  0.104332  2.7e-05  1.007439  0.0
H  H42  1  0.05566803  0.62221285  0.52071082  1  0.426882  -3.3e-05  0.851779  0.0  0.40061  -1.8e-05  0.920051  0.0  0.41042  -1.8e-05  0.907946  0.0  0.308964  0.393646  -2.4e-05  0.928063  0.0
H  H43  1  0.99828762  0.42112928  0.86099745  1  0.425532  -1.5e-05  0.856165  0.0  0.401057  1.2e-05  0.921562  0.0  0.410828  1e-05  0.907123  0.0  0.30519  0.394188  9e-06  0.930891  0.0
H  H44  1  0.10381753  0.34743244  0.74821738  1  0.438024  -3e-06  0.862285  0.0  0.407932  1.4e-05  0.923444  0.0  0.41892  1.6e-05  0.907686  0.0  0.296633  0.400312  1.1e-05  0.934413  0.0
H  H45  1  0.02986013  0.54652554  0.67525001  1  0.433977  9.8e-05  0.863389  0.0  0.401778  0.000106  0.934184  0.0  0.413123  0.000103  0.917765  0.0  0.297388  0.393695  0.000101  0.945893  0.0
C  C46  1  0.71446328  0.76608760  0.98787767  1  0.161587  0.005434  3.776646  0.004  0.180479  0.001035  4.01989  0.001  0.183496  0.001097  4.044018  0.001  -0.009088  0.178129  0.000648  4.003565  0.001
C  C47  1  0.34957678  0.26227021  0.39555706  1  0.162184  0.004932  3.778816  0.004  0.181434  0.000874  4.020951  0.001  0.184319  0.000904  4.045043  0.001  -0.007116  0.179142  0.000499  4.00478  0.001
C  C48  1  0.91706402  0.89877131  0.99849729  1  0.152382  0.00985  3.793518  0.007  0.173957  0.001197  4.036613  0.001  0.175866  0.0012  4.062892  0.001  -0.01096  0.172783  0.000983  4.019225  0.001
C  C49  1  0.52741876  0.05837851  0.00769407  1  -0.142003  -0.009939  3.672894  -0.011  -0.159187  -0.004232  3.918488  -0.005  -0.167319  -0.003548  3.940009  -0.005  -0.073431  -0.154041  -0.004759  3.904601  -0.006
C  C50  1  0.53544290  0.97206067  0.38145342  1  -0.143883  -0.009907  3.680064  -0.011  -0.160977  -0.004195  3.924669  -0.005  -0.169319  -0.003541  3.946362  -0.005  -0.073622  -0.155878  -0.004647  3.910856  -0.006
C  C51  1  0.03366700  0.00393257  0.92896117  1  -0.498136  -0.006846  3.700077  -0.008  -0.522089  -0.004066  3.941445  -0.004  -0.532259  -0.002755  3.949708  -0.003  -0.160493  -0.514345  -0.005631  3.935195  -0.006
C  C52  1  0.45448135  0.29607065  0.47074513  1  -0.490765  -0.009312  3.696887  -0.01  -0.512854  -0.004863  3.93632  -0.005  -0.523022  -0.003063  3.945254  -0.003  -0.162478  -0.5057  -0.006113  3.930781  -0.006
C  C53  1  0.14898108  0.12759474  0.38428986  1  0.147912  0.008385  3.79958  0.006  0.169376  0.001059  4.04249  0.001  0.171061  0.001048  4.068877  0.001  -0.012727  0.168366  0.000842  4.02499  0.001
C  C54  1  0.59843412  0.14249597  0.88711087  1  0.140248  0.010835  3.677891  0.007  0.108949  0.00201  3.943219  0.001  0.118829  0.003861  3.9597  0.002  0.054072  0.102598  0.000687  3.932179  0.0
C  C55  1  0.78962885  0.73981539  0.20094330  1  0.156236  0.001425  3.800368  0.001  0.170691  0.000413  4.050605  0.0  0.172889  0.000784  4.076174  0.0  -0.013063  0.169544  -5.8e-05  4.032692  0.0
C  C56  1  0.82444987  0.86280356  0.92571694  1  -0.164131  -0.01674  3.658625  -0.016  -0.202403  -0.002237  3.913751  -0.002  -0.207415  -0.001288  3.935847  -0.001  -0.0969  -0.199437  -0.002176  3.899994  -0.002
C  C57  1  0.24035649  0.16474534  0.45770834  1  -0.16393  -0.014298  3.65976  -0.013  -0.201809  -0.001854  3.913914  -0.002  -0.206435  -0.001064  3.935432  -0.001  -0.095544  -0.199041  -0.001826  3.900562  -0.002
C  C58  1  0.49884467  0.96676287  0.25843578  1  0.099106  0.011269  3.750252  0.007  0.112628  0.004388  3.974342  0.003  0.116794  0.004844  3.996315  0.003  0.020909  0.109664  0.004113  3.959436  0.002
C  C59  1  0.89819617  0.83720219  0.13663113  1  -0.186564  -0.014266  3.682929  -0.013  -0.223663  -0.002251  3.944219  -0.002  -0.228958  -0.001363  3.966288  -0.001  -0.103053  -0.22141  -0.002028  3.930637  -0.002
C  C60  1  0.56798164  0.05874532  0.12964234  1  0.099632  0.011132  3.750775  0.007  0.111413  0.004297  3.976398  0.002  0.115611  0.004742  3.9983  0.003  0.020158  0.108399  0.003999  3.961437  0.002
C  C61  1  0.46576574  0.88755704  0.50213936  1  0.144119  0.01131  3.677905  0.007  0.112329  0.00241  3.942355  0.001  0.122186  0.00425  3.95954  0.003  0.054576  0.105783  0.001081  3.93129  0.0
C  C62  1  0.27540404  0.28715473  0.18206154  1  0.157941  0.001625  3.804509  0.001  0.173252  0.000444  4.053493  0.0  0.175631  0.000724  4.078838  0.0  -0.012423  0.171999  4.2e-05  4.0357  0.0
C  C63  1  0.16774881  0.18878352  0.24607929  1  -0.183864  -0.012278  3.683258  -0.012  -0.220068  -0.001945  3.941986  -0.002  -0.225288  -0.001174  3.963863  -0.001  -0.100937  -0.217751  -0.001745  3.928452  -0.002
C  C64  1  0.60672655  0.73640188  0.91404469  1  -0.487285  -0.01046  3.695585  -0.011  -0.509892  -0.005373  3.935793  -0.006  -0.520152  -0.003356  3.944888  -0.004  -0.16213  -0.502604  -0.006854  3.93009  -0.007
C  C65  1  0.03163900  0.02310170  0.45427002  1  -0.500183  -0.006348  3.701306  -0.007  -0.523491  -0.003978  3.940542  -0.004  -0.533728  -0.002726  3.948844  -0.003  -0.15963  -0.515832  -0.005455  3.934501  -0.006
C  C66  1  0.70046756  0.70361431  0.12453080  1  -0.176575  -0.004572  3.687387  -0.005  -0.208949  -0.000523  3.942382  -0.001  -0.213009  -0.000467  3.962777  -0.001  -0.096137  -0.205182  -0.001988  3.927214  -0.002
C  C67  1  0.39481180  0.86975433  0.26304245  1  -0.147963  -0.009402  3.67963  -0.011  -0.165556  -0.003864  3.923574  -0.005  -0.173865  -0.003306  3.945111  -0.004  -0.074865  -0.159753  -0.004471  3.909152  -0.006
C  C68  1  0.67718796  0.15047191  0.12409258  1  -0.14806  -0.009306  3.681027  -0.011  -0.164815  -0.003773  3.924073  -0.005  -0.173165  -0.003199  3.945619  -0.004  -0.074533  -0.158815  -0.004383  3.909543  -0.005
C  C69  1  0.76421088  0.67795766  0.35075666  1  -0.498053  -0.006069  3.706467  -0.007  -0.519152  -0.002747  3.946721  -0.003  -0.52969  -0.001796  3.954766  -0.002  -0.164559  -0.5117  -0.00357  3.941381  -0.004
C  C70  1  0.73977320  0.23514692  0.00112919  1  0.138373  0.011823  3.683855  0.008  0.111389  0.002985  3.939771  0.002  0.121232  0.004774  3.956568  0.003  0.051451  0.104571  0.001688  3.928439  0.001
C  C71  1  0.33370332  0.78464720  0.38628170  1  0.134348  0.011507  3.682347  0.007  0.107686  0.002775  3.937775  0.002  0.1172  0.004545  3.955503  0.003  0.050344  0.101088  0.001509  3.926142  0.001
C  C72  1  0.29867141  0.35140423  0.03329207  1  -0.500811  -0.005622  3.708449  -0.007  -0.52244  -0.00245  3.94788  -0.003  -0.533373  -0.001602  3.956184  -0.002  -0.164724  -0.514767  -0.003205  3.942533  -0.004
C  C73  1  0.36406246  0.32399895  0.25865892  1  -0.178188  -0.004272  3.687926  -0.004  -0.21083  -0.000491  3.942276  -0.001  -0.21491  -0.000417  3.962589  -0.001  -0.097004  -0.207152  -0.001746  3.927302  -0.002
N  N74  1  0.36671634  0.79529095  0.50424717  1  -0.297802  -0.088758  3.351277  -0.116  -0.257399  -0.058806  3.656227  -0.083  -0.288309  -0.045811  3.677257  -0.069  -0.349068  -0.238096  -0.06651  3.643751  -0.089
N  N75  1  0.70288366  0.22936831  0.88399634  1  -0.303014  -0.08805  3.352264  -0.116  -0.263098  -0.058493  3.658872  -0.083  -0.292792  -0.045251  3.680116  -0.069  -0.347567  -0.244002  -0.066424  3.646715  -0.089
O  O76  1  0.31885102  0.51880775  0.57287953  1  -0.832007  -0.074592  1.997323  -0.104  -0.788656  -0.046658  2.292749  -0.07  -0.827116  -0.033929  2.27711  -0.055  -0.382713  -0.760782  -0.055218  2.302579  -0.079
O  O77  1  0.26354012  0.27836010  0.72120875  1  -0.839841  -0.000894  1.994528  -0.002  -0.750281  -0.000356  2.219409  -0.001  -0.777617  -5.2e-05  2.20145  0.0  -0.363989  -0.730647  -0.000663  2.232348  -0.001
O  O78  1  0.73412192  0.50732644  0.81934356  1  -0.822885  -0.078176  1.979246  -0.109  -0.779138  -0.048014  2.270361  -0.073  -0.817273  -0.034729  2.257267  -0.057  -0.383743  -0.751049  -0.056894  2.279579  -0.081
O  O79  1  0.03654340  0.59329977  0.35060550  1  -0.779706  4.3e-05  1.995721  0.0  -0.700563  -6.2e-05  2.215063  0.0  -0.722287  -1.4e-05  2.188429  0.0  -0.386347  -0.685049  -0.000193  2.2331  0.0
O  O80  1  0.18585268  0.59924174  0.10141702  1  -0.848323  -0.000387  1.971538  -0.001  -0.761018  -0.000155  2.201456  0.0  -0.787252  1.2e-05  2.181396  0.0  -0.362564  -0.742298  -0.000314  2.215093  -0.001
O  O81  1  0.25493728  0.84392861  0.99209967  1  -0.765604  0.00079  2.020933  0.0  -0.69049  0.000617  2.252494  0.0  -0.711956  0.00064  2.227433  0.0  -0.378018  -0.675261  0.000402  2.271216  0.0
O  O82  1  0.83101790  0.47778225  0.53734678  1  -0.872677  -0.029957  2.132555  -0.043  -0.81269  -0.02192  2.442841  -0.033  -0.842719  -0.017285  2.418421  -0.028  -0.390692  -0.790511  -0.025036  2.460799  -0.036
O  O83  1  0.87981718  0.19184966  0.62480502  1  -0.846565  -0.043796  2.043407  -0.062  -0.797782  -0.032515  2.346238  -0.049  -0.829148  -0.024873  2.324723  -0.04  -0.376221  -0.774328  -0.038357  2.362033  -0.055
O  O84  1  0.87496210  0.42802770  0.28897607  1  -0.84319  -0.000422  1.982417  -0.001  -0.755091  -0.000218  2.211759  -0.001  -0.781333  -3.5e-05  2.191619  0.0  -0.360517  -0.736431  -0.000407  2.22545  -0.001
O  O85  1  0.19219218  0.83801163  0.76015593  1  -0.84908  -0.048384  2.048641  -0.068  -0.8026  -0.034301  2.355679  -0.052  -0.836049  -0.026061  2.332794  -0.043  -0.381603  -0.778397  -0.040491  2.371167  -0.058
O  O86  1  0.79746164  0.74293123  0.66640951  1  -0.801786  0.000526  2.078366  0.0  -0.709152  0.00028  2.29809  0.0  -0.734616  0.000332  2.275078  0.0  -0.379566  -0.691031  0.000194  2.314407  0.0
O  O87  1  0.80876100  0.18514298  0.39707541  1  -0.765445  0.000686  2.02042  0.0  -0.689431  0.000542  2.252037  0.0  -0.711203  0.000586  2.226948  0.0  -0.375325  -0.674094  0.000382  2.270754  0.0
O  O88  1  0.22489259  0.55270801  0.85225243  1  -0.870866  -0.02999  2.142648  -0.043  -0.809512  -0.022561  2.452048  -0.033  -0.840838  -0.018053  2.425387  -0.028  -0.393145  -0.787141  -0.025524  2.47005  -0.036
O  O89  1  0.02430252  0.43374810  0.03979004  1  -0.776637  -0.000436  1.997046  -0.001  -0.699078  -0.000415  2.216421  -0.001  -0.720582  -0.000275  2.189666  0.0  -0.38704  -0.683623  -0.000639  2.234574  -0.001
O  O90  1  0.55119035  0.63752362  0.70042459  1  -0.848313  0.001546  1.964178  0.0  -0.791999  0.001996  2.233423  0.0  -0.816279  0.002224  2.210878  0.001  -0.371321  -0.77445  0.001694  2.248464  0.0
O  O91  1  0.74373766  0.98985740  0.58218236  1  -0.758536  0.000526  2.009685  0.0  -0.688192  0.000142  2.245887  0.0  -0.709582  0.000159  2.220077  0.0  -0.381093  -0.67299  -4.2e-05  2.263375  0.0
O  O92  1  0.50529074  0.39222389  0.68566031  1  -0.785211  0.001017  2.038691  -0.001  -0.730174  0.001746  2.295776  0.0  -0.749738  0.00201  2.267495  0.0  -0.386618  -0.715955  0.001397  2.315246  0.0
O  O93  1  0.32184277  0.04129688  0.80783808  1  -0.776098  0.000362  1.999672  0.0  -0.702329  3e-05  2.238523  0.0  -0.725089  8.7e-05  2.214003  0.0  -0.378196  -0.68611  -0.000249  2.255144  0.0
O  O94  1  0.03743118  0.64236918  0.61569178  1  -0.791081  0.001501  1.944573  0.0  -0.745632  0.001762  2.145085  0.001  -0.764037  0.00188  2.112385  0.001  -0.5574  -0.732427  0.001569  2.167609  0.0
O  O95  1  0.01001463  0.39787020  0.76844714  1  -0.837752  0.002102  1.92384  0.001  -0.791713  0.002041  2.123715  0.001  -0.810029  0.002167  2.090111  0.001  -0.571987  -0.778064  0.001802  2.147421  0.001
