# generated using pymatgen
data_CuH8C10(N2O3)2
_symmetry_space_group_name_H-M   'P 1'
_cell_length_a   7.36800016
_cell_length_b   9.72303738
_cell_length_c   10.02952360
_cell_angle_alpha   116.90127221
_cell_angle_beta   101.15599270
_cell_angle_gamma   102.17801375
_symmetry_Int_Tables_number   1
_chemical_formula_structural   CuH8C10(N2O3)2
_chemical_formula_sum   'Cu2 H16 C20 N8 O12'
_cell_volume   590.93408343
_cell_formula_units_Z   2
loop_
 _symmetry_equiv_pos_site_id
 _symmetry_equiv_pos_as_xyz
  1  'x, y, z'
loop_
 _atom_site_type_symbol
 _atom_site_label
 _atom_site_symmetry_multiplicity
 _atom_site_fract_x
 _atom_site_fract_y
 _atom_site_fract_z
 _atom_site_occupancy
 _atom_site_hle17_ddec_charge
 _atom_site_hle17_ddec_spin_density
 _atom_site_hle17_ddec_sum_bond_order
 _atom_site_hle17_magmom
 _atom_site_hse06_10hf_ddec_charge
 _atom_site_hse06_10hf_ddec_spin_density
 _atom_site_hse06_10hf_ddec_sum_bond_order
 _atom_site_hse06_10hf_magmom
 _atom_site_hse06_ddec_charge
 _atom_site_hse06_ddec_spin_density
 _atom_site_hse06_ddec_sum_bond_order
 _atom_site_hse06_magmom
 _atom_site_pbe_cm5_charge
 _atom_site_pbe_ddec_charge
 _atom_site_pbe_ddec_spin_density
 _atom_site_pbe_ddec_sum_bond_order
 _atom_site_pbe_magmom
Cu  Cu0  1  0.75175006  0.51824262  0.11556603  1  0.870973  0.686436  1.762058  0.504  0.850228  0.771919  2.149252  0.617  0.94268  0.840146  2.078134  0.706  0.746256  0.791079  0.720388  2.201312  0.556
Cu  Cu1  1  0.24825233  0.48175305  0.88443245  1  0.870996  0.686437  1.762031  0.504  0.850248  0.7719  2.149189  0.617  0.942692  0.84014  2.078071  0.706  0.746258  0.791096  0.720394  2.201277  0.556
H  H2  1  0.23631679  0.02504713  0.63210967  1  0.111704  0.000427  0.964197  0.0  0.11937  0.000443  1.024744  0.0  0.121857  0.000324  1.024774  0.0  0.108188  0.117091  0.000572  1.025844  0.001
H  H3  1  0.76368120  0.97495476  0.36788298  1  0.111688  0.00042  0.964159  0.0  0.119361  0.000443  1.024704  0.0  0.121849  0.000324  1.024733  0.0  0.108203  0.117085  0.000572  1.025806  0.001
H  H4  1  0.09261408  0.84274133  0.33858878  1  0.098699  0.001677  0.955522  0.003  0.104067  0.001252  1.020067  0.002  0.106348  0.000872  1.017661  0.002  0.122108  0.1019  0.001617  1.022623  0.003
H  H5  1  0.90738516  0.15725685  0.66140539  1  0.09872  0.001676  0.955484  0.003  0.104099  0.001252  1.020012  0.002  0.10638  0.000872  1.017606  0.002  0.122135  0.101913  0.001617  1.022587  0.003
H  H6  1  0.44860793  0.17613520  0.96513469  1  0.085011  0.001561  0.948388  0.002  0.09207  0.001278  1.013997  0.002  0.093461  0.000925  1.012866  0.001  0.119652  0.090517  0.001615  1.01534  0.002
H  H7  1  0.55139586  0.82386045  0.03486697  1  0.085036  0.001566  0.9483  0.002  0.092074  0.001278  1.01393  0.002  0.093466  0.000925  1.012799  0.001  0.119654  0.090523  0.001615  1.015278  0.002
H  H8  1  0.41011935  0.12612699  0.36581534  1  0.115234  0.00035  0.941512  0.0  0.125518  8e-05  0.999306  0.0  0.128621  2.2e-05  0.996338  0.0  0.113933  0.122822  0.000116  1.002153  0.0
H  H9  1  0.58987889  0.87387855  0.63418894  1  0.115262  0.000352  0.941401  0.0  0.125531  8e-05  0.999226  0.0  0.128635  2.2e-05  0.996254  0.0  0.113935  0.122832  0.000116  1.002072  0.0
H  H10  1  0.29472990  0.00923951  0.07260703  1  0.120822  0.000477  0.963272  0.001  0.127686  0.000455  1.027651  0.001  0.130838  0.000326  1.026443  0.0  0.111121  0.124741  0.000571  1.029925  0.001
H  H11  1  0.70527405  0.99075983  0.92739628  1  0.120832  0.000476  0.963267  0.001  0.127699  0.000455  1.027643  0.001  0.130852  0.000326  1.026433  0.0  0.11112  0.124754  0.000571  1.029918  0.001
H  H12  1  0.66041941  0.40463474  0.54112921  1  0.121162  0.000682  0.943056  0.001  0.129695  0.000543  1.003709  0.001  0.132684  0.000383  1.003064  0.001  0.111001  0.127024  0.000739  1.004952  0.001
H  H13  1  0.33957795  0.59537204  0.45887350  1  0.121131  0.000683  0.943137  0.001  0.129704  0.000543  1.003743  0.001  0.132703  0.000383  1.003075  0.001  0.111035  0.127051  0.000739  1.004963  0.001
H  H14  1  0.86559788  0.64921959  0.67354190  1  0.114779  0.000774  0.970747  0.001  0.120136  0.000604  1.038247  0.001  0.123386  0.000413  1.037045  0.001  0.107792  0.117498  0.000879  1.039505  0.001
H  H15  1  0.13440360  0.35078717  0.32645937  1  0.114786  0.000775  0.970698  0.001  0.120152  0.000605  1.038193  0.001  0.123402  0.000413  1.03699  0.001  0.107787  0.117513  0.000879  1.039454  0.001
H  H16  1  0.10819136  0.92752732  0.80362458  1  0.107993  0.000404  0.942935  0.001  0.116382  0.000111  1.006818  0.0  0.119476  2.7e-05  1.003698  0.0  0.111919  0.114371  0.000187  1.0087  0.0
H  H17  1  0.89180957  0.07247823  0.19637110  1  0.108026  0.000404  0.942897  0.001  0.116385  0.000111  1.006803  0.0  0.119476  2.7e-05  1.003688  0.0  0.111924  0.114376  0.000187  1.008686  0.0
C  C18  1  0.04451182  0.80609004  0.41724877  1  0.146274  -0.013187  3.656368  -0.009  0.11797  -0.002837  3.909291  -0.002  0.128203  -0.004624  3.927215  -0.003  0.056295  0.111588  -0.00142  3.899963  -0.001
C  C19  1  0.95548983  0.19391057  0.58274781  1  0.146247  -0.013192  3.656341  -0.009  0.117942  -0.002839  3.909277  -0.002  0.128177  -0.004622  3.927198  -0.003  0.056294  0.111575  -0.00142  3.899956  -0.001
C  C20  1  0.12390165  0.90618705  0.58164912  1  -0.107578  0.011574  3.699438  0.013  -0.118186  0.004806  3.946836  0.006  -0.12616  0.004182  3.968043  0.005  -0.075994  -0.112714  0.005273  3.934999  0.006
C  C21  1  0.87609774  0.09381482  0.41834572  1  -0.107519  0.011602  3.699344  0.013  -0.118139  0.004807  3.946761  0.006  -0.126112  0.004182  3.967962  0.005  -0.076002  -0.112666  0.005273  3.934925  0.006
C  C22  1  0.05532805  0.85131680  0.67493289  1  0.01241  -0.014328  3.681843  -0.009  -0.007341  -0.005027  3.929962  -0.003  -0.001901  -0.005576  3.946249  -0.003  -0.059491  -0.011462  -0.004212  3.919218  -0.002
C  C23  1  0.94467462  0.14868628  0.32506292  1  0.012359  -0.014347  3.681794  -0.009  -0.007374  -0.005027  3.929936  -0.003  -0.001935  -0.005575  3.946222  -0.003  -0.059503  -0.011495  -0.004212  3.9192  -0.002
C  C24  1  0.91473009  0.69561368  0.60159536  1  -0.129343  0.007733  3.685053  0.008  -0.147942  0.002872  3.933093  0.003  -0.155462  0.002554  3.953784  0.003  -0.075567  -0.142654  0.002964  3.920367  0.003
C  C25  1  0.08527174  0.30439062  0.39840388  1  -0.129393  0.007727  3.685051  0.008  -0.147973  0.002871  3.933075  0.003  -0.155493  0.002555  3.953767  0.003  -0.075552  -0.142682  0.002964  3.920354  0.003
C  C26  1  0.83959229  0.60183978  0.43641935  1  0.169328  -0.007388  3.759351  -0.004  0.164617  -0.001153  4.006484  0.0  0.172697  -0.002774  4.027357  -0.001  0.117834  0.159631  0.00013  3.993318  0.001
C  C27  1  0.16040954  0.39816452  0.56358088  1  0.169408  -0.00737  3.759282  -0.004  0.164672  -0.001152  4.006445  0.0  0.172751  -0.002777  4.027321  -0.001  0.117847  0.159689  0.000129  3.993287  0.001
C  C28  1  0.68856371  0.43758703  0.34539237  1  0.174753  -0.006301  3.752667  -0.004  0.173225  -0.000981  3.99499  0.0  0.18155  -0.002341  4.015549  -0.001  0.117945  0.168101  0.000259  3.981948  0.001
C  C29  1  0.31143659  0.56241358  0.65460701  1  0.174775  -0.006301  3.752691  -0.004  0.173258  -0.000982  3.994992  0.0  0.181578  -0.002338  4.015554  -0.001  0.117957  0.168132  0.000259  3.981956  0.001
C  C30  1  0.61040743  0.35203597  0.41330690  1  -0.134537  0.006442  3.6842  0.007  -0.152972  0.002481  3.930963  0.003  -0.160393  0.002258  3.952349  0.003  -0.075661  -0.148337  0.002529  3.918195  0.003
C  C31  1  0.38959080  0.64796957  0.58669639  1  -0.134547  0.006436  3.684372  0.007  -0.153033  0.002481  3.931131  0.003  -0.160447  0.002256  3.952514  0.003  -0.075689  -0.14841  0.002529  3.918351  0.003
C  C32  1  0.46939067  0.19585850  0.31505680  1  0.009246  -0.01237  3.693751  -0.008  -0.00957  -0.004445  3.941191  -0.002  -0.004669  -0.004921  3.958376  -0.003  -0.06084  -0.013585  -0.003811  3.931283  -0.002
C  C33  1  0.53060500  0.80414091  0.68494441  1  0.009294  -0.012371  3.693646  -0.008  -0.009498  -0.004447  3.941069  -0.002  -0.004599  -0.004918  3.958253  -0.003  -0.060806  -0.013512  -0.003811  3.931157  -0.002
C  C34  1  0.40774876  0.12949944  0.15163245  1  -0.106391  0.009354  3.688278  0.01  -0.119847  0.003912  3.938218  0.005  -0.127524  0.003484  3.958844  0.004  -0.07652  -0.115845  0.004244  3.926959  0.005
C  C35  1  0.59225260  0.87050361  0.84837215  1  -0.106441  0.009365  3.688298  0.01  -0.119906  0.003915  3.93823  0.005  -0.127583  0.003483  3.958857  0.004  -0.076545  -0.115903  0.004245  3.926971  0.005
C  C36  1  0.49172529  0.22118712  0.09144514  1  0.146481  -0.01185  3.679318  -0.008  0.116073  -0.002775  3.939491  -0.002  0.126214  -0.004297  3.958131  -0.003  0.051373  0.109984  -0.00171  3.928383  -0.001
C  C37  1  0.50827539  0.77881102  0.90855620  1  0.146451  -0.01187  3.679395  -0.008  0.116056  -0.002777  3.939554  -0.002  0.126197  -0.004294  3.958192  -0.003  0.051364  0.109965  -0.001709  3.928455  -0.001
N  N38  1  0.90293527  0.65979929  0.34737514  1  -0.313602  0.091972  3.306508  0.117  -0.270683  0.063055  3.596306  0.086  -0.302684  0.051948  3.618232  0.076  -0.340738  -0.253248  0.066883  3.584771  0.086
N  N39  1  0.09706313  0.34020011  0.65262245  1  -0.313703  0.091967  3.306451  0.117  -0.270795  0.063056  3.596282  0.086  -0.302802  0.051949  3.618222  0.076  -0.340807  -0.253364  0.066881  3.584756  0.086
N  N40  1  0.62910773  0.37055332  0.18569081  1  -0.325092  0.08291  3.308737  0.106  -0.284468  0.057284  3.60377  0.078  -0.315878  0.047506  3.624788  0.07  -0.342099  -0.267076  0.061249  3.592424  0.079
N  N41  1  0.37089448  0.62944850  0.81431137  1  -0.325131  0.082908  3.30875  0.106  -0.284479  0.057287  3.60373  0.078  -0.315883  0.047505  3.624745  0.07  -0.342107  -0.267087  0.061248  3.592397  0.079
N  N42  1  0.58300918  0.27003385  0.77965906  1  0.682807  -0.004732  4.133185  -0.005  0.722568  -0.00086  4.430882  -0.001  0.752191  -0.000546  4.435177  -0.001  0.101382  0.699857  -0.000979  4.427708  -0.002
N  N43  1  0.41698858  0.72996061  0.22034124  1  0.682617  -0.004712  4.133397  -0.005  0.722392  -0.000859  4.431097  -0.001  0.752014  -0.000549  4.43539  -0.001  0.101332  0.699772  -0.000979  4.427813  -0.002
N  N44  1  0.07331781  0.30706625  0.02626041  1  0.694831  -0.0065  4.126727  -0.007  0.732571  -0.002003  4.423934  -0.002  0.763251  -0.001322  4.428901  -0.002  0.103959  0.709305  -0.002621  4.420543  -0.003
N  N45  1  0.92668373  0.69293066  0.97374049  1  0.694755  -0.006497  4.127061  -0.006  0.732549  -0.002001  4.424212  -0.002  0.763216  -0.001322  4.429187  -0.002  0.104006  0.709283  -0.00262  4.420821  -0.003
O  O46  1  0.48771871  0.22581338  0.64150371  1  -0.407734  0.015546  1.751855  0.02  -0.406268  0.008652  1.959546  0.012  -0.41886  0.004563  1.953773  0.007  -0.162255  -0.394197  0.014205  1.962957  0.019
O  O47  1  0.51227492  0.77418111  0.35849704  1  -0.4077  0.015535  1.751941  0.02  -0.406253  0.008654  1.959634  0.012  -0.418877  0.00456  1.953913  0.007  -0.162282  -0.394213  0.014204  1.963014  0.019
O  O48  1  0.69037949  0.19950737  0.81390158  1  -0.421879  -0.004062  1.794196  -0.002  -0.42388  -0.002906  2.02011  -0.002  -0.437446  -0.00367  2.014404  -0.003  -0.159837  -0.411984  -0.00067  2.02337  0.0
O  O49  1  0.30961825  0.80048710  0.18609573  1  -0.421796  -0.004041  1.794218  -0.002  -0.423797  -0.002897  2.020111  -0.002  -0.437357  -0.003683  2.014406  -0.003  -0.159811  -0.411932  -0.00067  2.023343  0.0
O  O50  1  0.56330060  0.39730939  0.89459550  1  -0.504465  0.069144  1.963864  0.096  -0.518922  0.045243  2.270015  0.069  -0.554619  0.032571  2.261689  0.054  -0.224693  -0.492725  0.055174  2.275934  0.079
O  O51  1  0.43669993  0.60268505  0.10540617  1  -0.504416  0.069126  1.963934  0.096  -0.518834  0.045235  2.270027  0.069  -0.554534  0.032583  2.261724  0.054  -0.224635  -0.492668  0.055173  2.27593  0.079
O  O52  1  0.06811925  0.44277846  0.12429809  1  -0.460783  -0.0049  1.827554  -0.002  -0.483418  -0.003903  2.086771  -0.002  -0.501061  -0.004525  2.078885  -0.002  -0.184474  -0.469642  -0.001465  2.092281  0.001
O  O53  1  0.93188366  0.55721844  0.87570101  1  -0.460792  -0.004857  1.827597  -0.002  -0.483427  -0.003891  2.086747  -0.002  -0.501065  -0.004549  2.078861  -0.002  -0.184508  -0.469648  -0.001465  2.092253  0.001
O  O54  1  0.14117807  0.29415524  0.91118101  1  -0.470221  0.079497  1.9019  0.108  -0.4756  0.051999  2.182202  0.077  -0.510142  0.037631  2.176185  0.06  -0.212386  -0.451196  0.062186  2.186674  0.088
O  O55  1  0.85882193  0.70583798  0.08881705  1  -0.470244  0.079462  1.902121  0.108  -0.475608  0.051988  2.182384  0.077  -0.510146  0.037646  2.176367  0.061  -0.212407  -0.451212  0.062185  2.186863  0.088
O  O56  1  0.01820046  0.18018876  0.03183406  1  -0.400827  0.01865  1.77336  0.025  -0.39306  0.009902  1.985448  0.014  -0.406625  0.00447  1.98021  0.007  -0.150193  -0.380824  0.015105  1.988275  0.02
O  O57  1  0.98180058  0.81980690  0.96816822  1  -0.400755  0.018651  1.773452  0.025  -0.393025  0.009905  1.985534  0.014  -0.406586  0.004467  1.980307  0.007  -0.150205  -0.380785  0.015105  1.988358  0.02
