# generated using pymatgen
data_CuH10C6(N2Cl)4
_symmetry_space_group_name_H-M   'P 1'
_cell_length_a   6.66963937
_cell_length_b   7.34102985
_cell_length_c   13.86859900
_cell_angle_alpha   98.88284462
_cell_angle_beta   90.00057681
_cell_angle_gamma   89.99864267
_symmetry_Int_Tables_number   1
_chemical_formula_structural   CuH10C6(N2Cl)4
_chemical_formula_sum   'Cu2 H20 C12 N16 Cl8'
_cell_volume   670.89040204
_cell_formula_units_Z   2
loop_
 _symmetry_equiv_pos_site_id
 _symmetry_equiv_pos_as_xyz
  1  'x, y, z'
loop_
 _atom_site_type_symbol
 _atom_site_label
 _atom_site_symmetry_multiplicity
 _atom_site_fract_x
 _atom_site_fract_y
 _atom_site_fract_z
 _atom_site_occupancy
 _atom_site_hle17_ddec_charge
 _atom_site_hle17_ddec_spin_density
 _atom_site_hle17_ddec_sum_bond_order
 _atom_site_hle17_magmom
 _atom_site_hse06_10hf_ddec_charge
 _atom_site_hse06_10hf_ddec_spin_density
 _atom_site_hse06_10hf_ddec_sum_bond_order
 _atom_site_hse06_10hf_magmom
 _atom_site_hse06_ddec_charge
 _atom_site_hse06_ddec_spin_density
 _atom_site_hse06_ddec_sum_bond_order
 _atom_site_hse06_magmom
 _atom_site_pbe_cm5_charge
 _atom_site_pbe_ddec_charge
 _atom_site_pbe_ddec_spin_density
 _atom_site_pbe_ddec_sum_bond_order
 _atom_site_pbe_magmom
Cu  Cu0  1  0.99999662  0.99999862  0.99999919  1  0.753233  -0.637276  1.919481  -0.446  0.749104  -0.738313  2.302724  -0.564  0.842805  -0.826006  2.223465  -0.655  0.603211  0.697112  -0.672667  2.353348  -0.503
Cu  Cu1  1  0.50000008  0.50000172  0.99999870  1  0.753179  0.637284  1.919652  0.446  0.749123  0.738325  2.302903  0.564  0.842822  0.826023  2.223681  0.655  0.603203  0.697087  0.67267  2.353532  0.503
H  H2  1  0.53800669  0.97705507  0.08575227  1  0.128986  4e-05  0.962823  0.0  0.137382  -7e-05  1.027652  0.0  0.140852  -6.7e-05  1.023075  0.0  0.130953  0.134762  -7.6e-05  1.030928  0.0
H  H3  1  0.03800098  0.52294095  0.91424755  1  0.129065  -3.8e-05  0.962786  0.0  0.137449  7e-05  1.027614  0.0  0.14093  6.7e-05  1.023022  0.0  0.130979  0.134831  7.5e-05  1.030901  0.0
H  H4  1  0.46198393  0.02294356  0.91424764  1  0.129112  3.8e-05  0.962841  0.0  0.13752  -7e-05  1.027639  0.0  0.140988  -6.7e-05  1.023064  0.0  0.130968  0.1349  -7.5e-05  1.030918  0.0
H  H5  1  0.96200164  0.47705347  0.08574771  1  0.129048  -3.9e-05  0.962929  0.0  0.137514  7e-05  1.027661  0.0  0.140941  6.7e-05  1.02313  0.0  0.130995  0.134901  7.6e-05  1.030941  0.0
H  H6  1  0.30529889  0.07648055  0.23200447  1  0.102818  0.000436  0.953527  0.0  0.110475  0.000323  1.028476  0.0  0.112742  0.000267  1.026392  0.0  0.107713  0.108736  0.000352  1.030056  0.0
H  H7  1  0.80530841  0.42352966  0.76799625  1  0.102829  -0.000435  0.953693  0.0  0.110534  -0.000324  1.028638  0.0  0.112793  -0.000268  1.026562  0.0  0.107757  0.108809  -0.000352  1.030213  0.0
H  H8  1  0.69468723  0.92353884  0.76800282  1  0.102722  0.000435  0.953516  0.0  0.110417  0.000323  1.02853  0.0  0.112708  0.000267  1.026424  0.0  0.107681  0.108677  0.000352  1.030111  0.0
H  H9  1  0.19469870  0.57645382  0.23200392  1  0.102825  -0.000436  0.953808  0.0  0.110557  -0.000323  1.028778  0.0  0.112807  -0.000267  1.026711  0.0  0.107797  0.108858  -0.000352  1.030328  0.0
H  H10  1  0.39240778  0.28946961  0.29771187  1  0.092803  -4.3e-05  0.93598  0.0  0.103321  -1.7e-05  1.004635  0.0  0.104285  -2.3e-05  1.004209  0.0  0.106494  0.102565  -1.3e-05  1.005002  0.0
H  H11  1  0.89240085  0.21053389  0.70229665  1  0.092735  4.3e-05  0.936059  0.0  0.103332  1.7e-05  1.004659  0.0  0.104304  2.2e-05  1.004222  0.0  0.106472  0.102574  1.3e-05  1.005027  0.0
H  H12  1  0.60759933  0.71054839  0.70229459  1  0.092806  -4.4e-05  0.936023  0.0  0.103434  -1.7e-05  1.004602  0.0  0.104398  -2.2e-05  1.004178  0.0  0.106537  0.102676  -1.3e-05  1.004966  0.0
H  H13  1  0.10760477  0.78945507  0.29770179  1  0.092785  4.3e-05  0.93596  0.0  0.103432  1.7e-05  1.004541  0.0  0.104399  2.2e-05  1.004106  0.0  0.106539  0.102674  1.3e-05  1.004911  0.0
H  H14  1  0.54656260  0.12622266  0.42546540  1  0.092225  -7e-06  0.960242  0.0  0.097576  -1.3e-05  1.034824  0.0  0.09936  -7e-06  1.033751  0.0  0.090712  0.09619  -1.8e-05  1.035745  0.0
H  H15  1  0.04654746  0.37376526  0.57453604  1  0.092135  7e-06  0.960336  0.0  0.09759  1.4e-05  1.034844  0.0  0.099397  7e-06  1.033748  0.0  0.090675  0.096189  1.8e-05  1.035776  0.0
H  H16  1  0.45344002  0.87378838  0.57453620  1  0.092303  -8e-06  0.96015  0.0  0.097616  -1.3e-05  1.034781  0.0  0.099435  -7e-06  1.033678  0.0  0.090759  0.096221  -1.8e-05  1.035705  0.0
H  H17  1  0.95344316  0.62622782  0.42546127  1  0.092149  6e-06  0.960389  0.0  0.097536  1.3e-05  1.034951  0.0  0.099325  7e-06  1.033876  0.0  0.090679  0.096138  1.8e-05  1.035879  0.0
H  H18  1  0.46495228  0.90904952  0.36100667  1  0.092717  2.4e-05  0.966103  0.0  0.097089  2.7e-05  1.043655  0.0  0.098685  1.8e-05  1.042889  0.0  0.095118  0.09589  3.7e-05  1.044283  0.0
H  H19  1  0.96494113  0.59094152  0.63898961  1  0.09266  -2.4e-05  0.966014  0.0  0.097053  -2.7e-05  1.043637  0.0  0.098652  -1.8e-05  1.042867  0.0  0.095099  0.095853  -3.7e-05  1.044261  0.0
H  H20  1  0.53505633  0.09096150  0.63899348  1  0.092736  2.3e-05  0.966155  0.0  0.097112  2.7e-05  1.043716  0.0  0.098707  1.8e-05  1.04296  0.0  0.095143  0.095912  3.7e-05  1.044344  0.0
H  H21  1  0.03505698  0.40904614  0.36101377  1  0.092617  -2.4e-05  0.965954  0.0  0.097004  -2.7e-05  1.04356  0.0  0.098602  -1.8e-05  1.042789  0.0  0.095052  0.095805  -3.7e-05  1.044187  0.0
C  C22  1  0.65009786  0.03962341  0.13728705  1  0.179092  0.003005  3.59355  0.002  0.100772  -0.000109  3.853824  -0.001  0.115968  0.000806  3.866192  0.001  0.176955  0.091516  -0.000802  3.845457  -0.001
C  C23  1  0.15008787  0.46037636  0.86270784  1  0.179  -0.00302  3.593571  -0.002  0.100669  0.000111  3.853844  0.001  0.11588  -0.000805  3.86618  -0.001  0.176931  0.091408  0.000802  3.845496  0.001
C  C24  1  0.34990626  0.96037653  0.86270863  1  0.178673  0.003025  3.593795  0.002  0.100283  -0.00011  3.854076  -0.001  0.115486  0.000806  3.866439  0.001  0.176812  0.091026  -0.000803  3.845718  -0.001
C  C25  1  0.84991925  0.53961664  0.13728442  1  0.179081  -0.003012  3.593638  -0.002  0.100669  0.000111  3.853901  0.001  0.115901  -0.000805  3.866302  -0.001  0.176925  0.091405  0.000802  3.845541  0.001
C  C26  1  0.42171158  0.14074845  0.28177641  1  -0.030567  -0.00033  3.618447  0.0  -0.104165  -0.000169  3.868535  0.0  -0.101097  -0.000147  3.878298  0.0  -0.056598  -0.105784  -0.000186  3.861736  0.0
C  C27  1  0.92169392  0.35925682  0.71822661  1  -0.030387  0.000331  3.617951  0.0  -0.104107  0.000171  3.868134  0.0  -0.101027  0.000148  3.87791  0.0  -0.056613  -0.105734  0.000186  3.86133  0.0
C  C28  1  0.57828654  0.85925845  0.71822487  1  -0.030348  -0.000324  3.617848  0.0  -0.104144  -0.00017  3.868065  0.0  -0.101087  -0.000147  3.877806  0.0  -0.056595  -0.105762  -0.000186  3.861264  0.0
C  C29  1  0.07831319  0.64072115  0.28177313  1  -0.030356  0.000333  3.617809  0.0  -0.104274  0.000172  3.86815  0.0  -0.101186  0.000149  3.8779  0.0  -0.056754  -0.105925  0.000186  3.861332  0.0
C  C30  1  0.43325206  0.05713034  0.37558364  1  -0.0566  -5.6e-05  3.599981  0.0  -0.102523  -3.3e-05  3.875985  0.0  -0.099926  -2.4e-05  3.883491  0.0  -0.126401  -0.104093  -4.5e-05  3.870789  0.0
C  C31  1  0.93324015  0.44286206  0.62441122  1  -0.056364  5.6e-05  3.599763  0.0  -0.102499  3.1e-05  3.875989  0.0  -0.099912  2.4e-05  3.883478  0.0  -0.12638  -0.104058  4.5e-05  3.870786  0.0
C  C32  1  0.56675656  0.94288623  0.62441911  1  -0.056746  -4.9e-05  3.599848  0.0  -0.102669  -3.4e-05  3.876003  0.0  -0.10011  -2.4e-05  3.883512  0.0  -0.126496  -0.104228  -4.5e-05  3.870813  0.0
C  C33  1  0.06675347  0.55713513  0.37558497  1  -0.056344  5.8e-05  3.599666  0.0  -0.10236  3.2e-05  3.875904  0.0  -0.099767  2.4e-05  3.883404  0.0  -0.126305  -0.103923  4.5e-05  3.870726  0.0
N  N34  1  0.61255659  0.11519697  0.22980704  1  0.045261  -0.001872  3.499597  -0.002  0.16964  -0.001146  3.680475  -0.001  0.158738  -0.001106  3.700983  -0.001  -0.113297  0.175652  -0.001167  3.668101  -0.001
N  N35  1  0.11257710  0.38480409  0.77019644  1  0.045075  0.001868  3.500002  0.002  0.169499  0.001145  3.680821  0.001  0.158525  0.001104  3.701452  0.001  -0.113333  0.175516  0.001165  3.668462  0.001
N  N36  1  0.38742204  0.88481412  0.77019745  1  0.045263  -0.001888  3.499981  -0.002  0.169715  -0.001144  3.680861  -0.001  0.158805  -0.001104  3.701382  -0.001  -0.113288  0.175728  -0.001165  3.668492  -0.001
N  N37  1  0.88743151  0.61518341  0.22979611  1  0.044997  0.001869  3.499399  0.002  0.169598  0.001145  3.680122  0.001  0.158702  0.001103  3.700593  0.001  -0.113259  0.175611  0.001166  3.66777  0.001
N  N38  1  0.78731271  0.17628566  0.27341112  1  -0.088842  -0.004844  2.839869  -0.006  -0.109022  -0.003411  3.127284  -0.004  -0.107315  -0.00234  3.135466  -0.003  -0.068154  -0.109576  -0.004307  3.121468  -0.005
N  N39  1  0.28732413  0.32371970  0.72659636  1  -0.08876  0.004845  2.841089  0.006  -0.108926  0.003407  3.128498  0.004  -0.107201  0.002338  3.136669  0.003  -0.068178  -0.109477  0.004305  3.122681  0.005
N  N40  1  0.21267791  0.82372122  0.72658799  1  -0.088917  -0.004834  2.840294  -0.006  -0.109096  -0.003413  3.127692  -0.004  -0.107388  -0.002341  3.135867  -0.003  -0.06826  -0.109648  -0.004308  3.121873  -0.005
N  N41  1  0.71268598  0.67627478  0.27340251  1  -0.088907  0.004845  2.840679  0.006  -0.109157  0.003408  3.128096  0.004  -0.107452  0.002338  3.136275  0.003  -0.068256  -0.10971  0.004305  3.12228  0.005
N  N42  1  0.92787909  0.13770536  0.20886886  1  -0.038839  0.003104  2.926098  0.003  -0.035152  0.001026  3.237576  0.001  -0.030699  0.001337  3.249009  0.002  -0.070283  -0.037629  0.000711  3.230305  0.0
N  N43  1  0.42786140  0.36229267  0.79112280  1  -0.03886  -0.003098  2.926995  -0.003  -0.035201  -0.001023  3.2385  -0.001  -0.030739  -0.001333  3.249911  -0.002  -0.070263  -0.037681  -0.000709  3.231229  0.0
N  N44  1  0.07212202  0.86229456  0.79112538  1  -0.038873  0.0031  2.926317  0.003  -0.035222  0.001024  3.237824  0.001  -0.03076  0.001336  3.24925  0.002  -0.070244  -0.037702  0.00071  3.230551  0.0
N  N45  1  0.57214271  0.63770588  0.20887205  1  -0.038847  -0.003103  2.92641  -0.003  -0.035131  -0.001025  3.237954  -0.001  -0.030675  -0.001334  3.249382  -0.002  -0.07029  -0.037611  -0.00071  3.230685  0.0
N  N46  1  0.84645005  0.05348545  0.12359432  1  -0.256567  -0.062328  3.293176  -0.077  -0.211272  -0.047952  3.613785  -0.063  -0.242629  -0.0415  3.633845  -0.057  -0.255542  -0.193516  -0.050844  3.602547  -0.064
N  N47  1  0.34646605  0.44651802  0.87640895  1  -0.256581  0.062336  3.29276  0.077  -0.211254  0.047948  3.613343  0.063  -0.242613  0.041494  3.6334  0.057  -0.25553  -0.19348  0.050842  3.602095  0.064
N  N48  1  0.15352408  0.94651597  0.87640869  1  -0.256269  -0.062346  3.292538  -0.077  -0.210885  -0.047953  3.613049  -0.063  -0.242242  -0.041504  3.633095  -0.057  -0.255416  -0.193126  -0.050846  3.601814  -0.064
N  N49  1  0.65355456  0.55348333  0.12358901  1  -0.256398  0.062338  3.29233  0.077  -0.211199  0.047953  3.613079  0.063  -0.242563  0.041497  3.633144  0.057  -0.25546  -0.193425  0.050847  3.601823  0.064
Cl  Cl50  1  0.21095853  0.80574164  0.06809725  1  -0.521812  -0.128628  1.00669  -0.147  -0.539484  -0.086344  1.318937  -0.105  -0.57527  -0.068436  1.29513  -0.086  -0.295677  -0.518229  -0.09588  1.336224  -0.113
Cl  Cl51  1  0.71094940  0.69426280  0.93190182  1  -0.521819  0.128631  1.006742  0.147  -0.539477  0.086348  1.318951  0.105  -0.575264  0.068436  1.29516  0.086  -0.295676  -0.518213  0.095886  1.336234  0.113
Cl  Cl52  1  0.78903959  0.19426251  0.93190380  1  -0.521843  -0.128635  1.006764  -0.147  -0.539522  -0.086351  1.319019  -0.105  -0.575303  -0.068441  1.295211  -0.086  -0.295676  -0.518266  -0.095884  1.336306  -0.113
Cl  Cl53  1  0.28905322  0.30574408  0.06809728  1  -0.521828  0.128624  1.006729  0.147  -0.539489  0.086343  1.318927  0.104  -0.575267  0.068433  1.295124  0.086  -0.295674  -0.51823  0.095881  1.336221  0.113
Cl  Cl54  1  0.19634017  0.08547654  0.43656663  1  -0.11729  -0.000185  1.306041  0.0  -0.08922  -0.000152  1.566646  0.0  -0.095137  -9.9e-05  1.558515  0.0  -0.023584  -0.08507  -0.000196  1.57234  0.0
Cl  Cl55  1  0.69632731  0.41451917  0.56343608  1  -0.117308  0.000185  1.306092  0.0  -0.089183  0.000153  1.566756  0.0  -0.095099  0.0001  1.558626  0.0  -0.023546  -0.085039  0.000196  1.572444  0.0
Cl  Cl56  1  0.80366844  0.91452355  0.56343916  1  -0.117248  -0.000188  1.306075  0.0  -0.089131  -0.000153  1.566644  0.0  -0.095049  -9.9e-05  1.558529  0.0  -0.023558  -0.084984  -0.000196  1.572333  0.0
Cl  Cl57  1  0.30366331  0.58548234  0.43657270  1  -0.117407  0.000185  1.306074  0.0  -0.089248  0.000153  1.566667  0.0  -0.095166  0.0001  1.558541  0.0  -0.023574  -0.085099  0.000196  1.57236  0.0
