# generated using pymatgen
data_NdH8C12(Br3O5)2
_symmetry_space_group_name_H-M   'P 1'
_cell_length_a   10.04443973
_cell_length_b   10.72706577
_cell_length_c   10.17542881
_cell_angle_alpha   92.03069841
_cell_angle_beta   76.93554718
_cell_angle_gamma   81.23940446
_symmetry_Int_Tables_number   1
_chemical_formula_structural   NdH8C12(Br3O5)2
_chemical_formula_sum   'Nd2 H16 C24 Br12 O20'
_cell_volume   1052.75473008
_cell_formula_units_Z   2
loop_
 _symmetry_equiv_pos_site_id
 _symmetry_equiv_pos_as_xyz
  1  'x, y, z'
loop_
 _atom_site_type_symbol
 _atom_site_label
 _atom_site_symmetry_multiplicity
 _atom_site_fract_x
 _atom_site_fract_y
 _atom_site_fract_z
 _atom_site_occupancy
 _atom_site_hle17_bader_spin_density
 _atom_site_hle17_ddec_charge
 _atom_site_hle17_ddec_spin_density
 _atom_site_hle17_ddec_sum_bond_order
 _atom_site_hle17_magmom
 _atom_site_hse06_10hf_bader_spin_density
 _atom_site_hse06_10hf_ddec_charge
 _atom_site_hse06_10hf_ddec_spin_density
 _atom_site_hse06_10hf_ddec_sum_bond_order
 _atom_site_hse06_10hf_magmom
 _atom_site_hse06_bader_spin_density
 _atom_site_hse06_ddec_charge
 _atom_site_hse06_ddec_spin_density
 _atom_site_hse06_ddec_sum_bond_order
 _atom_site_hse06_magmom
 _atom_site_pbe_bader_spin_density
 _atom_site_pbe_cm5_charge
 _atom_site_pbe_ddec_charge
 _atom_site_pbe_ddec_spin_density
 _atom_site_pbe_ddec_sum_bond_order
 _atom_site_pbe_magmom
Nd  Nd0  1  0.97662217  0.04738847  0.76724346  1  0  2.374064  0  1.578036  0  0  2.275196  0  1.939231  0  0  2.313231  0  1.895589  0  0  1.468871  2.196521  0  2.064567  0
Nd  Nd1  1  0.02337929  0.95261676  0.23275514  1  0  2.374076  0  1.577969  0  0  2.275187  0  1.939161  0  0  2.313223  0  1.895523  0  0  1.46888  2.196491  0  2.064548  0
H  H2  1  0.17586648  0.83052699  0.63777198  1  0  0.415239  0  0.86943  0  0  0.385534  0  0.94528  0  0  0.394133  0  0.932564  0  0  0.294591  0.379601  0  0.953914  0
H  H3  1  0.82413559  0.16946870  0.36222464  1  0  0.415237  0  0.869424  0  0  0.385532  0  0.945273  0  0  0.394132  0  0.932556  0  0  0.294606  0.3796  0  0.953907  0
H  H4  1  0.28307845  0.03023012  0.78127192  1  0  0.441029  0  0.809317  0  0  0.418686  0  0.87404  0  0  0.426407  0  0.865177  0  0  0.321921  0.413198  0  0.879607  0
H  H5  1  0.71692232  0.96977492  0.21872283  1  0  0.440989  0  0.809225  0  0  0.418645  0  0.873962  0  0  0.426366  0  0.865097  0  0  0.321899  0.413158  0  0.879525  0
H  H6  1  0.07271638  0.78231922  0.55860372  1  0  0.447223  0  0.852154  0  0  0.414229  0  0.918245  0  0  0.4267  0  0.900197  0  0  0.29172  0.405364  0  0.931001  0
H  H7  1  0.92728172  0.21768136  0.44139543  1  0  0.447184  0  0.85222  0  0  0.414157  0  0.918344  0  0  0.426629  0  0.900297  0  0  0.291706  0.405297  0  0.93109  0
H  H8  1  0.17009014  0.06649662  0.48244764  1  0  0.444456  0  0.855578  0  0  0.414169  0  0.918052  0  0  0.425172  0  0.902123  0  0  0.300044  0.406278  0  0.929135  0
H  H9  1  0.82991046  0.93350852  0.51754912  1  0  0.444446  0  0.855601  0  0  0.414146  0  0.918092  0  0  0.42515  0  0.902161  0  0  0.300019  0.406254  0  0.929176  0
H  H10  1  0.22941874  0.93699655  0.88998707  1  0  0.449321  0  0.844685  0  0  0.418244  0  0.90789  0  0  0.429097  0  0.892012  0  0  0.297585  0.410403  0  0.919166  0
H  H11  1  0.77057866  0.06301361  0.11001507  1  0  0.449345  0  0.844635  0  0  0.418253  0  0.907873  0  0  0.429106  0  0.891995  0  0  0.297578  0.410408  0  0.919157  0
H  H12  1  0.67975665  0.10149075  0.91785505  1  0  0.434546  0  0.8696  0  0  0.400398  0  0.936703  0  0  0.412739  0  0.919071  0  0  0.293712  0.391998  0  0.948501  0
H  H13  1  0.32025213  0.89850766  0.08214052  1  0  0.434614  0  0.869492  0  0  0.400509  0  0.936528  0  0  0.412848  0  0.918901  0  0  0.293769  0.39211  0  0.948325  0
H  H14  1  0.74915998  0.21597251  0.96318568  1  0  0.424839  0  0.840316  0  0  0.393341  0  0.922745  0  0  0.402592  0  0.911056  0  0  0.306295  0.3867  0  0.930152  0
H  H15  1  0.25084457  0.78403031  0.03680358  1  0  0.424828  0  0.840385  0  0  0.393319  0  0.9228  0  0  0.40257  0  0.911083  0  0  0.306261  0.38668  0  0.930203  0
H  H16  1  0.14900524  0.19998397  0.56500468  1  0  0.405477  0  0.895641  0  0  0.375108  0  0.965963  0  0  0.3848  0  0.951735  0  0  0.283644  0.368212  0  0.975889  0
H  H17  1  0.85097818  0.80002560  0.43498379  1  0  0.405289  0  0.895666  0  0  0.374901  0  0.966217  0  0  0.38459  0  0.951994  0  0  0.283603  0.368002  0  0.976148  0
C  C18  1  0.53650837  0.11683277  0.52929583  1  0  0.034719  0  3.689359  0  0  0.03411  0  3.96449  0  0  0.037636  0  3.983903  0  0  -0.024073  0.031724  0  3.951656  0
C  C19  1  0.46350933  0.88313677  0.47070751  1  0  0.034716  0  3.689459  0  0  0.034001  0  3.964658  0  0  0.037526  0  3.984088  0  0  -0.024235  0.031608  0  3.951819  0
C  C20  1  0.81165401  0.63196218  0.90719612  1  0  0.026613  0  3.697876  0  0  0.025349  0  3.975443  0  0  0.027742  0  3.996661  0  0  -0.02725  0.02348  0  3.961749  0
C  C21  1  0.18834836  0.36804225  0.09280530  1  0  0.026894  0  3.697721  0  0  0.025594  0  3.975341  0  0  0.027997  0  3.996555  0  0  -0.027159  0.023735  0  3.961655  0
C  C22  1  0.56718853  0.01462409  0.60562175  1  0  -0.11524  0  3.734502  0  0  -0.10783  0  3.980721  0  0  -0.110995  0  3.997642  0  0  -0.023058  -0.106364  0  3.970671  0
C  C23  1  0.43281801  0.98535280  0.39439409  1  0  -0.115107  0  3.734611  0  0  -0.107599  0  3.980691  0  0  -0.110776  0  3.997629  0  0  -0.022858  -0.106119  0  3.970644  0
C  C24  1  0.90430280  0.34087339  0.65190321  1  0  0.689445  0  3.911394  0  0  0.638675  0  4.212433  0  0  0.672737  0  4.202185  0  0  0.211045  0.615664  0  4.216829  0
C  C25  1  0.09569343  0.65913052  0.34808732  1  0  0.689374  0  3.911569  0  0  0.638624  0  4.21258  0  0  0.672689  0  4.202325  0  0  0.210973  0.615596  0  4.216984  0
C  C26  1  0.94180132  0.66622285  0.90176627  1  0  -0.097678  0  3.707786  0  0  -0.089801  0  3.949438  0  0  -0.093443  0  3.967882  0  0  -0.01563  -0.087663  0  3.937784  0
C  C27  1  0.05819455  0.33378044  0.09823023  1  0  -0.097797  0  3.707968  0  0  -0.089971  0  3.949571  0  0  -0.093626  0  3.968005  0  0  -0.015672  -0.08788  0  3.937974  0
C  C28  1  0.05908145  0.59234667  0.81800864  1  0  0.048653  0  3.646438  0  0  0.049188  0  3.915582  0  0  0.052179  0  3.93596  0  0  -0.016157  0.047323  0  3.901751  0
C  C29  1  0.94091659  0.40765820  0.18198258  1  0  0.0486  0  3.646418  0  0  0.049194  0  3.915526  0  0  0.052199  0  3.93589  0  0  -0.016121  0.047349  0  3.901702  0
C  C30  1  0.95327058  0.78546683  0.98003896  1  0  0.728666  0  3.914593  0  0  0.678294  0  4.217496  0  0  0.713266  0  4.204838  0  0  0.224538  0.654447  0  4.221207  0
C  C31  1  0.04673064  0.21453940  0.01996065  1  0  0.728552  0  3.914895  0  0  0.678368  0  4.217505  0  0  0.713348  0  4.204837  0  0  0.224533  0.654523  0  4.221232  0
C  C32  1  0.80017649  0.52697481  0.82688713  1  0  0.036045  0  3.680821  0  0  0.033753  0  3.960338  0  0  0.037226  0  3.98049  0  0  -0.025613  0.031114  0  3.946506  0
C  C33  1  0.19982494  0.47302958  0.17311345  1  0  0.03586  0  3.680702  0  0  0.033522  0  3.960325  0  0  0.036997  0  3.980473  0  0  -0.025695  0.030888  0  3.946466  0
C  C34  1  0.04671881  0.48993648  0.73491979  1  0  0.070328  0  3.633434  0  0  0.068294  0  3.908277  0  0  0.073101  0  3.92565  0  0  -0.011945  0.064343  0  3.897563  0
C  C35  1  0.95327701  0.51007512  0.26507369  1  0  0.070382  0  3.633454  0  0  0.068278  0  3.908351  0  0  0.073087  0  3.92572  0  0  -0.012033  0.064318  0  3.89763  0
C  C36  1  0.64666128  0.02792948  0.71432021  1  0  0.693819  0  3.895125  0  0  0.637088  0  4.206688  0  0  0.671125  0  4.196845  0  0  0.220015  0.614  0  4.210829  0
C  C37  1  0.35334559  0.97205719  0.28568463  1  0  0.69341  0  3.895552  0  0  0.636833  0  4.206907  0  0  0.67086  0  4.197072  0  0  0.219949  0.613735  0  4.21105  0
C  C38  1  0.91670476  0.45582469  0.73833792  1  0  -0.07968  0  3.662725  0  0  -0.075891  0  3.911933  0  0  -0.078106  0  3.927427  0  0  -0.011622  -0.074755  0  3.902187  0
C  C39  1  0.08328719  0.54418918  0.26166205  1  0  -0.07964  0  3.66267  0  0  -0.0758  0  3.911838  0  0  -0.078015  0  3.92732  0  0  -0.011539  -0.074631  0  3.902044  0
C  C40  1  0.52919178  0.89829276  0.57657756  1  0  0.031481  0  3.704924  0  0  0.032577  0  3.978071  0  0  0.036317  0  3.997328  0  0  -0.027179  0.02985  0  3.965976  0
C  C41  1  0.47080990  0.10168406  0.42343606  1  0  0.031783  0  3.705091  0  0  0.032752  0  3.978312  0  0  0.036499  0  3.997571  0  0  -0.027095  0.030012  0  3.966222  0
Br  Br42  1  0.23702249  0.63439534  0.81608350  1  0  -0.031674  0  1.430438  0  0  -0.02805  0  1.730397  0  0  -0.030278  0  1.720222  0  0  0.071549  -0.025126  0  1.735456  0
Br  Br43  1  0.76297444  0.36560960  0.18390888  1  0  -0.031629  0  1.430377  0  0  -0.028009  0  1.730299  0  0  -0.030245  0  1.720127  0  0  0.071585  -0.02508  0  1.735361  0
Br  Br44  1  0.62320206  0.48026435  0.83669704  1  0  -0.035565  0  1.502316  0  0  -0.032319  0  1.817497  0  0  -0.035007  0  1.806593  0  0  0.044745  -0.029408  0  1.823326  0
Br  Br45  1  0.37679305  0.51973602  0.16331540  1  0  -0.035525  0  1.502434  0  0  -0.032273  0  1.817653  0  0  -0.034962  0  1.806748  0  0  0.044781  -0.029362  0  1.823489  0
Br  Br46  1  0.20907972  0.39874589  0.61721140  1  0  -0.033176  0  1.513153  0  0  -0.032809  0  1.817124  0  0  -0.035293  0  1.805777  0  0  0.071887  -0.032094  0  1.826941  0
Br  Br47  1  0.79092108  0.60126338  0.38277443  1  0  -0.033154  0  1.51334  0  0  -0.032765  0  1.817365  0  0  -0.035248  0  1.806015  0  0  0.071937  -0.03204  0  1.827186  0
Br  Br48  1  0.65474437  0.73310712  0.02369796  1  0  -0.001837  0  1.411198  0  0  -0.004175  0  1.698823  0  0  -0.00444  0  1.688603  0  0  0.056272  -0.005257  0  1.707286  0
Br  Br49  1  0.34525044  0.26689513  0.97631450  1  0  -0.001852  0  1.411257  0  0  -0.004197  0  1.6989  0  0  -0.00446  0  1.68867  0  0  0.056272  -0.005278  0  1.70736  0
Br  Br50  1  0.58508422  0.27430446  0.57213694  1  0  0.003326  0  1.46601  0  0  0.003112  0  1.764414  0  0  0.001246  0  1.754248  0  0  0.07397  0.00316  0  1.773733  0
Br  Br51  1  0.41495037  0.72566531  0.42785594  1  0  0.00335  0  1.466051  0  0  0.003165  0  1.764481  0  0  0.001297  0  1.754316  0  0  0.07398  0.003205  0  1.773827  0
Br  Br52  1  0.56834190  0.76208059  0.68303340  1  0  -0.023494  0  1.490542  0  0  -0.020364  0  1.788887  0  0  -0.023088  0  1.779029  0  0  0.053093  -0.018706  0  1.797145  0
Br  Br53  1  0.43162670  0.23790595  0.31699801  1  0  -0.023637  0  1.490581  0  0  -0.020472  0  1.788944  0  0  -0.023199  0  1.779086  0  0  0.053036  -0.018807  0  1.797207  0
O  O54  1  0.75903329  0.12370462  0.95838806  1  0  -0.895785  0  1.919243  0  0  -0.83951  0  2.111513  0  0  -0.858739  0  2.081201  0  0  -0.60093  -0.820561  0  2.133868  0
O  O55  1  0.24097174  0.87629684  0.04161101  1  0  -0.895854  0  1.919375  0  0  -0.839558  0  2.111651  0  0  -0.858788  0  2.081309  0  0  -0.600898  -0.8206  0  2.134004  0
O  O56  1  0.77884301  0.99471415  0.67680323  1  0  -0.729344  0  2.02875  0  0  -0.67476  0  2.272032  0  0  -0.700137  0  2.258857  0  0  -0.367513  -0.64951  0  2.281  0
O  O57  1  0.22115904  0.00527731  0.32320231  1  0  -0.729287  0  2.028742  0  0  -0.674722  0  2.271925  0  0  -0.700103  0  2.258761  0  0  -0.367561  -0.64946  0  2.280896  0
O  O58  1  0.95007153  0.88590259  0.91787675  1  0  -0.769568  0  2.07913  0  0  -0.727117  0  2.349465  0  0  -0.751095  0  2.334344  0  0  -0.41172  -0.700886  0  2.35841  0
O  O59  1  0.04994368  0.11410444  0.08212270  1  0  -0.769514  0  2.079078  0  0  -0.727137  0  2.34934  0  0  -0.751115  0  2.334214  0  0  -0.411685  -0.700899  0  2.358288  0
O  O60  1  0.86720738  0.24720922  0.71614566  1  0  -0.772467  0  2.104926  0  0  -0.725881  0  2.368616  0  0  -0.751698  0  2.357955  0  0  -0.428138  -0.700901  0  2.376214  0
O  O61  1  0.13279210  0.75279918  0.28385913  1  0  -0.772273  0  2.104827  0  0  -0.725694  0  2.368477  0  0  -0.75151  0  2.357822  0  0  -0.428066  -0.700722  0  2.376116  0
O  O62  1  0.96602020  0.77836819  0.10010523  1  0  -0.702745  0  2.029961  0  0  -0.662277  0  2.281838  0  0  -0.687221  0  2.272985  0  0  -0.374592  -0.638966  0  2.288476  0
O  O63  1  0.03397151  0.22163925  0.89989779  1  0  -0.70265  0  2.03004  0  0  -0.662245  0  2.281827  0  0  -0.687187  0  2.272968  0  0  -0.374602  -0.63893  0  2.288461  0
O  O64  1  0.21879540  0.97033796  0.80167265  1  0  -0.907052  0  1.850688  0  0  -0.865108  0  2.047729  0  0  -0.882645  0  2.021035  0  0  -0.624938  -0.847109  0  2.069314  0
O  O65  1  0.78120255  0.02967016  0.19832646  1  0  -0.907032  0  1.85051  0  0  -0.865085  0  2.04751  0  0  -0.882622  0  2.020818  0  0  -0.624896  -0.84708  0  2.069091  0
O  O66  1  0.57927267  0.06933365  0.83099777  1  0  -0.569783  0  1.981926  0  0  -0.516233  0  2.203615  0  0  -0.540739  0  2.193585  0  0  -0.292245  -0.499218  0  2.209832  0
O  O67  1  0.42073469  0.93065908  0.16901484  1  0  -0.569475  0  1.982148  0  0  -0.516118  0  2.203908  0  0  -0.540602  0  2.193872  0  0  -0.29218  -0.499101  0  2.210123  0
O  O68  1  0.08705737  0.85746082  0.61495408  1  0  -0.930862  0  1.856345  0  0  -0.886925  0  2.056521  0  0  -0.903801  0  2.023269  0  0  -0.651573  -0.867848  0  2.081771  0
O  O69  1  0.91294603  0.14254040  0.38504031  1  0  -0.930848  0  1.856396  0  0  -0.886867  0  2.056675  0  0  -0.903748  0  2.023423  0  0  -0.651592  -0.86779  0  2.081924  0
O  O70  1  0.93407157  0.34518391  0.52570688  1  0  -0.586762  0  1.976961  0  0  -0.537512  0  2.197957  0  0  -0.563497  0  2.191119  0  0  -0.29867  -0.520282  0  2.203226  0
O  O71  1  0.06592115  0.65481948  0.47429109  1  0  -0.586949  0  1.976948  0  0  -0.537689  0  2.197874  0  0  -0.563674  0  2.19103  0  0  -0.298729  -0.520444  0  2.203151  0
O  O72  1  0.14251383  0.11040803  0.57574757  1  0  -0.916742  0  1.897263  0  0  -0.868897  0  2.086614  0  0  -0.887341  0  2.056214  0  0  -0.652738  -0.848852  0  2.111121  0
O  O73  1  0.85747562  0.88960065  0.42424295  1  0  -0.916544  0  1.897217  0  0  -0.868668  0  2.086718  0  0  -0.887115  0  2.056331  0  0  -0.652668  -0.848618  0  2.111228  0
