# generated using pymatgen
data_DyAgH20C28N2O11
_symmetry_space_group_name_H-M   'P 1'
_cell_length_a   10.63835138
_cell_length_b   10.62551220
_cell_length_c   12.92420000
_cell_angle_alpha   103.02762139
_cell_angle_beta   104.53627096
_cell_angle_gamma   94.34321622
_symmetry_Int_Tables_number   1
_chemical_formula_structural   DyAgH20C28N2O11
_chemical_formula_sum   'Dy2 Ag2 H40 C56 N4 O22'
_cell_volume   1364.13411920
_cell_formula_units_Z   2
loop_
 _symmetry_equiv_pos_site_id
 _symmetry_equiv_pos_as_xyz
  1  'x, y, z'
loop_
 _atom_site_type_symbol
 _atom_site_label
 _atom_site_symmetry_multiplicity
 _atom_site_fract_x
 _atom_site_fract_y
 _atom_site_fract_z
 _atom_site_occupancy
 _atom_site_hle17_bader_spin_density
 _atom_site_hle17_ddec_charge
 _atom_site_hle17_ddec_spin_density
 _atom_site_hle17_ddec_sum_bond_order
 _atom_site_hle17_magmom
 _atom_site_hse06_10hf_bader_spin_density
 _atom_site_hse06_10hf_ddec_charge
 _atom_site_hse06_10hf_ddec_spin_density
 _atom_site_hse06_10hf_ddec_sum_bond_order
 _atom_site_hse06_10hf_magmom
 _atom_site_hse06_bader_spin_density
 _atom_site_hse06_ddec_charge
 _atom_site_hse06_ddec_spin_density
 _atom_site_hse06_ddec_sum_bond_order
 _atom_site_hse06_magmom
 _atom_site_pbe_bader_charge
 _atom_site_pbe_bader_spin_density
 _atom_site_pbe_cm5_charge
 _atom_site_pbe_ddec_charge
 _atom_site_pbe_ddec_spin_density
 _atom_site_pbe_ddec_sum_bond_order
 _atom_site_pbe_magmom
Dy  Dy0  1  0.10315807  0.32418597  0.40985603  1  0  2.222736  0  1.716602  0  0  2.086359  0  2.192631  0  0  2.135545  0  2.149028  0  2.157981  0  1.519849  2.048312  0  2.227741  0
Dy  Dy1  1  0.89684389  0.67581096  0.59014388  1  0  2.22277  0  1.71663  0  0  2.086411  0  2.192624  0  0  2.135554  0  2.149088  0  2.157951  0  1.519875  2.048335  0  2.227782  0
Ag  Ag2  1  0.48077754  0.85547773  0.51378637  1  0  0.462601  0  1.481776  0  0  0.308951  0  1.917007  0  0  0.339866  0  1.872425  0  0.529005  0  0.485294  0.288283  0  1.947018  0
Ag  Ag3  1  0.51922456  0.14452018  0.48621530  1  0  0.462585  0  1.481782  0  0  0.308945  0  1.917031  0  0  0.339865  0  1.872448  0  0.528919  0  0.4853  0.288281  0  1.947043  0
H  H4  1  0.04302977  0.01676059  0.63731303  1  0  0.129186  0  0.941813  0  0  0.136343  0  1.006825  0  0  0.141041  0  1.002749  0  0.155705  0  0.115217  0.132972  0  1.009804  0
H  H5  1  0.95696524  0.98324220  0.36268808  1  0  0.129166  0  0.941791  0  0  0.136339  0  1.006798  0  0  0.141033  0  1.002725  0  0.155632  0  0.115229  0.132967  0  1.009778  0
H  H6  1  0.11312315  0.13677844  0.99177582  1  0  0.137094  0  0.938564  0  0  0.14286  0  1.005652  0  0  0.14772  0  1.001506  0  0.141881  0  0.112895  0.139327  0  1.008784  0
H  H7  1  0.88687755  0.86322337  0.00822784  1  0  0.137098  0  0.938561  0  0  0.142848  0  1.00566  0  0  0.147713  0  1.001522  0  0.141907  0  0.112889  0.139314  0  1.008794  0
H  H8  1  0.21213620  0.41134512  0.81280109  1  0  0.108215  0  0.981604  0  0  0.11565  0  1.050998  0  0  0.119589  0  1.04822  0  0.058328  0  0.102146  0.112705  0  1.053362  0
H  H9  1  0.78785701  0.58865864  0.18719983  1  0  0.108197  0  0.981563  0  0  0.115642  0  1.050958  0  0  0.119583  0  1.048176  0  0.058007  0  0.102148  0.112696  0  1.053322  0
H  H10  1  0.20820618  0.54819869  0.96585965  1  0  0.067257  0  0.918002  0  0  0.081069  0  0.978991  0  0  0.082315  0  0.976705  0  0.045856  0  0.107081  0.080124  0  0.9807  0
H  H11  1  0.79179438  0.45180215  0.03414147  1  0  0.06726  0  0.918034  0  0  0.081074  0  0.979007  0  0  0.08232  0  0.97672  0  0.045857  0  0.107082  0.08013  0  0.980715  0
H  H12  1  0.36083883  0.48400034  0.98320877  1  0  0.056712  0  0.922768  0  0  0.068517  0  0.989622  0  0  0.069854  0  0.987257  0  0.029471  0  0.101155  0.067469  0  0.991435  0
H  H13  1  0.63916077  0.51600049  0.01679138  1  0  0.056734  0  0.922772  0  0  0.068536  0  0.989619  0  0  0.069873  0  0.987252  0  0.029385  0  0.101163  0.067489  0  0.991431  0
H  H14  1  0.52098128  0.53410941  0.16487310  1  0  0.102494  0  0.952116  0  0  0.114734  0  1.011404  0  0  0.116868  0  1.011942  0  0.084331  0  0.108771  0.113059  0  1.011358  0
H  H15  1  0.47901666  0.46588654  0.83512658  1  0  0.102521  0  0.952119  0  0  0.114755  0  1.011408  0  0  0.116889  0  1.011946  0  0.084328  0  0.108786  0.113078  0  1.011363  0
H  H16  1  0.58801222  0.66837557  0.35984597  1  0  0.100774  0  0.934611  0  0  0.111137  0  0.994269  0  0  0.112949  0  0.993005  0  0.141213  0  0.126919  0.109928  0  0.994876  0
H  H17  1  0.41198725  0.33161745  0.64015502  1  0  0.100693  0  0.93461  0  0  0.111075  0  0.994272  0  0  0.112882  0  0.993011  0  0.141233  0  0.126907  0.109867  0  0.994877  0
H  H18  1  0.21573336  0.77499882  0.33314372  1  0  0.086303  0  0.913785  0  0  0.100874  0  0.967143  0  0  0.102066  0  0.966452  0  0.119363  0  0.126585  0.100081  0  0.967432  0
H  H19  1  0.78426887  0.22500007  0.66685815  1  0  0.086383  0  0.913762  0  0  0.100925  0  0.967129  0  0  0.102116  0  0.96644  0  0.11943  0  0.126606  0.100133  0  0.967418  0
H  H20  1  0.13297785  0.64278541  0.13819250  1  0  0.113163  0  0.928497  0  0  0.128105  0  0.978638  0  0  0.130119  0  0.979554  0  0.107098  0  0.11686  0.126618  0  0.978215  0
H  H21  1  0.86702161  0.35721445  0.86180899  1  0  0.113184  0  0.92845  0  0  0.128119  0  0.9786  0  0  0.130133  0  0.979515  0  0.107067  0  0.116878  0.126631  0  0.978176  0
H  H22  1  0.58159578  0.41023191  0.47584221  1  0  0.115267  0  0.951379  0  0  0.123013  0  1.015183  0  0  0.126193  0  1.013601  0  0.090445  0  0.107172  0.120559  0  1.016827  0
H  H23  1  0.41840826  0.58976600  0.52415831  1  0  0.115217  0  0.951446  0  0  0.122983  0  1.015231  0  0  0.126165  0  1.013647  0  0.090432  0  0.107181  0.120532  0  1.016869  0
H  H24  1  0.34362645  0.26362678  0.13907135  1  0  0.133324  0  0.94334  0  0  0.139015  0  1.009664  0  0  0.143426  0  1.006234  0  0.135764  0  0.113693  0.135695  0  1.012051  0
H  H25  1  0.65637495  0.73637308  0.86092899  1  0  0.133361  0  0.943382  0  0  0.139044  0  1.009706  0  0  0.143461  0  1.006269  0  0.135716  0  0.113726  0.135722  0  1.012095  0
H  H26  1  0.76301556  0.25177564  0.22331841  1  0  0.130667  0  0.964687  0  0  0.136605  0  1.032934  0  0  0.140427  0  1.030298  0  0.138557  0  0.115531  0.133858  0  1.034717  0
H  H27  1  0.23698514  0.74822617  0.77668138  1  0  0.130655  0  0.964635  0  0  0.13653  0  1.032945  0  0  0.140347  0  1.030318  0  0.138588  0  0.115502  0.133782  0  1.03473  0
H  H28  1  0.68355127  0.08426246  0.06998118  1  0  0.080959  0  0.920533  0  0  0.093392  0  0.985542  0  0  0.093288  0  0.98593  0  0.097853  0  0.113189  0.093355  0  0.985515  0
H  H29  1  0.31645263  0.91574130  0.93001730  1  0  0.080926  0  0.920508  0  0  0.093362  0  0.985524  0  0  0.093265  0  0.985913  0  0.097826  0  0.113209  0.093325  0  0.985496  0
H  H30  1  0.72489779  0.23609801  0.04516337  1  0  0.075429  0  0.918024  0  0  0.090073  0  0.979362  0  0  0.090336  0  0.978329  0  0.08715  0  0.11131  0.08982  0  0.980289  0
H  H31  1  0.27510194  0.76390379  0.95483467  1  0  0.075418  0  0.918048  0  0  0.090061  0  0.979381  0  0  0.090329  0  0.978351  0  0.086965  0  0.111311  0.089808  0  0.980312  0
H  H32  1  0.40020218  0.12403653  0.87085185  1  0  0.114941  0  0.959159  0  0  0.120891  0  1.026695  0  0  0.123417  0  1.027108  0  0.106995  0  0.109101  0.119084  0  1.026553  0
H  H33  1  0.59979687  0.87596040  0.12914668  1  0  0.114938  0  0.959244  0  0  0.120885  0  1.026776  0  0  0.123411  0  1.027189  0  0.106968  0  0.109101  0.119078  0  1.026634  0
H  H34  1  0.34840282  0.01425611  0.67054163  1  0  0.086813  0  0.923338  0  0  0.099896  0  0.981512  0  0  0.101573  0  0.979867  0  0.107241  0  0.121847  0.098678  0  0.982692  0
H  H35  1  0.65159581  0.98573790  0.32945782  1  0  0.086805  0  0.923361  0  0  0.099896  0  0.981519  0  0  0.101562  0  0.979891  0  0.107249  0  0.121828  0.098677  0  0.982698  0
H  H36  1  0.73344314  0.94034119  0.70099726  1  0  0.096132  0  0.946488  0  0  0.105124  0  1.008314  0  0  0.107404  0  1.00645  0  0.144831  0  0.125048  0.103429  0  1.009551  0
H  H37  1  0.26655908  0.05966453  0.29900279  1  0  0.096155  0  0.946474  0  0  0.105121  0  1.008335  0  0  0.107402  0  1.006471  0  0.144843  0  0.125064  0.10343  0  1.00957  0
H  H38  1  0.79917204  0.04600063  0.90378131  1  0  0.13461  0  0.937576  0  0  0.146345  0  0.992366  0  0  0.149244  0  0.992043  0  0.151002  0  0.118517  0.144131  0  0.992985  0
H  H39  1  0.20083046  0.95400703  0.09621838  1  0  0.134536  0  0.937725  0  0  0.146373  0  0.992405  0  0  0.149248  0  0.992114  0  0.15109  0  0.118546  0.144169  0  0.993013  0
H  H40  1  0.93594614  0.50772313  0.31326973  1  0  0.434421  0  0.863966  0  0  0.402863  0  0.929702  0  0  0.414097  0  0.913189  0  0.636918  0  0.2948  0.394884  0  0.94146  0
H  H41  1  0.06405734  0.49227771  0.68673122  1  0  0.434395  0  0.864004  0  0  0.402837  0  0.929739  0  0  0.41407  0  0.913228  0  0.636843  0  0.294793  0.394857  0  0.941498  0
H  H42  1  0.03751325  0.45923070  0.24676579  1  0  0.435249  0  0.823923  0  0  0.415077  0  0.882835  0  0  0.424296  0  0.869265  0  0.618092  0  0.320575  0.408651  0  0.891624  0
H  H43  1  0.96248787  0.54076721  0.75323336  1  0  0.435272  0  0.823894  0  0  0.415099  0  0.882806  0  0  0.424319  0  0.869233  0  0.618101  0  0.320591  0.408673  0  0.891597  0
C  C44  1  0.12994762  0.21725150  0.71600740  1  0  -0.041006  0  3.791645  0  0  -0.013285  0  4.022171  0  0  -0.02019  0  4.045469  0  -0.058428  0  -0.02371  -0.008897  0  4.006499  0
C  C45  1  0.87004378  0.78275323  0.28399410  1  0  -0.040814  0  3.791309  0  0  -0.013048  0  4.021777  0  0  -0.019953  0  4.045075  0  -0.058255  0  -0.023622  -0.008661  0  4.006103  0
C  C46  1  0.07969050  0.09147052  0.71505213  1  0  -0.100592  0  3.682889  0  0  -0.137402  0  3.928385  0  0  -0.136603  0  3.946591  0  -0.046044  0  -0.085245  -0.137663  0  3.91608  0
C  C47  1  0.92030355  0.90853227  0.28494955  1  0  -0.100649  0  3.682817  0  0  -0.137493  0  3.928317  0  0  -0.136694  0  3.946521  0  -0.045983  0  -0.085295  -0.137752  0  3.916012  0
C  C48  1  0.07504618  0.06266463  0.81510187  1  0  -0.047104  0  3.752215  0  0  -0.021661  0  3.986557  0  0  -0.027522  0  4.008662  0  -0.010167  0  -0.016565  -0.018176  0  3.972068  0
C  C49  1  0.92494912  0.93733328  0.18489994  1  0  -0.047094  0  3.752195  0  0  -0.021628  0  3.986495  0  0  -0.027485  0  4.0086  0  -0.010257  0  -0.016558  -0.018144  0  3.972005  0
C  C50  1  0.11978681  0.15892946  0.91472573  1  0  -0.170558  0  3.677314  0  0  -0.207466  0  3.933031  0  0  -0.208018  0  3.947377  0  -0.028022  0  -0.091454  -0.207106  0  3.924133  0
C  C51  1  0.88020807  0.84107235  0.08527594  1  0  -0.170564  0  3.67725  0  0  -0.207466  0  3.932979  0  0  -0.20803  0  3.947334  0  -0.027981  0  -0.091453  -0.207104  0  3.924083  0
C  C52  1  0.16955086  0.28487045  0.91461143  1  0  0.254841  0  3.838502  0  0  0.248179  0  4.103924  0  0  0.257619  0  4.119592  0  0.362609  0  0.073909  0.241523  0  4.093554  0
C  C53  1  0.83044305  0.71513136  0.08539004  1  0  0.254867  0  3.838313  0  0  0.248211  0  4.103777  0  0  0.257655  0  4.119443  0  0.362596  0  0.073986  0.241552  0  4.093409  0
C  C54  1  0.17506391  0.31436905  0.81577870  1  0  -0.229347  0  3.76858  0  0  -0.262772  0  4.021343  0  0  -0.265657  0  4.040466  0  0.012204  0  -0.114154  -0.260903  0  4.008877  0
C  C55  1  0.82492861  0.68563667  0.18422476  1  0  -0.229399  0  3.768504  0  0  -0.262847  0  4.021296  0  0  -0.265731  0  4.040416  0  0.012545  0  -0.114277  -0.260977  0  4.00883  0
C  C56  1  0.13388504  0.25394840  0.61163810  1  0  0.639475  0  3.93386  0  0  0.594432  0  4.222447  0  0  0.628525  0  4.213686  0  1.522618  0  0.192435  0.571423  0  4.227539  0
C  C57  1  0.86610900  0.74605439  0.38836358  1  0  0.639247  0  3.933903  0  0  0.594163  0  4.222541  0  0  0.628257  0  4.213781  0  1.522334  0  0.192381  0.571154  0  4.227623  0
C  C58  1  0.02385773  0.92619630  0.81693562  1  0  0.679679  0  3.90839  0  0  0.636206  0  4.201511  0  0  0.669638  0  4.19205  0  1.597057  0  0.214262  0.613532  0  4.207086  0
C  C59  1  0.97614173  0.07380356  0.18306432  1  0  0.679681  0  3.908655  0  0  0.636224  0  4.201748  0  0  0.669653  0  4.192292  0  1.597105  0  0.214248  0.613552  0  4.207321  0
C  C60  1  0.27611530  0.49837255  0.01725497  1  0  0.049839  0  3.643932  0  0  -0.013782  0  3.90723  0  0  -0.005559  0  3.909632  0  0.493785  0  -0.055153  -0.019293  0  3.90533  0
C  C61  1  0.72388429  0.50162828  0.98274595  1  0  0.049784  0  3.643988  0  0  -0.013788  0  3.907235  0  0  -0.00556  0  3.909636  0  0.493832  0  -0.055155  -0.019302  0  3.905338  0
C  C62  1  0.32106508  0.57785338  0.13502597  1  0  0.124816  0  3.716062  0  0  0.136935  0  3.959603  0  0  0.141146  0  3.980382  0  0.016369  0  0.014133  0.134405  0  3.945392  0
C  C63  1  0.67893466  0.42214843  0.86497361  1  0  0.124878  0  3.716003  0  0  0.136988  0  3.959546  0  0  0.141196  0  3.980325  0  0.015901  0  0.014128  0.134458  0  3.945335  0
C  C64  1  0.45003871  0.58628490  0.19857221  1  0  -0.14397  0  3.708413  0  0  -0.163933  0  3.955648  0  0  -0.172497  0  3.979736  0  0.008459  0  -0.074983  -0.15803  0  3.938404  0
C  C65  1  0.54996061  0.41371398  0.80142675  1  0  -0.144033  0  3.708343  0  0  -0.16398  0  3.955583  0  0  -0.172544  0  3.979669  0  0.008498  0  -0.074973  -0.158077  0  3.93834  0
C  C66  1  0.48890023  0.66154802  0.30703286  1  0  0.130645  0  3.660463  0  0  0.100059  0  3.902788  0  0  0.106684  0  3.923804  0  0.419724  0  0.052553  0.096187  0  3.887377  0
C  C67  1  0.51109964  0.33844794  0.69296877  1  0  0.130751  0  3.660362  0  0  0.100149  0  3.902753  0  0  0.106781  0  3.923761  0  0.419298  0  0.052545  0.096281  0  3.887344  0
C  C68  1  0.28007246  0.71968956  0.29283312  1  0  0.1315  0  3.68821  0  0  0.098478  0  3.936017  0  0  0.105848  0  3.956176  0  0.52783  0  0.052874  0.093721  0  3.921644  0
C  C69  1  0.71992881  0.28030932  0.70716933  1  0  0.131341  0  3.68835  0  0  0.098399  0  3.936132  0  0  0.10577  0  3.956291  0  0.527736  0  0.052865  0.093648  0  3.921755  0
C  C70  1  0.23464579  0.64533770  0.18430382  1  0  -0.136206  0  3.684782  0  0  -0.156488  0  3.932626  0  0  -0.163591  0  3.953826  0  -0.11166  0  -0.069759  -0.152034  0  3.91829  0
C  C71  1  0.76535464  0.35466216  0.81569787  1  0  -0.136218  0  3.684808  0  0  -0.156516  0  3.932643  0  0  -0.163616  0  3.953841  0  -0.111316  0  -0.069777  -0.152061  0  3.918307  0
C  C72  1  0.68354996  0.33412388  0.35615575  1  0  -0.035483  0  3.776306  0  0  -0.009174  0  4.004853  0  0  -0.0154  0  4.025958  0  -0.015921  0  -0.01456  -0.005934  0  3.991613  0
C  C73  1  0.31645089  0.66587207  0.64384298  1  0  -0.035556  0  3.776592  0  0  -0.009153  0  4.004997  0  0  -0.015378  0  4.026102  0  -0.015698  0  -0.014563  -0.005911  0  3.991759  0
C  C74  1  0.57259612  0.36451519  0.38960464  1  0  -0.126261  0  3.760704  0  0  -0.159253  0  4.012921  0  0  -0.158675  0  4.030407  0  -0.034494  0  -0.09929  -0.160331  0  4.002059  0
C  C75  1  0.42740570  0.63548077  0.61039584  1  0  -0.126115  0  3.760873  0  0  -0.159139  0  4.013098  0  0  -0.158561  0  4.030585  0  -0.034404  0  -0.099249  -0.160215  0  4.002229  0
C  C76  1  0.45021781  0.33539124  0.31107549  1  0  -0.038305  0  3.806295  0  0  -0.011387  0  4.034406  0  0  -0.017446  0  4.055799  0  -0.064727  0  -0.021069  -0.007686  0  4.018761  0
C  C77  1  0.54978346  0.66460764  0.68892541  1  0  -0.038309  0  3.806301  0  0  -0.011472  0  4.034551  0  0  -0.017532  0  4.055943  0  -0.064776  0  -0.021074  -0.00777  0  4.018906  0
C  C78  1  0.43916259  0.28311429  0.19968419  1  0  -0.168702  0  3.682573  0  0  -0.206654  0  3.942076  0  0  -0.20747  0  3.958028  0  0.026543  0  -0.091206  -0.204664  0  3.930059  0
C  C79  1  0.56083965  0.71688459  0.80031614  1  0  -0.168759  0  3.682648  0  0  -0.20668  0  3.942174  0  0  -0.207501  0  3.95812  0  0.026562  0  -0.091257  -0.204691  0  3.930159  0
C  C80  1  0.55174284  0.25333472  0.16706073  1  0  0.259213  0  3.824514  0  0  0.251951  0  4.092391  0  0  0.261229  0  4.108482  0  0.396846  0  0.077993  0.244787  0  4.082045  0
C  C81  1  0.44825829  0.74666319  0.83293920  1  0  0.259169  0  3.82456  0  0  0.251926  0  4.092433  0  0  0.261212  0  4.108522  0  0.39687  0  0.077965  0.244757  0  4.082087  0
C  C82  1  0.67399457  0.27590136  0.24528470  1  0  -0.196317  0  3.696584  0  0  -0.230651  0  3.94734  0  0  -0.233074  0  3.96601  0  -0.025139  0  -0.097292  -0.228157  0  3.934761  0
C  C83  1  0.32600627  0.72410143  0.75471374  1  0  -0.196278  0  3.696576  0  0  -0.230587  0  3.947339  0  0  -0.233008  0  3.966009  0  -0.025114  0  -0.097274  -0.228094  0  3.934763  0
C  C84  1  0.81396912  0.35902231  0.43959656  1  0  0.729159  0  3.871582  0  0  0.683161  0  4.157337  0  0  0.719267  0  4.14382  0  1.584721  0  0.232827  0.659128  0  4.164996  0
C  C85  1  0.18603354  0.64097266  0.56040004  1  0  0.729108  0  3.871754  0  0  0.683101  0  4.157464  0  0  0.719206  0  4.143948  0  1.584508  0  0.232755  0.659065  0  4.165131  0
C  C86  1  0.32989728  0.34780046  0.34872957  1  0  0.639461  0  3.932  0  0  0.595258  0  4.218369  0  0  0.629082  0  4.21014  0  1.53149  0  0.186641  0.572862  0  4.22259  0
C  C87  1  0.67010606  0.65219940  0.65127194  1  0  0.63952  0  3.931911  0  0  0.595324  0  4.218311  0  0  0.629152  0  4.210071  0  1.531836  0  0.18675  0.572927  0  4.222529  0
C  C88  1  0.64400577  0.15522884  0.02438974  1  0  0.042286  0  3.65187  0  0  -0.017572  0  3.907374  0  0  -0.009959  0  3.911181  0  0.385584  0  -0.05462  -0.022744  0  3.904751  0
C  C89  1  0.35599674  0.84477199  0.97560869  1  0  0.042357  0  3.651922  0  0  -0.017467  0  3.907405  0  0  -0.009875  0  3.911257  0  0.385807  0  -0.054621  -0.022646  0  3.904783  0
C  C90  1  0.60430608  0.09293008  0.90306441  1  0  0.133519  0  3.708221  0  0  0.144317  0  3.950345  0  0  0.150021  0  3.969955  0  -0.058761  0  0.014681  0.14077  0  3.937131  0
C  C91  1  0.39569379  0.90707270  0.09693538  1  0  0.133518  0  3.708171  0  0  0.144307  0  3.950354  0  0  0.150021  0  3.969959  0  -0.058694  0  0.014681  0.14076  0  3.937143  0
C  C92  1  0.47657252  0.08413367  0.83650346  1  0  -0.157712  0  3.700592  0  0  -0.180423  0  3.955173  0  0  -0.187967  0  3.976729  0  -0.009588  0  -0.086129  -0.175735  0  3.940737  0
C  C93  1  0.52342763  0.91586423  0.16349394  1  0  -0.157691  0  3.700655  0  0  -0.180398  0  3.955238  0  0  -0.187941  0  3.976786  0  -0.009591  0  -0.086111  -0.17571  0  3.940799  0
C  C94  1  0.44727391  0.02318325  0.72457926  1  0  0.116847  0  3.722148  0  0  0.084682  0  3.970063  0  0  0.091745  0  3.991379  0  0.519087  0  0.042376  0.08028  0  3.955532  0
C  C95  1  0.55272597  0.97681271  0.27541850  1  0  0.116834  0  3.722143  0  0  0.084672  0  3.97003  0  0  0.091743  0  3.991356  0  0.519039  0  0.042394  0.080274  0  3.955495  0
C  C96  1  0.66223476  0.98219045  0.74146713  1  0  0.120868  0  3.700256  0  0  0.087992  0  3.948152  0  0  0.094743  0  3.969282  0  0.372069  0  0.044463  0.084027  0  3.932567  0
C  C97  1  0.33776830  0.01781428  0.25853368  1  0  0.120834  0  3.70019  0  0  0.087966  0  3.948142  0  0  0.094721  0  3.969268  0  0.372095  0  0.044461  0.083996  0  3.932566  0
C  C98  1  0.69859041  0.04085021  0.85384519  1  0  -0.157643  0  3.672243  0  0  -0.176208  0  3.918342  0  0  -0.185242  0  3.941183  0  0.059622  0  -0.076742  -0.170366  0  3.902501  0
C  C99  1  0.30141182  0.95915550  0.14615408  1  0  -0.157593  0  3.672317  0  0  -0.176265  0  3.91846  0  0  -0.185279  0  3.941314  0  0.059483  0  -0.07682  -0.170431  0  3.902616  0
N  N100  1  0.40567012  0.72903331  0.35302600  1  0  -0.281095  0  3.358292  0  0  -0.185929  0  3.629613  0  0  -0.206924  0  3.649077  0  -1.184977  0  -0.348198  -0.171627  0  3.615861  0
N  N101  1  0.59433171  0.27096265  0.64697525  1  0  -0.281014  0  3.358277  0  0  -0.185928  0  3.629654  0  0  -0.206925  0  3.649115  0  -1.184407  0  -0.348213  -0.171635  0  3.615909  0
N  N102  1  0.53823831  0.97305940  0.67742140  1  0  -0.320765  0  3.446845  0  0  -0.222271  0  3.717464  0  0  -0.244796  0  3.738865  0  -1.228764  0  -0.363094  -0.207262  0  3.702322  0
N  N103  1  0.46176407  0.02694045  0.32257915  1  0  -0.320749  0  3.446819  0  0  -0.222238  0  3.717409  0  0  -0.244771  0  3.738818  0  -1.228721  0  -0.363091  -0.20723  0  3.702267  0
O  O104  1  0.13884724  0.37586778  0.61158181  1  0  -0.730992  0  2.026554  0  0  -0.674325  0  2.263592  0  0  -0.700332  0  2.254107  0  -1.184654  0  -0.372616  -0.655887  0  2.269608  0
O  O105  1  0.86115541  0.62413403  0.38841838  1  0  -0.730893  0  2.026562  0  0  -0.674215  0  2.263609  0  0  -0.700218  0  2.254124  0  -1.184588  0  -0.372586  -0.655772  0  2.269619  0
O  O106  1  0.96699126  0.42853889  0.27467408  1  0  -0.879122  0  1.84066  0  0  -0.838045  0  2.029219  0  0  -0.855163  0  1.997478  0  -1.239949  0  -0.615096  -0.825821  0  2.050853  0
O  O107  1  0.03301014  0.57146097  0.72532626  1  0  -0.879113  0  1.840666  0  0  -0.838045  0  2.02923  0  0  -0.855156  0  1.997493  0  -1.239905  0  -0.61511  -0.825817  0  2.05087  0
O  O108  1  0.13201725  0.16822247  0.52499994  1  0  -0.670558  0  1.923499  0  0  -0.626124  0  2.153386  0  0  -0.648589  0  2.142175  0  -1.170991  0  -0.368163  -0.610507  0  2.160929  0
O  O109  1  0.86796986  0.83177934  0.47500168  1  0  -0.670457  0  1.923471  0  0  -0.626014  0  2.153367  0  0  -0.648469  0  2.142149  0  -1.170791  0  -0.368134  -0.610394  0  2.160906  0
O  O110  1  0.94307151  0.85803489  0.72509533  1  0  -0.797073  0  2.055564  0  0  -0.74207  0  2.31783  0  0  -0.768873  0  2.305534  0  -1.213868  0  -0.458224  -0.722558  0  2.325281  0
O  O111  1  0.05692712  0.14195911  0.27490104  1  0  -0.797057  0  2.055888  0  0  -0.742041  0  2.318116  0  0  -0.768847  0  2.305815  0  -1.213894  0  -0.458184  -0.722536  0  2.325565  0
O  O112  1  0.06150986  0.88904573  0.90316636  1  0  -0.604123  0  1.86967  0  0  -0.56814  0  2.089365  0  0  -0.588898  0  2.079637  0  -1.170185  0  -0.322354  -0.553572  0  2.09563  0
O  O113  1  0.93848696  0.11095608  0.09683417  1  0  -0.604141  0  1.869642  0  0  -0.568158  0  2.089325  0  0  -0.588918  0  2.0796  0  -1.170204  0  -0.322353  -0.553592  0  2.095592  0
O  O114  1  0.21114816  0.37434675  0.01573457  1  0  -0.270052  0  2.291206  0  0  -0.199076  0  2.519456  0  0  -0.215808  0  2.520033  0  -1.051882  0  -0.175179  -0.187132  0  2.518438  0
O  O115  1  0.78885157  0.62565506  0.98426734  1  0  -0.270076  0  2.291177  0  0  -0.199151  0  2.519443  0  0  -0.215892  0  2.520024  0  -1.052098  0  -0.175215  -0.187205  0  2.518425  0
O  O116  1  0.89559666  0.28193669  0.41967513  1  0  -0.735949  0  2.033689  0  0  -0.681696  0  2.278567  0  0  -0.707897  0  2.267756  0  -1.196157  0  -0.42035  -0.663982  0  2.285491  0
O  O117  1  0.10440406  0.71805829  0.58032262  1  0  -0.736011  0  2.033754  0  0  -0.681763  0  2.278609  0  0  -0.707957  0  2.267805  0  -1.196122  0  -0.42039  -0.664042  0  2.285538  0
O  O118  1  0.83661066  0.45341976  0.52468949  1  0  -0.756325  0  2.07939  0  0  -0.707835  0  2.342199  0  0  -0.733027  0  2.330192  0  -1.197809  0  -0.406539  -0.689202  0  2.349047  0
O  O119  1  0.16339643  0.54657912  0.47530720  1  0  -0.756214  0  2.079434  0  0  -0.707732  0  2.342255  0  0  -0.732927  0  2.330244  0  -1.197918  0  -0.40644  -0.689103  0  2.349102  0
O  O120  1  0.32977051  0.31471930  0.43912551  1  0  -0.73275  0  1.992015  0  0  -0.6793  0  2.251886  0  0  -0.705775  0  2.240923  0  -1.174287  0  -0.401037  -0.661321  0  2.258867  0
O  O121  1  0.67023034  0.68527665  0.56087322  1  0  -0.7328  0  1.991893  0  0  -0.679357  0  2.251781  0  0  -0.70583  0  2.24082  0  -1.174222  0  -0.401093  -0.661374  0  2.258761  0
O  O122  1  0.23013482  0.38316755  0.29165996  1  0  -0.663045  0  1.977215  0  0  -0.620607  0  2.213693  0  0  -0.643776  0  2.20527  0  -1.171543  0  -0.367853  -0.604236  0  2.218964  0
O  O123  1  0.76986589  0.61682743  0.70833702  1  0  -0.663094  0  1.977409  0  0  -0.6206  0  2.213799  0  0  -0.643765  0  2.205374  0  -1.171948  0  -0.367896  -0.604226  0  2.219071  0
O  O124  1  0.53286039  0.20024993  0.05643816  1  0  -0.285467  0  2.333004  0  0  -0.215057  0  2.565893  0  0  -0.232482  0  2.568845  0  -1.07358  0  -0.182093  -0.202875  0  2.563836  0
O  O125  1  0.46713920  0.79975090  0.94356044  1  0  -0.285441  0  2.333181  0  0  -0.215078  0  2.5661  0  0  -0.232515  0  2.56907  0  -1.0736  0  -0.182063  -0.202888  0  2.564037  0
