# generated using pymatgen
data_ZnH16C18N2O9
_symmetry_space_group_name_H-M   'P 1'
_cell_length_a   7.68603174
_cell_length_b   11.37153144
_cell_length_c   11.46076758
_cell_angle_alpha   68.92741649
_cell_angle_beta   89.71180267
_cell_angle_gamma   72.52207821
_symmetry_Int_Tables_number   1
_chemical_formula_structural   ZnH16C18N2O9
_chemical_formula_sum   'Zn2 H32 C36 N4 O18'
_cell_volume   885.56812174
_cell_formula_units_Z   2
loop_
 _symmetry_equiv_pos_site_id
 _symmetry_equiv_pos_as_xyz
  1  'x, y, z'
loop_
 _atom_site_type_symbol
 _atom_site_label
 _atom_site_symmetry_multiplicity
 _atom_site_fract_x
 _atom_site_fract_y
 _atom_site_fract_z
 _atom_site_occupancy
 _atom_site_hle17_bader_spin_density
 _atom_site_hle17_ddec_charge
 _atom_site_hle17_ddec_spin_density
 _atom_site_hle17_ddec_sum_bond_order
 _atom_site_hle17_magmom
 _atom_site_hse06_10hf_bader_spin_density
 _atom_site_hse06_10hf_ddec_charge
 _atom_site_hse06_10hf_ddec_spin_density
 _atom_site_hse06_10hf_ddec_sum_bond_order
 _atom_site_hse06_10hf_magmom
 _atom_site_hse06_bader_spin_density
 _atom_site_hse06_ddec_charge
 _atom_site_hse06_ddec_spin_density
 _atom_site_hse06_ddec_sum_bond_order
 _atom_site_hse06_magmom
 _atom_site_pbe_bader_spin_density
 _atom_site_pbe_cm5_charge
 _atom_site_pbe_ddec_charge
 _atom_site_pbe_ddec_spin_density
 _atom_site_pbe_ddec_sum_bond_order
 _atom_site_pbe_magmom
Zn  Zn0  1  0.27610552  0.34455736  0.97383116  1  0  1.133154  0  1.702535  0  0  0.958011  0  2.146673  0  0  1.006835  0  2.090832  0  0  0.68629  0.923675  0  2.185015  0
Zn  Zn1  1  0.72389250  0.65544271  0.02616672  1  0  1.133197  0  1.702572  0  0  0.958061  0  2.146716  0  0  1.006892  0  2.090872  0  0  0.686296  0.923724  0  2.185061  0
H  H2  1  0.87085749  0.78925665  0.31928236  1  0  0.386451  0  0.934137  0  0  0.355831  0  1.006123  0  0  0.368894  0  0.988147  0  0  0.2907  0.346745  0  1.018581  0
H  H3  1  0.12913358  0.21074443  0.68071867  1  0  0.386518  0  0.934031  0  0  0.35591  0  1.006012  0  0  0.368973  0  0.988036  0  0  0.290688  0.346824  0  1.018471  0
H  H4  1  0.96345398  0.41416450  0.80805331  1  0  0.42536  0  0.860276  0  0  0.395123  0  0.928108  0  0  0.405467  0  0.913128  0  0  0.291794  0.387778  0  0.938725  0
H  H5  1  0.03654534  0.58583556  0.19194544  1  0  0.425324  0  0.860252  0  0  0.395084  0  0.92815  0  0  0.405428  0  0.913169  0  0  0.291785  0.387739  0  0.938767  0
H  H6  1  0.99582641  0.52991997  0.84534273  1  0  0.412427  0  0.903658  0  0  0.381155  0  0.968114  0  0  0.392973  0  0.951105  0  0  0.283993  0.372824  0  0.980081  0
H  H7  1  0.00417334  0.47007910  0.15465637  1  0  0.412411  0  0.903687  0  0  0.381136  0  0.968147  0  0  0.392955  0  0.951137  0  0  0.283991  0.372805  0  0.980114  0
H  H8  1  0.45423813  0.50410803  0.33242862  1  0  0.268815  0  0.908909  0  0  0.248262  0  0.97565  0  0  0.257359  0  0.969241  0  0  0.304333  0.241823  0  0.980125  0
H  H9  1  0.54576250  0.49589501  0.66757082  1  0  0.268807  0  0.908914  0  0  0.248246  0  0.975662  0  0  0.257341  0  0.969256  0  0  0.304336  0.241807  0  0.980139  0
H  H10  1  0.48585507  0.41969146  0.14082146  1  0  0.105916  0  0.973756  0  0  0.107311  0  1.048093  0  0  0.110808  0  1.044422  0  0  0.120382  0.104765  0  1.050716  0
H  H11  1  0.51414209  0.58031059  0.85917746  1  0  0.105836  0  0.973875  0  0  0.1073  0  1.048126  0  0  0.110797  0  1.044456  0  0  0.120379  0.104753  0  1.050754  0
H  H12  1  0.70542998  0.07904277  0.48512582  1  0  0.113809  0  0.955254  0  0  0.124536  0  1.014009  0  0  0.12755  0  1.011813  0  0  0.11079  0.122298  0  1.015635  0
H  H13  1  0.29457890  0.92095924  0.51487133  1  0  0.113783  0  0.955301  0  0  0.124536  0  1.014028  0  0  0.127552  0  1.011828  0  0  0.110792  0.122298  0  1.015652  0
H  H14  1  0.56078045  0.95269478  0.39450798  1  0  0.106236  0  0.948524  0  0  0.117546  0  1.005225  0  0  0.120484  0  1.005045  0  0  0.109507  0.115454  0  1.005506  0
H  H15  1  0.43922756  0.04730625  0.60549040  1  0  0.10625  0  0.948507  0  0  0.117528  0  1.005247  0  0  0.120469  0  1.005068  0  0  0.109496  0.115437  0  1.005526  0
H  H16  1  0.38171134  0.07163772  0.18161425  1  0  0.097094  0  0.94594  0  0  0.103386  0  1.013509  0  0  0.106349  0  1.010092  0  0  0.121935  0.101144  0  1.016082  0
H  H17  1  0.61828800  0.92836532  0.81838693  1  0  0.097137  0  0.945845  0  0  0.103355  0  1.013507  0  0  0.106318  0  1.010091  0  0  0.121945  0.101114  0  1.016079  0
H  H18  1  0.75344978  0.39868083  0.28921271  1  0  0.114999  0  0.926199  0  0  0.126172  0  0.98881  0  0  0.127626  0  0.987939  0  0  0.12289  0.125004  0  0.989539  0
H  H19  1  0.24655216  0.60132220  0.71078760  1  0  0.115007  0  0.926152  0  0  0.126167  0  0.988762  0  0  0.127619  0  0.98789  0  0  0.122907  0.125  0  0.989491  0
H  H20  1  0.79756799  0.27462527  0.44535741  1  0  0.106492  0  0.942825  0  0  0.115986  0  1.007006  0  0  0.118379  0  1.004598  0  0  0.11835  0.114138  0  1.008877  0
H  H21  1  0.20243264  0.72537776  0.55464202  1  0  0.106523  0  0.94281  0  0  0.116011  0  1.006984  0  0  0.118403  0  1.004577  0  0  0.118365  0.114164  0  1.008856  0
H  H22  1  0.57354760  0.30126681  0.59311025  1  0  0.111464  0  0.93672  0  0  0.122578  0  0.998379  0  0  0.124475  0  0.99754  0  0  0.121491  0.121091  0  0.999157  0
H  H23  1  0.42645520  0.69873423  0.40688901  1  0  0.111476  0  0.936752  0  0  0.122562  0  0.998413  0  0  0.124458  0  0.997572  0  0  0.121494  0.121074  0  0.999192  0
H  H24  1  0.38549222  0.32545612  0.48782729  1  0  0.101209  0  0.896031  0  0  0.120761  0  0.944068  0  0  0.121344  0  0.944682  0  0  0.126229  0.120246  0  0.943788  0
H  H25  1  0.61450928  0.67454493  0.51217285  1  0  0.101201  0  0.896085  0  0  0.120735  0  0.944117  0  0  0.121315  0  0.944732  0  0  0.126233  0.12022  0  0.943837  0
H  H26  1  0.71917057  0.56763613  0.35682240  1  0  0.128699  0  0.924075  0  0  0.137623  0  0.988203  0  0  0.140151  0  0.986193  0  0  0.126274  0.135682  0  0.989812  0
H  H27  1  0.28083007  0.43236691  0.64317703  1  0  0.128632  0  0.924093  0  0  0.137594  0  0.988182  0  0  0.140122  0  0.98617  0  0  0.126263  0.135654  0  0.989791  0
H  H28  1  0.77146441  0.44793487  0.51610631  1  0  0.105118  0  0.910033  0  0  0.117938  0  0.968584  0  0  0.119788  0  0.967415  0  0  0.121651  0.116467  0  0.969663  0
H  H29  1  0.22853795  0.55206717  0.48389173  1  0  0.105081  0  0.910051  0  0  0.117897  0  0.968614  0  0  0.119744  0  0.967445  0  0  0.121627  0.116427  0  0.969691  0
H  H30  1  0.64122089  0.08464882  0.92887603  1  0  0.116519  0  0.936855  0  0  0.125532  0  0.998531  0  0  0.129458  0  0.9963  0  0  0.110814  0.122623  0  1.000378  0
H  H31  1  0.35878060  0.91534925  0.07112517  1  0  0.116532  0  0.936855  0  0  0.125547  0  0.998529  0  0  0.129474  0  0.996297  0  0  0.110821  0.122634  0  1.000379  0
H  H32  1  0.06136624  0.12055218  0.22862852  1  0  0.110347  0  0.948531  0  0  0.11734  0  1.01254  0  0  0.121692  0  1.009171  0  0  0.109638  0.11423  0  1.014986  0
H  H33  1  0.93863482  0.87944391  0.77137164  1  0  0.11033  0  0.948525  0  0  0.117322  0  1.012537  0  0  0.121675  0  1.009167  0  0  0.109619  0.114214  0  1.014983  0
C  C34  1  0.50279034  0.31746965  0.20175474  1  0  0.097002  0  3.634325  0  0  0.054793  0  3.886839  0  0  0.062196  0  3.903928  0  0  0.049818  0.049417  0  3.876469  0
C  C35  1  0.49720942  0.68253240  0.79824504  1  0  0.097067  0  3.634316  0  0  0.054788  0  3.886791  0  0  0.062192  0  3.903882  0  0  0.049818  0.049415  0  3.876416  0
C  C36  1  0.60288145  0.26001956  0.32101390  1  0  0.014635  0  3.743319  0  0  0.038593  0  3.98602  0  0  0.031992  0  4.011727  0  0  -0.011773  0.042758  0  3.968601  0
C  C37  1  0.39712266  0.73998148  0.67898536  1  0  0.014671  0  3.743321  0  0  0.038668  0  3.985976  0  0  0.032066  0  4.011687  0  0  -0.011784  0.042833  0  3.968559  0
C  C38  1  0.62529247  0.12655671  0.39256083  1  0  -0.061072  0  3.700864  0  0  -0.089575  0  3.949679  0  0  -0.086634  0  3.969177  0  0  -0.066718  -0.090994  0  3.936189  0
C  C39  1  0.37471293  0.87344432  0.60743756  1  0  -0.061095  0  3.700951  0  0  -0.089634  0  3.949749  0  0  -0.086695  0  3.969249  0  0  -0.066721  -0.091052  0  3.936258  0
C  C40  1  0.54535554  0.05700754  0.34304854  1  0  -0.116167  0  3.749736  0  0  -0.128921  0  4.007308  0  0  -0.137371  0  4.030722  0  0  -0.083388  -0.123569  0  3.991537  0
C  C41  1  0.45464682  0.94299450  0.65694950  1  0  -0.116147  0  3.74971  0  0  -0.12888  0  4.007278  0  0  -0.137333  0  4.030694  0  0  -0.083374  -0.123526  0  3.991506  0
C  C42  1  0.44650248  0.12183886  0.22409073  1  0  0.139737  0  3.663566  0  0  0.103674  0  3.918091  0  0  0.111201  0  3.935897  0  0  0.053747  0.098923  0  3.905935  0
C  C43  1  0.55349859  0.87816318  0.77590818  1  0  0.139821  0  3.663341  0  0  0.103804  0  3.91783  0  0  0.111334  0  3.935635  0  0  0.053778  0.099052  0  3.905677  0
C  C44  1  0.69237426  0.33922861  0.36542689  1  0  -0.056656  0  3.552967  0  0  -0.118448  0  3.797047  0  0  -0.114472  0  3.807188  0  0  -0.056047  -0.120922  0  3.790338  0
C  C45  1  0.30762811  0.66077343  0.63457202  1  0  -0.056712  0  3.553009  0  0  -0.118501  0  3.79708  0  0  -0.114523  0  3.807218  0  0  -0.056063  -0.120978  0  3.790377  0
C  C46  1  0.46639334  0.37633308  0.51792299  1  0  -0.02617  0  3.527215  0  0  -0.085718  0  3.782645  0  0  -0.082602  0  3.792372  0  0  -0.056402  -0.087686  0  3.775997  0
C  C47  1  0.53360642  0.62366897  0.48207680  1  0  -0.026184  0  3.527322  0  0  -0.085641  0  3.782645  0  0  -0.082529  0  3.792388  0  0  -0.056423  -0.087609  0  3.775995  0
C  C48  1  0.66072926  0.51892511  0.44125388  1  0  -0.035253  0  3.512025  0  0  -0.093225  0  3.766862  0  0  -0.090345  0  3.775686  0  0  -0.055565  -0.09509  0  3.760998  0
C  C49  1  0.33927181  0.48107694  0.55874504  1  0  -0.035106  0  3.511988  0  0  -0.093089  0  3.766841  0  0  -0.0902  0  3.77566  0  0  -0.055501  -0.094956  0  3.760979  0
C  C50  1  0.75177305  0.21715395  0.97587403  1  0  -0.047907  0  3.716188  0  0  -0.040076  0  3.963891  0  0  -0.042252  0  3.981402  0  0  -0.004588  -0.038728  0  3.952187  0
C  C51  1  0.24822844  0.78284412  0.02412717  1  0  -0.047925  0  3.71607  0  0  -0.040104  0  3.963747  0  0  -0.042287  0  3.981265  0  0  -0.004601  -0.038753  0  3.95204  0
C  C52  1  0.73137532  0.09347368  0.99602192  1  0  -0.07776  0  3.681634  0  0  -0.114144  0  3.94322  0  0  -0.1155  0  3.962016  0  0  -0.078067  -0.113206  0  3.930707  0
C  C53  1  0.26862574  0.90652538  0.00397980  1  0  -0.077726  0  3.681555  0  0  -0.114169  0  3.943109  0  0  -0.115524  0  3.961906  0  0  -0.078107  -0.113226  0  3.930595  0
C  C54  1  0.81701481  0.98071136  0.10372886  1  0  -0.062627  0  3.705306  0  0  -0.051833  0  3.947089  0  0  -0.055337  0  3.967556  0  0  -0.008417  -0.049578  0  3.933428  0
C  C55  1  0.18298494  0.01928473  0.89627131  1  0  -0.062869  0  3.705433  0  0  -0.051876  0  3.947063  0  0  -0.055392  0  3.967517  0  0  -0.008409  -0.04962  0  3.9334  0
C  C56  1  0.93976612  0.99045521  0.18891302  1  0  -0.100485  0  3.741272  0  0  -0.084816  0  3.978416  0  0  -0.091303  0  4.000801  0  0  -0.01556  -0.08075  0  3.963645  0
C  C57  1  0.06023624  0.00954088  0.81108627  1  0  -0.100268  0  3.740947  0  0  -0.08473  0  3.978227  0  0  -0.09117  0  4.000556  0  0  -0.015505  -0.080664  0  3.963457  0
C  C58  1  0.96571372  0.11314047  0.16409286  1  0  -0.053107  0  3.708184  0  0  -0.090921  0  3.965058  0  0  -0.089327  0  3.982363  0  0  -0.074152  -0.091826  0  3.953429  0
C  C59  1  0.03428299  0.88685663  0.83590783  1  0  -0.053176  0  3.708158  0  0  -0.090941  0  3.965076  0  0  -0.089362  0  3.982369  0  0  -0.074152  -0.091846  0  3.953449  0
C  C60  1  0.86846853  0.22758378  0.06271531  1  0  -0.066752  0  3.727299  0  0  -0.054823  0  3.969468  0  0  -0.059936  0  3.988775  0  0  -0.011949  -0.051591  0  3.956568  0
C  C61  1  0.13153123  0.77241528  0.93728816  1  0  -0.066718  0  3.727145  0  0  -0.054819  0  3.969353  0  0  -0.059927  0  3.988661  0  0  -0.011971  -0.051588  0  3.956456  0
C  C62  1  0.88544170  0.35660480  0.06010346  1  0  0.651855  0  3.893003  0  0  0.597369  0  4.189142  0  0  0.631363  0  4.18158  0  0  0.211318  0.574256  0  4.19361  0
C  C63  1  0.11455718  0.64339327  0.93989862  1  0  0.651878  0  3.892978  0  0  0.597409  0  4.189096  0  0  0.6314  0  4.181535  0  0  0.211355  0.574296  0  4.193565  0
C  C64  1  0.76268975  0.85874425  0.12334284  1  0  0.660687  0  3.862064  0  0  0.607493  0  4.162331  0  0  0.641565  0  4.154032  0  0  0.221604  0.58439  0  4.167252  0
C  C65  1  0.23730914  0.14125382  0.87666098  1  0  0.660706  0  3.862004  0  0  0.607455  0  4.162293  0  0  0.641525  0  4.153995  0  0  0.221561  0.584354  0  4.167212  0
C  C66  1  0.64736887  0.33529466  0.86214577  1  0  0.674397  0  3.87155  0  0  0.617173  0  4.180259  0  0  0.651629  0  4.170127  0  0  0.219471  0.59372  0  4.186456  0
C  C67  1  0.35263089  0.66470441  0.13785508  1  0  0.674222  0  3.871863  0  0  0.61713  0  4.180366  0  0  0.651594  0  4.17023  0  0  0.2195  0.593676  0  4.186561  0
C  C68  1  0.05259150  0.88208325  0.30676512  1  0  0.650013  0  3.832819  0  0  0.600031  0  4.138387  0  0  0.632809  0  4.129307  0  0  0.224001  0.577764  0  4.144114  0
C  C69  1  0.94738653  0.11791491  0.69323264  1  0  0.650181  0  3.832942  0  0  0.600119  0  4.13871  0  0  0.63288  0  4.129628  0  0  0.224032  0.577853  0  4.144437  0
N  N70  1  0.42714125  0.24988348  0.15415059  1  0  -0.317236  0  3.28455  0  0  -0.232574  0  3.548779  0  0  -0.252739  0  3.566079  0  0  -0.317153  -0.21888  0  3.536771  0
N  N71  1  0.57285851  0.75011856  0.84585007  1  0  -0.317406  0  3.284532  0  0  -0.232716  0  3.548758  0  0  -0.252885  0  3.566056  0  0  -0.317205  -0.219024  0  3.536757  0
N  N72  1  0.55910626  0.43905487  0.40849792  1  0  -0.092732  0  3.346982  0  0  -0.011482  0  3.562433  0  0  -0.024808  0  3.580162  0  0  -0.344202  -0.0024  0  3.550267  0
N  N73  1  0.44089437  0.56094816  0.59150152  1  0  -0.092698  0  3.347029  0  0  -0.011486  0  3.562499  0  0  -0.024814  0  3.580224  0  0  -0.344212  -0.002404  0  3.550336  0
O  O74  1  0.47252857  0.37330694  0.85168225  1  0  -0.637162  0  2.07575  0  0  -0.56749  0  2.347916  0  0  -0.595205  0  2.333608  0  0  -0.308449  -0.54802  0  2.357119  0
O  O75  1  0.52747119  0.62669213  0.14831685  1  0  -0.637082  0  2.075822  0  0  -0.567461  0  2.347938  0  0  -0.595194  0  2.333641  0  0  -0.308427  -0.547991  0  2.357141  0
O  O76  1  0.73592256  0.39085236  0.77709623  1  0  -0.621901  0  1.920741  0  0  -0.570447  0  2.140747  0  0  -0.595473  0  2.13202  0  0  -0.316509  -0.552797  0  2.146172  0
O  O77  1  0.26407850  0.60914671  0.22290287  1  0  -0.621821  0  1.920882  0  0  -0.570436  0  2.140843  0  0  -0.595462  0  2.132109  0  0  -0.316561  -0.552786  0  2.146268  0
O  O78  1  0.74477506  0.45982781  0.02038653  1  0  -0.618434  0  2.038775  0  0  -0.55222  0  2.293622  0  0  -0.579515  0  2.283839  0  0  -0.296968  -0.533044  0  2.299711  0
O  O79  1  0.25522296  0.54017226  0.97961223  1  0  -0.61843  0  2.038796  0  0  -0.552215  0  2.293639  0  0  -0.579509  0  2.283859  0  0  -0.296958  -0.533035  0  2.299725  0
O  O80  1  0.04041655  0.35105528  0.10584087  1  0  -0.654887  0  2.081278  0  0  -0.588972  0  2.316088  0  0  -0.615059  0  2.305276  0  0  -0.31502  -0.570672  0  2.323038  0
O  O81  1  0.95958190  0.64894379  0.89415998  1  0  -0.654905  0  2.081297  0  0  -0.588993  0  2.316099  0  0  -0.615078  0  2.305285  0  0  -0.315045  -0.570694  0  2.323051  0
O  O82  1  0.98773454  0.78600562  0.37333741  1  0  -0.56684  0  2.065717  0  0  -0.518854  0  2.276372  0  0  -0.540243  0  2.257931  0  0  -0.339415  -0.503968  0  2.288721  0
O  O83  1  0.01225697  0.21399447  0.62666311  1  0  -0.567077  0  2.065602  0  0  -0.519061  0  2.276306  0  0  -0.540458  0  2.25788  0  0  -0.33953  -0.504174  0  2.288659  0
O  O84  1  0.20058640  0.88766787  0.34292914  1  0  -0.568018  0  1.928653  0  0  -0.527978  0  2.148534  0  0  -0.548327  0  2.140263  0  0  -0.299936  -0.51384  0  2.153885  0
O  O85  1  0.79942030  0.11232422  0.65707329  1  0  -0.567956  0  1.929189  0  0  -0.527889  0  2.149149  0  0  -0.548233  0  2.140878  0  0  -0.299847  -0.513755  0  2.154502  0
O  O86  1  0.74714285  0.78640118  0.23511160  1  0  -0.587854  0  1.989897  0  0  -0.533468  0  2.204961  0  0  -0.557438  0  2.194118  0  0  -0.314036  -0.516764  0  2.211926  0
O  O87  1  0.25285126  0.21359890  0.76488629  1  0  -0.587852  0  1.989678  0  0  -0.533491  0  2.204795  0  0  -0.557464  0  2.193954  0  0  -0.314011  -0.516786  0  2.211758  0
O  O88  1  0.72769994  0.83830294  0.02560622  1  0  -0.628903  0  2.093129  0  0  -0.566063  0  2.364773  0  0  -0.594456  0  2.35428  0  0  -0.303035  -0.546201  0  2.371342  0
O  O89  1  0.27229764  0.16169515  0.97439324  1  0  -0.628861  0  2.093184  0  0  -0.566017  0  2.364845  0  0  -0.594403  0  2.354346  0  0  -0.303029  -0.546157  0  2.371414  0
O  O90  1  0.05937556  0.45104238  0.82170386  1  0  -0.834571  0  1.914683  0  0  -0.772217  0  2.118909  0  0  -0.794089  0  2.08413  0  0  -0.579665  -0.75674  0  2.143057  0
O  O91  1  0.94062290  0.54895669  0.17829524  1  0  -0.834516  0  1.914642  0  0  -0.77217  0  2.118929  0  0  -0.794041  0  2.084153  0  0  -0.579651  -0.756693  0  2.143077  0
