# generated using pymatgen
data_ZnH15C19NO4
_symmetry_space_group_name_H-M   'P 1'
_cell_length_a   7.58985339
_cell_length_b   10.80837091
_cell_length_c   11.13341553
_cell_angle_alpha   63.88258697
_cell_angle_beta   87.96054832
_cell_angle_gamma   88.85537518
_symmetry_Int_Tables_number   1
_chemical_formula_structural   ZnH15C19NO4
_chemical_formula_sum   'Zn2 H30 C38 N2 O8'
_cell_volume   819.53373646
_cell_formula_units_Z   2
loop_
 _symmetry_equiv_pos_site_id
 _symmetry_equiv_pos_as_xyz
  1  'x, y, z'
loop_
 _atom_site_type_symbol
 _atom_site_label
 _atom_site_symmetry_multiplicity
 _atom_site_fract_x
 _atom_site_fract_y
 _atom_site_fract_z
 _atom_site_occupancy
 _atom_site_hle17_bader_spin_density
 _atom_site_hle17_ddec_charge
 _atom_site_hle17_ddec_spin_density
 _atom_site_hle17_ddec_sum_bond_order
 _atom_site_hle17_magmom
 _atom_site_hse06_10hf_bader_spin_density
 _atom_site_hse06_10hf_ddec_charge
 _atom_site_hse06_10hf_ddec_spin_density
 _atom_site_hse06_10hf_ddec_sum_bond_order
 _atom_site_hse06_10hf_magmom
 _atom_site_hse06_bader_spin_density
 _atom_site_hse06_ddec_charge
 _atom_site_hse06_ddec_spin_density
 _atom_site_hse06_ddec_sum_bond_order
 _atom_site_hse06_magmom
 _atom_site_pbe_bader_spin_density
 _atom_site_pbe_cm5_charge
 _atom_site_pbe_ddec_charge
 _atom_site_pbe_ddec_spin_density
 _atom_site_pbe_ddec_sum_bond_order
 _atom_site_pbe_magmom
Zn  Zn0  1  0.37781429  0.31931095  0.68339169  1  0  1.041719  0  1.84247  0  0  0.867292  0  2.309602  0  0  0.920796  0  2.24378  0  0  0.670919  0.829908  0  2.354751  0
Zn  Zn1  1  0.64295520  0.13259616  0.85860761  1  0  1.042861  0  1.840789  0  0  0.868477  0  2.307561  0  0  0.92194  0  2.241904  0  0  0.671078  0.831126  0  2.352616  0
H  H2  1  0.03802419  0.18568270  0.53384492  1  0  0.109553  0  0.989165  0  0  0.114239  0  1.062273  0  0  0.118422  0  1.058343  0  0  0.104425  0.111236  0  1.065139  0
H  H3  1  0.55406916  0.29384110  0.32001071  1  0  0.096232  0  0.976511  0  0  0.105387  0  1.040152  0  0  0.10846  0  1.038524  0  0  0.101181  0.1032  0  1.04131  0
H  H4  1  0.70824681  0.28688136  0.12052460  1  0  0.105742  0  0.940363  0  0  0.116532  0  0.998253  0  0  0.119454  0  0.997252  0  0  0.105587  0.114397  0  0.999068  0
H  H5  1  0.98266972  0.26504962  0.00840152  1  0  0.109197  0  0.988481  0  0  0.113792  0  1.061997  0  0  0.118086  0  1.057994  0  0  0.104091  0.110714  0  1.064977  0
H  H6  1  0.46664358  0.15751688  0.22217530  1  0  0.09546  0  0.977996  0  0  0.104202  0  1.042514  0  0  0.107387  0  1.040773  0  0  0.100707  0.10192  0  1.043794  0
H  H7  1  0.31241478  0.16457118  0.42159495  1  0  0.105875  0  0.940746  0  0  0.116093  0  0.99926  0  0  0.119128  0  0.998068  0  0  0.105197  0.11391  0  1.000157  0
H  H8  1  0.04182937  0.44641168  0.83600960  1  0  0.112294  0  0.979411  0  0  0.117043  0  1.052401  0  0  0.1209  0  1.049188  0  0  0.104108  0.114419  0  1.054448  0
H  H9  1  0.56497153  0.68091698  0.69721953  1  0  0.091757  0  0.977728  0  0  0.100905  0  1.043051  0  0  0.103786  0  1.041801  0  0  0.099256  0.09882  0  1.043963  0
H  H10  1  0.71241830  0.89217224  0.68093994  1  0  0.104667  0  0.940491  0  0  0.115832  0  0.998026  0  0  0.118786  0  0.997109  0  0  0.10412  0.113673  0  0.998914  0
H  H11  1  0.97828060  0.00540628  0.70544866  1  0  0.113204  0  0.978831  0  0  0.117464  0  1.052128  0  0  0.121303  0  1.048987  0  0  0.104083  0.114854  0  1.054129  0
H  H12  1  0.45620901  0.77166251  0.84227520  1  0  0.090158  0  0.981117  0  0  0.097482  0  1.049995  0  0  0.100442  0  1.048504  0  0  0.098438  0.095329  0  1.051069  0
H  H13  1  0.30838295  0.56005520  0.85981129  1  0  0.106117  0  0.939758  0  0  0.117156  0  0.997012  0  0  0.120045  0  0.9963  0  0  0.104233  0.115062  0  0.99777  0
H  H14  1  0.62546980  0.82941540  0.00470929  1  0  0.084985  0  0.951238  0  0  0.09444  0  1.015829  0  0  0.097401  0  1.012808  0  0  0.115473  0.092256  0  1.01806  0
H  H15  1  0.23528328  0.92925990  0.06035620  1  0  0.117511  0  0.937838  0  0  0.13014  0  0.991863  0  0  0.132899  0  0.991954  0  0  0.110021  0.128151  0  0.992048  0
H  H16  1  0.01770881  0.11412806  0.93882102  1  0  0.092525  0  0.961683  0  0  0.100109  0  1.027432  0  0  0.102351  0  1.025642  0  0  0.11967  0.098304  0  1.029158  0
H  H17  1  0.66897573  0.59192202  0.10996594  1  0  0.107395  0  0.939988  0  0  0.13075  0  0.995303  0  0  0.13178  0  0.995351  0  0  0.093161  0.130028  0  0.995191  0
H  H18  1  0.82672612  0.52852293  0.23764472  1  0  0.108967  0  0.964631  0  0  0.129693  0  1.027727  0  0  0.129618  0  1.029985  0  0  0.091469  0.129641  0  1.026272  0
H  H19  1  0.88076028  0.53906085  0.07794493  1  0  0.11262  0  0.957636  0  0  0.134059  0  1.019502  0  0  0.133543  0  1.02255  0  0  0.093669  0.133926  0  1.018244  0
H  H20  1  0.13454814  0.54840241  0.19519923  1  0  0.11831  0  0.949428  0  0  0.141306  0  1.005196  0  0  0.142623  0  1.005705  0  0  0.095557  0.140355  0  1.004847  0
H  H21  1  0.24238143  0.65708211  0.25099519  1  0  0.11066  0  0.960463  0  0  0.130454  0  1.023133  0  0  0.131174  0  1.024211  0  0  0.092029  0.129783  0  1.022543  0
H  H22  1  0.29688227  0.66652674  0.09110900  1  0  0.112943  0  0.951816  0  0  0.134246  0  1.013458  0  0  0.135076  0  1.013672  0  0  0.094059  0.133694  0  1.013249  0
H  H23  1  0.39254684  0.62444038  0.53584352  1  0  0.08674  0  0.945117  0  0  0.096866  0  1.00891  0  0  0.099818  0  1.005897  0  0  0.116676  0.094676  0  1.011215  0
H  H24  1  0.78457833  0.51813313  0.48298526  1  0  0.11306  0  0.948385  0  0  0.124072  0  1.006147  0  0  0.12689  0  1.005981  0  0  0.107984  0.122044  0  1.006505  0
H  H25  1  0.00498191  0.33549267  0.60432870  1  0  0.092273  0  0.961203  0  0  0.099787  0  1.026821  0  0  0.10204  0  1.025036  0  0  0.119822  0.097987  0  1.028495  0
H  H26  1  0.11821404  0.93667776  0.33814419  1  0  0.110134  0  0.973876  0  0  0.131015  0  1.035916  0  0  0.131222  0  1.038399  0  0  0.091884  0.13069  0  1.034502  0
H  H27  1  0.33767555  0.87333813  0.36246612  1  0  0.10941  0  0.937152  0  0  0.133673  0  0.992112  0  0  0.134576  0  0.992135  0  0  0.094109  0.133141  0  0.992065  0
H  H28  1  0.21506174  0.88573489  0.49497818  1  0  0.11424  0  0.949438  0  0  0.136062  0  1.011286  0  0  0.135299  0  1.014559  0  0  0.094216  0.136421  0  1.009348  0
H  H29  1  0.70266159  0.75271570  0.37396186  1  0  0.110113  0  0.938832  0  0  0.133102  0  0.994402  0  0  0.134731  0  0.993542  0  0  0.093399  0.131898  0  0.995087  0
H  H30  1  0.87034679  0.87058687  0.27641009  1  0  0.112658  0  0.965293  0  0  0.131395  0  1.030131  0  0  0.132022  0  1.031883  0  0  0.093151  0.130918  0  1.029049  0
H  H31  1  0.80966103  0.85614973  0.43677330  1  0  0.119963  0  0.940638  0  0  0.143046  0  0.997075  0  0  0.143771  0  0.998133  0  0  0.097372  0.142565  0  0.996266  0
C  C32  1  0.96483350  0.20913876  0.44387459  1  0  -0.117675  0  3.697037  0  0  -0.150731  0  3.949354  0  0  -0.150309  0  3.967421  0  0  -0.081177  -0.150756  0  3.937165  0
C  C33  1  0.78586240  0.23779404  0.43987022  1  0  -0.06608  0  3.771313  0  0  -0.044418  0  4.009285  0  0  -0.052064  0  4.031869  0  0  -0.022842  -0.039618  0  3.994149  0
C  C34  1  0.69354494  0.26812501  0.32141585  1  0  -0.08407  0  3.765442  0  0  -0.107674  0  4.013789  0  0  -0.10793  0  4.033787  0  0  -0.090454  -0.107415  0  4.000143  0
C  C35  1  0.77889730  0.26585947  0.21124121  1  0  -0.108126  0  3.729771  0  0  -0.125016  0  3.977203  0  0  -0.127392  0  3.996634  0  0  -0.086334  -0.12317  0  3.96382  0
C  C36  1  0.05566882  0.24161124  0.09849231  1  0  -0.119071  0  3.699019  0  0  -0.152418  0  3.951785  0  0  -0.152123  0  3.969663  0  0  -0.081877  -0.152528  0  3.940259  0
C  C37  1  0.23467554  0.21297694  0.10251055  1  0  -0.065069  0  3.766369  0  0  -0.042625  0  4.003467  0  0  -0.050354  0  4.026426  0  0  -0.021756  -0.037757  0  3.988213  0
C  C38  1  0.32705567  0.18288583  0.22087421  1  0  -0.083968  0  3.764485  0  0  -0.107609  0  4.012886  0  0  -0.108027  0  4.033075  0  0  -0.090384  -0.107277  0  3.999158  0
C  C39  1  0.24162730  0.18524125  0.33100206  1  0  -0.109288  0  3.730406  0  0  -0.125651  0  3.977975  0  0  -0.127981  0  3.997307  0  0  -0.085738  -0.123794  0  3.964547  0
C  C40  1  0.05755510  0.21174665  0.33036633  1  0  0.058048  0  3.789473  0  0  0.074372  0  4.017058  0  0  0.074209  0  4.040418  0  0  -0.006111  0.074579  0  4.000891  0
C  C41  1  0.96296115  0.23925598  0.21192404  1  0  0.055681  0  3.79081  0  0  0.072053  0  4.018682  0  0  0.072035  0  4.041859  0  0  -0.007732  0.072219  0  4.002848  0
C  C42  1  0.68817971  0.23827336  0.55920926  1  0  0.65263  0  3.890804  0  0  0.602077  0  4.18061  0  0  0.63729  0  4.17345  0  0  0.211333  0.578157  0  4.184858  0
C  C43  1  0.33247065  0.21249598  0.98316380  1  0  0.655154  0  3.886421  0  0  0.603802  0  4.177082  0  0  0.63911  0  4.1698  0  0  0.21252  0.579848  0  4.181315  0
C  C44  1  0.96826075  0.54268995  0.80499865  1  0  -0.10704  0  3.68002  0  0  -0.141274  0  3.933461  0  0  -0.140677  0  3.952198  0  0  -0.080089  -0.141532  0  3.920926  0
C  C45  1  0.79331901  0.54985369  0.77107888  1  0  -0.067641  0  3.76622  0  0  -0.044124  0  4.000821  0  0  -0.052259  0  4.024091  0  0  -0.021748  -0.038939  0  3.985444  0
C  C46  1  0.70183549  0.67771634  0.72445766  1  0  -0.082388  0  3.763999  0  0  -0.104884  0  4.011686  0  0  -0.105335  0  4.032369  0  0  -0.092024  -0.104274  0  3.997647  0
C  C47  1  0.78379816  0.79450496  0.71443954  1  0  -0.114211  0  3.73425  0  0  -0.131629  0  3.982648  0  0  -0.134345  0  4.002716  0  0  -0.08898  -0.129941  0  3.969362  0
C  C48  1  0.05212151  0.90928177  0.73626679  1  0  -0.108132  0  3.681637  0  0  -0.142292  0  3.935241  0  0  -0.141635  0  3.953923  0  0  -0.080008  -0.142484  0  3.922637  0
C  C49  1  0.22720281  0.90235362  0.76983035  1  0  -0.070708  0  3.772492  0  0  -0.04716  0  4.007727  0  0  -0.055268  0  4.030769  0  0  -0.02273  -0.042097  0  3.992517  0
C  C50  1  0.31900979  0.77463663  0.81580307  1  0  -0.089508  0  3.777405  0  0  -0.111956  0  4.027052  0  0  -0.112256  0  4.047253  0  0  -0.093581  -0.111285  0  4.013229  0
C  C51  1  0.23694653  0.65766997  0.82629679  1  0  -0.112944  0  3.729189  0  0  -0.130036  0  3.977498  0  0  -0.132813  0  3.997665  0  0  -0.088384  -0.128405  0  3.964315  0
C  C52  1  0.05702768  0.66161599  0.79356661  1  0  0.056878  0  3.778874  0  0  0.07299  0  4.007746  0  0  0.072696  0  4.031636  0  0  -0.006327  0.073286  0  3.991786  0
C  C53  1  0.96358816  0.79036382  0.74756857  1  0  0.056899  0  3.780312  0  0  0.073866  0  4.008295  0  0  0.073514  0  4.032241  0  0  -0.006303  0.07418  0  3.992183  0
C  C54  1  0.70039404  0.42546649  0.77773490  1  0  0.656086  0  3.886802  0  0  0.604076  0  4.177543  0  0  0.639682  0  4.170297  0  0  0.212585  0.579898  0  4.181836  0
C  C55  1  0.31981452  0.02672687  0.76359298  1  0  0.657054  0  3.884471  0  0  0.605128  0  4.174973  0  0  0.640723  0  4.167748  0  0  0.212935  0.580948  0  4.179311  0
C  C56  1  0.76232594  0.84618358  0.02039447  1  0  0.069391  0  3.681936  0  0  0.029484  0  3.929397  0  0  0.036143  0  3.947341  0  0  0.044058  0.025284  0  3.917295  0
C  C57  1  0.87623276  0.73507684  0.08434118  1  0  0.039498  0  3.726308  0  0  0.067259  0  3.958555  0  0  0.062101  0  3.984236  0  0  -0.003422  0.070374  0  3.941471  0
C  C58  1  0.05212961  0.76337266  0.10051555  1  0  0.149975  0  3.679578  0  0  0.164878  0  3.914951  0  0  0.169975  0  3.936931  0  0  0.017488  0.161801  0  3.899901  0
C  C59  1  0.10044376  0.90188064  0.05161099  1  0  -0.17509  0  3.708086  0  0  -0.193694  0  3.962835  0  0  -0.202352  0  3.985368  0  0  -0.086093  -0.188394  0  3.948188  0
C  C60  1  0.97995219  0.00617916  0.98532952  1  0  0.127237  0  3.696233  0  0  0.089553  0  3.956286  0  0  0.096546  0  3.975655  0  0  0.043524  0.084998  0  3.943668  0
C  C61  1  0.80948704  0.59164854  0.13001377  1  0  -0.330381  0  3.758795  0  0  -0.411974  0  3.99051  0  0  -0.413918  0  4.004185  0  0  -0.239483  -0.410194  0  3.981567  0
C  C62  1  0.18739501  0.65197721  0.16335273  1  0  -0.335744  0  3.706579  0  0  -0.413615  0  3.935217  0  0  -0.416064  0  3.943912  0  0  -0.23717  -0.411616  0  3.929038  0
C  C63  1  0.25597571  0.60619628  0.52072037  1  0  0.066639  0  3.679896  0  0  0.027606  0  3.929334  0  0  0.034383  0  3.946271  0  0  0.044517  0.023192  0  3.917988  0
C  C64  1  0.14036021  0.71605483  0.45654957  1  0  0.038894  0  3.72314  0  0  0.064471  0  3.958786  0  0  0.059693  0  3.983558  0  0  -0.002926  0.067561  0  3.942183  0
C  C65  1  0.96481637  0.68581517  0.44137619  1  0  0.146647  0  3.685547  0  0  0.162365  0  3.920847  0  0  0.167166  0  3.943403  0  0  0.015627  0.159469  0  3.905372  0
C  C66  1  0.91896587  0.54680536  0.49112225  1  0  -0.174429  0  3.713832  0  0  -0.193086  0  3.966941  0  0  -0.201865  0  3.990195  0  0  -0.085406  -0.187706  0  3.951755  0
C  C67  1  0.04106238  0.44379495  0.55754363  1  0  0.131496  0  3.690726  0  0  0.094678  0  3.948814  0  0  0.101518  0  3.968637  0  0  0.045313  0.090263  0  3.935689  0
C  C68  1  0.20561629  0.86024282  0.40997376  1  0  -0.330384  0  3.745701  0  0  -0.412362  0  3.9773  0  0  -0.414417  0  3.990825  0  0  -0.239366  -0.410736  0  3.968327  0
C  C69  1  0.82951468  0.79706292  0.37837156  1  0  -0.339055  0  3.721989  0  0  -0.417828  0  3.953776  0  0  -0.420456  0  3.962872  0  0  -0.236325  -0.415851  0  3.947383  0
N  N70  1  0.81200587  0.97873329  0.97041325  1  0  -0.31724  0  3.310996  0  0  -0.232627  0  3.586953  0  0  -0.253042  0  3.602582  0  0  -0.334592  -0.218755  0  3.576012  0
N  N71  1  0.20827497  0.47305900  0.57185311  1  0  -0.314229  0  3.306481  0  0  -0.230486  0  3.583193  0  0  -0.250785  0  3.598796  0  0  -0.333614  -0.216628  0  3.572209  0
O  O72  1  0.54395966  0.30619278  0.53791088  1  0  -0.629605  0  2.047179  0  0  -0.565724  0  2.305861  0  0  -0.593543  0  2.291294  0  0  -0.317504  -0.546284  0  2.315074  0
O  O73  1  0.75727151  0.17133571  0.67283301  1  0  -0.627096  0  2.083695  0  0  -0.558502  0  2.345892  0  0  -0.587423  0  2.333289  0  0  -0.307655  -0.538464  0  2.354205  0
O  O74  1  0.47729492  0.14534046  0.00451869  1  0  -0.630675  0  2.047019  0  0  -0.566884  0  2.30639  0  0  -0.594727  0  2.291807  0  0  -0.318137  -0.547395  0  2.315581  0
O  O75  1  0.26310415  0.27868100  0.86951800  1  0  -0.628349  0  2.081543  0  0  -0.55945  0  2.344389  0  0  -0.588361  0  2.331652  0  0  -0.308297  -0.539385  0  2.352726  0
O  O76  1  0.76968014  0.30744938  0.84521502  1  0  -0.619582  0  2.056394  0  0  -0.548572  0  2.314468  0  0  -0.57764  0  2.302031  0  0  -0.307882  -0.528438  0  2.322759  0
O  O77  1  0.55770161  0.44750835  0.71396894  1  0  -0.650157  0  2.078883  0  0  -0.585914  0  2.348657  0  0  -0.614761  0  2.335065  0  0  -0.315199  -0.565704  0  2.357155  0
O  O78  1  0.46170070  0.00455446  0.82831056  1  0  -0.650255  0  2.077031  0  0  -0.586039  0  2.34614  0  0  -0.614833  0  2.332485  0  0  -0.315582  -0.565872  0  2.354701  0
O  O79  1  0.25103869  0.14480569  0.69552001  1  0  -0.61936  0  2.056686  0  0  -0.548517  0  2.314463  0  0  -0.577595  0  2.302106  0  0  -0.307814  -0.528414  0  2.322716  0
