# generated using pymatgen
data_CdH34C32(NO2)4
_symmetry_space_group_name_H-M   'P 1'
_cell_length_a   4.81034894
_cell_length_b   13.30151253
_cell_length_c   14.83228512
_cell_angle_alpha   111.13147397
_cell_angle_beta   96.85291418
_cell_angle_gamma   92.18368100
_symmetry_Int_Tables_number   1
_chemical_formula_structural   CdH34C32(NO2)4
_chemical_formula_sum   'Cd1 H34 C32 N4 O8'
_cell_volume   875.52227183
_cell_formula_units_Z   1
loop_
 _symmetry_equiv_pos_site_id
 _symmetry_equiv_pos_as_xyz
  1  'x, y, z'
loop_
 _atom_site_type_symbol
 _atom_site_label
 _atom_site_symmetry_multiplicity
 _atom_site_fract_x
 _atom_site_fract_y
 _atom_site_fract_z
 _atom_site_occupancy
 _atom_site_hle17_bader_spin_density
 _atom_site_hle17_ddec_charge
 _atom_site_hle17_ddec_spin_density
 _atom_site_hle17_ddec_sum_bond_order
 _atom_site_hle17_magmom
 _atom_site_hse06_10hf_bader_spin_density
 _atom_site_hse06_10hf_ddec_charge
 _atom_site_hse06_10hf_ddec_spin_density
 _atom_site_hse06_10hf_ddec_sum_bond_order
 _atom_site_hse06_10hf_magmom
 _atom_site_hse06_bader_spin_density
 _atom_site_hse06_ddec_charge
 _atom_site_hse06_ddec_spin_density
 _atom_site_hse06_ddec_sum_bond_order
 _atom_site_hse06_magmom
 _atom_site_pbe_bader_spin_density
 _atom_site_pbe_cm5_charge
 _atom_site_pbe_ddec_charge
 _atom_site_pbe_ddec_spin_density
 _atom_site_pbe_ddec_sum_bond_order
 _atom_site_pbe_magmom
Cd  Cd0  1  0.49998626  0.00000084  0.00000061  1  0  1.269491  0  1.595455  0  0  1.099079  0  2.043746  0  0  1.153831  0  1.983978  0  0  0.783526  1.059766  0  2.085067  0
H  H1  1  0.14688472  0.13876789  0.08272358  1  0  0.418314  0  0.89137  0  0  0.3838  0  0.961062  0  0  0.39583  0  0.943655  0  0  0.284643  0.375321  0  0.973292  0
H  H2  1  0.85307786  0.86123058  0.91726632  1  0  0.418351  0  0.891355  0  0  0.383782  0  0.961098  0  0  0.395806  0  0.943699  0  0  0.284604  0.375304  0  0.973326  0
H  H3  1  0.41345537  0.22548265  0.10888467  1  0  0.426163  0  0.819018  0  0  0.41357  0  0.865479  0  0  0.421428  0  0.857002  0  0  0.325128  0.407962  0  0.871569  0
H  H4  1  0.58652082  0.77451099  0.89110758  1  0  0.426397  0  0.81895  0  0  0.413697  0  0.865564  0  0  0.421557  0  0.857085  0  0  0.325185  0.408091  0  0.871651  0
H  H5  1  0.68232562  0.28934506  0.76470371  1  0  0.318831  0  0.915228  0  0  0.299323  0  0.983407  0  0  0.307789  0  0.97579  0  0  0.309047  0.293424  0  0.988707  0
H  H6  1  0.31768059  0.71065995  0.23529859  1  0  0.31893  0  0.915117  0  0  0.299369  0  0.983364  0  0  0.307848  0  0.975729  0  0  0.309034  0.293468  0  0.988666  0
H  H7  1  0.72428087  0.13902686  0.78696777  1  0  0.307518  0  0.895826  0  0  0.287783  0  0.964321  0  0  0.296024  0  0.957153  0  0  0.313151  0.281966  0  0.969423  0
H  H8  1  0.27571134  0.86097245  0.21302819  1  0  0.307518  0  0.895823  0  0  0.28785  0  0.96425  0  0  0.296092  0  0.957081  0  0  0.313122  0.282028  0  0.969359  0
H  H9  1  0.24106607  0.30042088  0.62548286  1  0  0.103292  0  0.983783  0  0  0.111185  0  1.048915  0  0  0.113781  0  1.048912  0  0  0.099662  0.109278  0  1.049106  0
H  H10  1  0.75896087  0.69958257  0.37452577  1  0  0.103327  0  0.983736  0  0  0.111223  0  1.048865  0  0  0.113824  0  1.048869  0  0  0.099675  0.109317  0  1.049056  0
H  H11  1  0.32590426  0.44998297  0.56815889  1  0  0.084267  0  0.95648  0  0  0.096998  0  1.014264  0  0  0.099138  0  1.014216  0  0  0.09752  0.095365  0  1.014475  0
H  H12  1  0.67410982  0.55001963  0.43184496  1  0  0.084243  0  0.956509  0  0  0.097009  0  1.014259  0  0  0.099138  0  1.014224  0  0  0.097516  0.095413  0  1.014433  0
H  H13  1  0.08391123  0.61933056  0.63137313  1  0  0.081046  0  0.98803  0  0  0.090322  0  1.055128  0  0  0.092819  0  1.05467  0  0  0.091801  0.088514  0  1.055558  0
H  H14  1  0.91610050  0.38067121  0.36862835  1  0  0.081055  0  0.988192  0  0  0.090398  0  1.055184  0  0  0.092896  0  1.054725  0  0  0.091848  0.08856  0  1.055642  0
H  H15  1  0.68147993  0.48741025  0.81443071  1  0  0.107111  0  0.93334  0  0  0.120312  0  0.985505  0  0  0.123808  0  0.984071  0  0  0.105397  0.117788  0  0.986667  0
H  H16  1  0.31852225  0.51259556  0.18557035  1  0  0.107081  0  0.933252  0  0  0.120269  0  0.985444  0  0  0.123766  0  0.984009  0  0  0.105368  0.117741  0  0.986605  0
H  H17  1  0.29458042  0.10405221  0.84852307  1  0  0.087262  0  0.934706  0  0  0.096443  0  0.998596  0  0  0.098894  0  0.996167  0  0  0.120291  0.094622  0  1.000476  0
H  H18  1  0.70540265  0.89595277  0.15147435  1  0  0.087167  0  0.934835  0  0  0.096423  0  0.998665  0  0  0.098875  0  0.996232  0  0  0.120264  0.094601  0  1.000547  0
H  H19  1  0.29301508  0.01199113  0.67397940  1  0  0.094902  0  0.936557  0  0  0.10857  0  1.00166  0  0  0.11002  0  1.001595  0  0  0.097245  0.107486  0  1.00178  0
H  H20  1  0.70699146  0.98800657  0.32601859  1  0  0.094868  0  0.936663  0  0  0.108525  0  1.001773  0  0  0.109974  0  1.001709  0  0  0.097222  0.10744  0  1.001895  0
H  H21  1  0.32301932  0.92246495  0.73766224  1  0  0.08958  0  0.951572  0  0  0.101127  0  1.021695  0  0  0.102257  0  1.022225  0  0  0.091979  0.100304  0  1.021353  0
H  H22  1  0.67697337  0.07753530  0.26234414  1  0  0.089602  0  0.951515  0  0  0.101159  0  1.021616  0  0  0.102288  0  1.022146  0  0  0.09199  0.100335  0  1.021276  0
H  H23  1  0.87334611  0.99834770  0.55725568  1  0  0.083255  0  0.972505  0  0  0.094555  0  1.036776  0  0  0.097111  0  1.035814  0  0  0.095877  0.092679  0  1.037614  0
H  H24  1  0.12665729  0.00164519  0.44274405  1  0  0.083153  0  0.972432  0  0  0.094483  0  1.036689  0  0  0.09701  0  1.035757  0  0  0.095837  0.092607  0  1.037529  0
H  H25  1  0.45654222  0.88370521  0.44807171  1  0  0.085377  0  0.960252  0  0  0.095957  0  1.021988  0  0  0.098728  0  1.02081  0  0  0.097734  0.093946  0  1.022944  0
H  H26  1  0.54347850  0.11628119  0.55192659  1  0  0.085341  0  0.960396  0  0  0.095944  0  1.022077  0  0  0.098713  0  1.020901  0  0  0.097722  0.093934  0  1.023034  0
H  H27  1  0.26992717  0.72150504  0.47582823  1  0  0.085449  0  0.978653  0  0  0.096556  0  1.039365  0  0  0.098385  0  1.040481  0  0  0.095927  0.095242  0  1.038659  0
H  H28  1  0.73008264  0.27847972  0.52416646  1  0  0.085538  0  0.978643  0  0  0.096608  0  1.039382  0  0  0.098434  0  1.0405  0  0  0.095931  0.095293  0  1.03868  0
H  H29  1  0.51239661  0.67216881  0.61027460  1  0  0.076466  0  0.974564  0  0  0.089487  0  1.035726  0  0  0.091733  0  1.034982  0  0  0.095007  0.087857  0  1.036335  0
H  H30  1  0.48760742  0.32782654  0.38972795  1  0  0.076473  0  0.974527  0  0  0.089448  0  1.035758  0  0  0.091718  0  1.03498  0  0  0.095025  0.087819  0  1.036363  0
H  H31  1  0.93137253  0.78691273  0.71795725  1  0  0.083165  0  0.974266  0  0  0.09478  0  1.037492  0  0  0.097698  0  1.036084  0  0  0.092533  0.092699  0  1.038564  0
H  H32  1  0.06862861  0.21308827  0.28204563  1  0  0.083173  0  0.974216  0  0  0.094808  0  1.037428  0  0  0.097726  0  1.036021  0  0  0.09255  0.092723  0  1.038503  0
H  H33  1  0.76451005  0.63734768  0.75582158  1  0  0.065949  0  0.974174  0  0  0.077565  0  1.037443  0  0  0.080326  0  1.035642  0  0  0.089621  0.07552  0  1.038872  0
H  H34  1  0.23550899  0.36265816  0.24418415  1  0  0.066009  0  0.974234  0  0  0.07764  0  1.037467  0  0  0.080391  0  1.035677  0  0  0.089641  0.075597  0  1.038892  0
C  C35  1  0.14094865  0.37496755  0.65539634  1  0  -0.16852  0  3.73856  0  0  -0.188109  0  3.987215  0  0  -0.19217  0  4.00676  0  0  -0.099433  -0.185402  0  3.974115  0
C  C36  1  0.85906954  0.62503428  0.34461146  1  0  -0.168426  0  3.738507  0  0  -0.188019  0  3.987081  0  0  -0.192088  0  4.00663  0  0  -0.099363  -0.185318  0  3.974006  0
C  C37  1  0.18667634  0.45953393  0.62298871  1  0  -0.054985  0  3.808227  0  0  -0.066858  0  4.056197  0  0  -0.067764  0  4.078528  0  0  -0.095747  -0.066056  0  4.040978  0
C  C38  1  0.81333812  0.54047029  0.37701566  1  0  -0.054991  0  3.808401  0  0  -0.066921  0  4.056412  0  0  -0.067822  0  4.078755  0  0  -0.095771  -0.06615  0  4.041175  0
C  C39  1  0.05265518  0.55444089  0.65858328  1  0  -0.117989  0  3.822712  0  0  -0.134986  0  4.075159  0  0  -0.138625  0  4.098185  0  0  -0.113761  -0.132448  0  4.059431  0
C  C40  1  0.94735899  0.44556175  0.34142396  1  0  -0.117952  0  3.822919  0  0  -0.134992  0  4.07536  0  0  -0.138629  0  4.098378  0  0  -0.113798  -0.132431  0  4.059657  0
C  C41  1  0.82492475  0.48025186  0.76116108  1  0  -0.172415  0  3.748309  0  0  -0.191897  0  3.996748  0  0  -0.196525  0  4.017214  0  0  -0.100639  -0.188785  0  3.982906  0
C  C42  1  0.17506601  0.51974991  0.23883830  1  0  -0.172199  0  3.748263  0  0  -0.191689  0  3.996647  0  0  -0.196316  0  4.017108  0  0  -0.100595  -0.188571  0  3.9828  0
C  C43  1  0.95765737  0.38450024  0.72437997  1  0  0.262033  0  3.805128  0  0  0.256716  0  4.053493  0  0  0.26469  0  4.074081  0  0  0.094854  0.251294  0  4.039582  0
C  C44  1  0.04235056  0.61550315  0.27562188  1  0  0.261766  0  3.805235  0  0  0.256539  0  4.053449  0  0  0.264518  0  4.07404  0  0  0.09475  0.251117  0  4.03954  0
C  C45  1  0.06313479  0.22309285  0.76395878  1  0  0.732609  0  3.885301  0  0  0.665992  0  4.18665  0  0  0.700573  0  4.181451  0  0  0.331007  0.642682  0  4.189279  0
C  C46  1  0.93686450  0.77690970  0.23603980  1  0  0.732433  0  3.885504  0  0  0.665884  0  4.186752  0  0  0.700474  0  4.181556  0  0  0.33096  0.642572  0  4.189386  0
C  C47  1  0.09631563  0.06126047  0.80355509  1  0  0.044833  0  3.648175  0  0  0.022432  0  3.892083  0  0  0.021636  0  3.904252  0  0  0.012021  0.022969  0  3.883732  0
C  C48  1  0.90367312  0.93874206  0.19644041  1  0  0.044864  0  3.648246  0  0  0.022345  0  3.892402  0  0  0.02156  0  3.904536  0  0  0.012011  0.022889  0  3.884056  0
C  C49  1  0.17723028  0.97129733  0.71242587  1  0  -0.196029  0  3.687449  0  0  -0.24678  0  3.934417  0  0  -0.248289  0  3.94696  0  0  -0.163004  -0.245531  0  3.925663  0
C  C50  1  0.82277150  0.02869795  0.28757119  1  0  -0.196037  0  3.687611  0  0  -0.246743  0  3.934526  0  0  -0.248254  0  3.947068  0  0  -0.162989  -0.245496  0  3.925772  0
C  C51  1  0.92827881  0.90108075  0.64569147  1  0  0.101495  0  3.761263  0  0  0.126586  0  3.991863  0  0  0.126752  0  4.017449  0  0  -0.015138  0.126447  0  3.974367  0
C  C52  1  0.07173186  0.09891692  0.35430463  1  0  0.101321  0  3.761249  0  0  0.126423  0  3.991837  0  0  0.126586  0  4.017423  0  0  -0.015226  0.126284  0  3.974339  0
C  C53  1  0.79187508  0.92719959  0.56919008  1  0  -0.129242  0  3.744942  0  0  -0.151971  0  3.993741  0  0  -0.154983  0  4.015111  0  0  -0.096366  -0.149859  0  3.979207  0
C  C54  1  0.20813871  0.07279326  0.43080731  1  0  -0.128924  0  3.744792  0  0  -0.151668  0  3.993577  0  0  -0.154656  0  4.014964  0  0  -0.09625  -0.149557  0  3.979046  0
C  C55  1  0.55706348  0.86302547  0.50820712  1  0  -0.065796  0  3.774207  0  0  -0.076738  0  4.022979  0  0  -0.078003  0  4.043397  0  0  -0.092656  -0.075795  0  4.009041  0
C  C56  1  0.44293920  0.13696420  0.49179292  1  0  -0.065991  0  3.77473  0  0  -0.076957  0  4.023514  0  0  -0.078218  0  4.043922  0  0  -0.092727  -0.076015  0  4.009579  0
C  C57  1  0.45343427  0.77163227  0.52322576  1  0  -0.06839  0  3.761921  0  0  -0.081072  0  4.005111  0  0  -0.083309  0  4.02707  0  0  -0.093584  -0.07949  0  3.990042  0
C  C58  1  0.54656900  0.22835984  0.47677574  1  0  -0.0684  0  3.762179  0  0  -0.081035  0  4.005314  0  0  -0.083272  0  4.027283  0  0  -0.093556  -0.079455  0  3.990247  0
C  C59  1  0.58861971  0.74432717  0.59882312  1  0  -0.078265  0  3.801173  0  0  -0.089144  0  4.046881  0  0  -0.090774  0  4.068628  0  0  -0.09672  -0.087862  0  4.031943  0
C  C60  1  0.41138705  0.25567063  0.40118232  1  0  -0.078244  0  3.801179  0  0  -0.089102  0  4.046899  0  0  -0.090748  0  4.068634  0  0  -0.096731  -0.087819  0  4.031959  0
C  C61  1  0.82367313  0.80858132  0.65939906  1  0  -0.140635  0  3.759792  0  0  -0.15902  0  4.002132  0  0  -0.162786  0  4.024426  0  0  -0.102627  -0.156391  0  3.986896  0
C  C62  1  0.17633029  0.19142048  0.34060416  1  0  -0.140539  0  3.759793  0  0  -0.158952  0  4.002137  0  0  -0.16272  0  4.02444  0  0  -0.102595  -0.156323  0  3.9869  0
C  C63  1  0.94993825  0.01299773  0.86598089  1  0  0.675778  0  3.803233  0  0  0.622124  0  4.103914  0  0  0.656125  0  4.09787  0  0  0.224545  0.598875  0  4.107311  0
C  C64  1  0.05004045  0.98700645  0.13401611  1  0  0.676251  0  3.802969  0  0  0.622411  0  4.10394  0  0  0.656425  0  4.09788  0  0  0.224695  0.599135  0  4.10737  0
C  C65  1  0.87257863  0.56408405  0.72796154  1  0  -0.069373  0  3.851556  0  0  -0.081861  0  4.103549  0  0  -0.082814  0  4.126147  0  0  -0.103593  -0.081063  0  4.088131  0
C  C66  1  0.12742932  0.43591934  0.27204099  1  0  -0.069526  0  3.851658  0  0  -0.082042  0  4.10367  0  0  -0.082987  0  4.126273  0  0  -0.103602  -0.081243  0  4.088241  0
N  N67  1  0.88727251  0.29851622  0.75361093  1  0  -0.517498  0  3.308796  0  0  -0.460951  0  3.548603  0  0  -0.482673  0  3.553182  0  0  -0.413849  -0.44609  0  3.545097  0
N  N68  1  0.11273664  0.70149206  0.24639521  1  0  -0.517579  0  3.308845  0  0  -0.461053  0  3.548646  0  0  -0.482797  0  3.553221  0  0  -0.413875  -0.446191  0  3.545143  0
N  N69  1  0.93214328  0.13926053  0.77964979  1  0  -0.493994  0  3.286844  0  0  -0.441023  0  3.53964  0  0  -0.461196  0  3.545092  0  0  -0.43232  -0.427074  0  3.535423  0
N  N70  1  0.06784175  0.86073549  0.22034015  1  0  -0.493921  0  3.2869  0  0  -0.440995  0  3.539621  0  0  -0.461186  0  3.545085  0  0  -0.432231  -0.427041  0  3.535396  0
O  O71  1  0.32198122  0.22872384  0.76003222  1  0  -0.63922  0  1.918828  0  0  -0.591066  0  2.146097  0  0  -0.612147  0  2.135544  0  0  -0.323151  -0.576298  0  2.15278  0
O  O72  1  0.67801215  0.77128033  0.23996599  1  0  -0.639073  0  1.918824  0  0  -0.590942  0  2.146066  0  0  -0.612025  0  2.135515  0  0  -0.323055  -0.576173  0  2.152749  0
O  O73  1  0.71426139  0.04416662  0.88878886  1  0  -0.621807  0  2.036971  0  0  -0.552525  0  2.286668  0  0  -0.581905  0  2.275922  0  0  -0.30597  -0.532034  0  2.293417  0
O  O74  1  0.28572533  0.95584485  0.11121208  1  0  -0.622019  0  2.037044  0  0  -0.552601  0  2.286779  0  0  -0.581992  0  2.276028  0  0  -0.306041  -0.532099  0  2.29354  0
O  O75  1  0.07574726  0.94160427  0.89151276  1  0  -0.698883  0  2.055925  0  0  -0.627916  0  2.303554  0  0  -0.657177  0  2.290586  0  0  -0.333624  -0.607341  0  2.311809  0
O  O76  1  0.92422253  0.05839751  0.10848451  1  0  -0.699055  0  2.055848  0  0  -0.628072  0  2.303622  0  0  -0.657323  0  2.290606  0  0  -0.3337  -0.607487  0  2.31189  0
O  O77  1  0.30098126  0.16727419  0.05530851  1  0  -0.816432  0  1.82426  0  0  -0.759843  0  1.998225  0  0  -0.781361  0  1.96864  0  0  -0.574581  -0.744637  0  2.018731  0
O  O78  1  0.69898362  0.83272510  0.94468241  1  0  -0.816697  0  1.824163  0  0  -0.759954  0  1.998455  0  0  -0.781458  0  1.96885  0  0  -0.5746  -0.744751  0  2.018965  0
