# generated using pymatgen
data_AgH7C7SN2
_symmetry_space_group_name_H-M   'P 1'
_cell_length_a   8.11604354
_cell_length_b   11.24046483
_cell_length_c   18.05500000
_cell_angle_alpha   90.00000000
_cell_angle_beta   90.00000000
_cell_angle_gamma   90.00000000
_symmetry_Int_Tables_number   1
_chemical_formula_structural   AgH7C7SN2
_chemical_formula_sum   'Ag8 H56 C56 S8 N16'
_cell_volume   1647.12338057
_cell_formula_units_Z   8
loop_
 _symmetry_equiv_pos_site_id
 _symmetry_equiv_pos_as_xyz
  1  'x, y, z'
loop_
 _atom_site_type_symbol
 _atom_site_label
 _atom_site_symmetry_multiplicity
 _atom_site_fract_x
 _atom_site_fract_y
 _atom_site_fract_z
 _atom_site_occupancy
 _atom_site_hle17_bader_spin_density
 _atom_site_hle17_ddec_charge
 _atom_site_hle17_ddec_spin_density
 _atom_site_hle17_ddec_sum_bond_order
 _atom_site_hle17_magmom
 _atom_site_hse06_10hf_bader_spin_density
 _atom_site_hse06_10hf_ddec_charge
 _atom_site_hse06_10hf_ddec_spin_density
 _atom_site_hse06_10hf_ddec_sum_bond_order
 _atom_site_hse06_10hf_magmom
 _atom_site_hse06_bader_spin_density
 _atom_site_hse06_ddec_charge
 _atom_site_hse06_ddec_spin_density
 _atom_site_hse06_ddec_sum_bond_order
 _atom_site_hse06_magmom
 _atom_site_pbe_bader_charge
 _atom_site_pbe_bader_spin_density
 _atom_site_pbe_cm5_charge
 _atom_site_pbe_ddec_charge
 _atom_site_pbe_ddec_spin_density
 _atom_site_pbe_ddec_sum_bond_order
 _atom_site_pbe_magmom
Ag  Ag0  1  0.81266444  0.84876205  0.92316588  1  0  0.438713  0  1.794421  0  0  0.327136  0  2.284859  0  0  0.344092  0  2.245723  0  0.510111  0  0.415195  0.315699  0  2.312028  0
Ag  Ag1  1  0.81265089  0.34878273  0.57683301  1  0  0.438707  0  1.794274  0  0  0.327117  0  2.284715  0  0  0.344072  0  2.245582  0  0.510261  0  0.415193  0.315678  0  2.311883  0
Ag  Ag2  1  0.31266343  0.65122307  0.92316865  1  0  0.438727  0  1.794371  0  0  0.327155  0  2.284806  0  0  0.344108  0  2.245676  0  0.510114  0  0.415193  0.315722  0  2.311971  0
Ag  Ag3  1  0.31266836  0.15122951  0.57683467  1  0  0.438795  0  1.794339  0  0  0.327225  0  2.284791  0  0  0.344177  0  2.245655  0  0.510161  0  0.415213  0.315789  0  2.311964  0
Ag  Ag4  1  0.18733635  0.15123485  0.07683578  1  0  0.438704  0  1.794347  0  0  0.327135  0  2.284786  0  0  0.344086  0  2.245653  0  0.510163  0  0.415169  0.315698  0  2.311954  0
Ag  Ag5  1  0.18733635  0.65122841  0.42316256  1  0  0.43871  0  1.794435  0  0  0.327132  0  2.284899  0  0  0.34408  0  2.245768  0  0.510114  0  0.415169  0.315696  0  2.31207  0
Ag  Ag6  1  0.68733121  0.34876049  0.07683689  1  0  0.43874  0  1.794315  0  0  0.327173  0  2.284739  0  0  0.344127  0  2.245603  0  0.510152  0  0.415205  0.315737  0  2.311906  0
Ag  Ag7  1  0.68732505  0.84876917  0.42316256  1  0  0.438752  0  1.794377  0  0  0.327183  0  2.28483  0  0  0.34413  0  2.245699  0  0.510121  0  0.415186  0.315747  0  2.311994  0
H  H8  1  0.91008506  0.00125884  0.78278870  1  0  0.080846  0  0.939137  0  0  0.089334  0  1.004871  0  0  0.091259  0  1.004486  0  0.102609  0  0.109852  0.087852  0  1.005452  0
H  H9  1  0.91009122  0.50127375  0.71721573  1  0  0.080788  0  0.939236  0  0  0.089292  0  1.004945  0  0  0.091217  0  1.004561  0  0.102316  0  0.109805  0.08781  0  1.005526  0
H  H10  1  0.41010500  0.49873738  0.78278593  1  0  0.08078  0  0.939063  0  0  0.089293  0  1.004793  0  0  0.09122  0  1.004408  0  0.102531  0  0.109797  0.087807  0  1.005379  0
H  H11  1  0.41010376  0.99873895  0.71721462  1  0  0.080807  0  0.939063  0  0  0.089297  0  1.004805  0  0  0.091222  0  1.004422  0  0.102556  0  0.109813  0.087813  0  1.005387  0
H  H12  1  0.08991080  0.99873628  0.21721573  1  0  0.080841  0  0.939218  0  0  0.089363  0  1.004916  0  0  0.091289  0  1.004531  0  0.102491  0  0.109857  0.087879  0  1.005501  0
H  H13  1  0.08989971  0.49873827  0.28278150  1  0  0.080803  0  0.939194  0  0  0.089293  0  1.004929  0  0  0.091219  0  1.004545  0  0.102461  0  0.109828  0.08781  0  1.005513  0
H  H14  1  0.58989950  0.50125774  0.21721684  1  0  0.080813  0  0.939251  0  0  0.089316  0  1.004981  0  0  0.091242  0  1.004593  0  0.10247  0  0.109844  0.087832  0  1.005565  0
H  H15  1  0.58989457  0.00126329  0.28278372  1  0  0.080838  0  0.939157  0  0  0.08935  0  1.004876  0  0  0.091277  0  1.004492  0  0.102441  0  0.109841  0.087865  0  1.005463  0
H  H16  1  0.88876187  0.12486672  0.65644475  1  0  0.098485  0  0.986403  0  0  0.113068  0  1.065611  0  0  0.114507  0  1.06487  0  0.047145  0  0.081245  0.11193  0  1.06631  0
H  H17  1  0.88877172  0.62485939  0.84356023  1  0  0.098472  0  0.986311  0  0  0.113008  0  1.065583  0  0  0.114438  0  1.064852  0  0.047173  0  0.081215  0.111878  0  1.066276  0
H  H18  1  0.38876208  0.37513929  0.65644254  1  0  0.098535  0  0.986263  0  0  0.113058  0  1.065541  0  0  0.11449  0  1.064808  0  0.047146  0  0.081211  0.111926  0  1.066234  0
H  H19  1  0.38876455  0.87513997  0.84355912  1  0  0.09852  0  0.986289  0  0  0.113047  0  1.065585  0  0  0.114482  0  1.064848  0  0.04715  0  0.081214  0.111916  0  1.066278  0
H  H20  1  0.11122784  0.87514708  0.34356134  1  0  0.098497  0  0.986333  0  0  0.113035  0  1.065612  0  0  0.11446  0  1.064888  0  0.047283  0  0.081254  0.111902  0  1.066305  0
H  H21  1  0.11123523  0.37513395  0.15643921  1  0  0.098404  0  0.986314  0  0  0.112962  0  1.065585  0  0  0.114399  0  1.064844  0  0.047078  0  0.081197  0.111822  0  1.066288  0
H  H22  1  0.61123378  0.62486295  0.34355968  1  0  0.098485  0  0.986284  0  0  0.113037  0  1.065565  0  0  0.114478  0  1.064823  0  0.047128  0  0.081207  0.111899  0  1.06626  0
H  H23  1  0.61123871  0.12485961  0.15643921  1  0  0.098539  0  0.986268  0  0  0.113085  0  1.065535  0  0  0.114516  0  1.064802  0  0.047231  0  0.081246  0.111953  0  1.06623  0
H  H24  1  0.02844489  0.01415422  0.62689283  1  0  0.117682  0  0.961766  0  0  0.135651  0  1.03078  0  0  0.137132  0  1.029874  0  0.056246  0  0.0873  0.134537  0  1.031538  0
H  H25  1  0.02845229  0.51415045  0.87311216  1  0  0.117748  0  0.961974  0  0  0.135697  0  1.030976  0  0  0.137184  0  1.030065  0  0.056179  0  0.087349  0.134579  0  1.031737  0
H  H26  1  0.52845577  0.48585357  0.62689283  1  0  0.117698  0  0.962052  0  0  0.135696  0  1.030991  0  0  0.13718  0  1.030083  0  0.056176  0  0.087354  0.134576  0  1.031752  0
H  H27  1  0.52844960  0.98584802  0.87311105  1  0  0.117722  0  0.961928  0  0  0.135718  0  1.030879  0  0  0.137204  0  1.029972  0  0.056233  0  0.08736  0.1346  0  1.031641  0
H  H28  1  0.97154728  0.98585425  0.37311105  1  0  0.117731  0  0.962001  0  0  0.135673  0  1.031017  0  0  0.137157  0  1.030106  0  0.101157  0  0.087327  0.134554  0  1.031777  0
H  H29  1  0.97155713  0.48585001  0.12688950  1  0  0.117727  0  0.961706  0  0  0.135667  0  1.030748  0  0  0.137151  0  1.029842  0  0.056285  0  0.087317  0.134547  0  1.031512  0
H  H30  1  0.47154996  0.51414867  0.37310883  1  0  0.117748  0  0.961986  0  0  0.135733  0  1.030955  0  0  0.137218  0  1.030049  0  0.056207  0  0.08735  0.134613  0  1.031718  0
H  H31  1  0.47154503  0.01414710  0.12689006  1  0  0.117751  0  0.962003  0  0  0.135741  0  1.030959  0  0  0.137228  0  1.03005  0  0.101155  0  0.087355  0.13462  0  1.031723  0
H  H32  1  0.84645431  0.03946100  0.57524508  1  0  0.118694  0  0.964211  0  0  0.140175  0  1.023615  0  0  0.140726  0  1.024838  0  0.074348  0  0.088125  0.13975  0  1.022713  0
H  H33  1  0.84647156  0.53945545  0.92476101  1  0  0.118641  0  0.96423  0  0  0.140113  0  1.023651  0  0  0.140662  0  1.024878  0  0.074645  0  0.088067  0.139682  0  1.022755  0
H  H34  1  0.34646438  0.46054946  0.57524010  1  0  0.118769  0  0.964187  0  0  0.140225  0  1.023619  0  0  0.140775  0  1.024845  0  0.074609  0  0.088112  0.139794  0  1.022724  0
H  H35  1  0.34645822  0.96054480  0.92475713  1  0  0.118768  0  0.964239  0  0  0.14024  0  1.023629  0  0  0.14079  0  1.024852  0  0.074622  0  0.08814  0.13981  0  1.022733  0
H  H36  1  0.15352801  0.96055369  0.42475990  1  0  0.118705  0  0.964209  0  0  0.140171  0  1.023634  0  0  0.140723  0  1.024856  0  0.074793  0  0.088093  0.139741  0  1.02274  0
H  H37  1  0.15354526  0.46054501  0.07524287  1  0  0.11875  0  0.964222  0  0  0.140226  0  1.023611  0  0  0.140776  0  1.024835  0  0.074361  0  0.088144  0.139799  0  1.022711  0
H  H38  1  0.65353888  0.53945278  0.42475879  1  0  0.118793  0  0.964201  0  0  0.140259  0  1.023609  0  0  0.140809  0  1.024835  0  0.074581  0  0.088138  0.139828  0  1.022716  0
H  H39  1  0.65354258  0.03944855  0.07523844  1  0  0.118782  0  0.964113  0  0  0.140247  0  1.023535  0  0  0.140798  0  1.024758  0  0.074531  0  0.088118  0.139815  0  1.022645  0
H  H40  1  0.68180019  0.86293584  0.58514040  1  0  0.088351  0  0.984153  0  0  0.093916  0  1.058925  0  0  0.09671  0  1.056979  0  0.099974  0  0.092783  0.091812  0  1.060376  0
H  H41  1  0.68181990  0.36292627  0.91486236  1  0  0.088395  0  0.984015  0  0  0.093899  0  1.058857  0  0  0.096705  0  1.056901  0  0.100008  0  0.092714  0.091783  0  1.06034  0
H  H42  1  0.18180040  0.63706351  0.58514151  1  0  0.088344  0  0.98415  0  0  0.093877  0  1.058946  0  0  0.09667  0  1.057001  0  0.100009  0  0.09277  0.0918  0  1.060373  0
H  H43  1  0.18180657  0.13706729  0.91486070  1  0  0.088556  0  0.984033  0  0  0.094018  0  1.058881  0  0  0.096812  0  1.056933  0  0.09994  0  0.092806  0.091907  0  1.060346  0
H  H44  1  0.31818582  0.13707262  0.41486236  1  0  0.088426  0  0.984124  0  0  0.0939  0  1.058985  0  0  0.096695  0  1.057037  0  0.099969  0  0.092762  0.091836  0  1.060401  0
H  H45  1  0.31819445  0.63706351  0.08513764  1  0  0.088514  0  0.984027  0  0  0.093961  0  1.058902  0  0  0.096773  0  1.056939  0  0.099921  0  0.092795  0.091854  0  1.060357  0
H  H46  1  0.81819793  0.36293695  0.41486292  1  0  0.088394  0  0.984121  0  0  0.093918  0  1.058921  0  0  0.096723  0  1.056965  0  0.100023  0  0.092773  0.09183  0  1.060322  0
H  H47  1  0.81819669  0.86293317  0.08513764  1  0  0.088421  0  0.984081  0  0  0.093882  0  1.058958  0  0  0.096675  0  1.05701  0  0.099925  0  0.092751  0.091811  0  1.060355  0
H  H48  1  0.55401502  0.70468260  0.66333038  1  0  0.101306  0  0.974789  0  0  0.111732  0  1.033883  0  0  0.113413  0  1.035905  0  0.086842  0  0.10279  0.110502  0  1.032662  0
H  H49  1  0.55402734  0.20468282  0.83666796  1  0  0.101444  0  0.974739  0  0  0.111782  0  1.033905  0  0  0.113463  0  1.035925  0  0.086426  0  0.102803  0.110552  0  1.032684  0
H  H50  1  0.05400168  0.79531231  0.66333259  1  0  0.10132  0  0.974707  0  0  0.111729  0  1.033835  0  0  0.113408  0  1.035859  0  0.086804  0  0.102774  0.110499  0  1.032612  0
H  H51  1  0.05401400  0.29531786  0.83666741  1  0  0.10135  0  0.974608  0  0  0.111729  0  1.033788  0  0  0.113411  0  1.035804  0  0.086897  0  0.102771  0.1105  0  1.032564  0
H  H52  1  0.44597962  0.29532231  0.33666907  1  0  0.101366  0  0.974782  0  0  0.111787  0  1.03386  0  0  0.113468  0  1.03588  0  0.086844  0  0.102832  0.110556  0  1.032642  0
H  H53  1  0.44598455  0.79531409  0.16333038  1  0  0.101373  0  0.974746  0  0  0.111798  0  1.033845  0  0  0.113482  0  1.035854  0  0.086735  0  0.102811  0.110568  0  1.032624  0
H  H54  1  0.94599665  0.20468815  0.33666907  1  0  0.101265  0  0.974775  0  0  0.111716  0  1.033861  0  0  0.113396  0  1.035882  0  0.086826  0  0.102753  0.110484  0  1.032643  0
H  H55  1  0.94599172  0.70468438  0.16333204  1  0  0.101313  0  0.974738  0  0  0.111708  0  1.03389  0  0  0.113391  0  1.0359  0  0.086844  0  0.102785  0.110477  0  1.032668  0
H  H56  1  0.61676727  0.70086336  0.79974688  1  0  0.065839  0  0.95995  0  0  0.069644  0  1.037264  0  0  0.072202  0  1.035053  0  0.080553  0  0.105356  0.06774  0  1.039091  0
H  H57  1  0.61676850  0.20087337  0.70024813  1  0  0.065739  0  0.960121  0  0  0.069572  0  1.037413  0  0  0.072136  0  1.035184  0  0.080492  0  0.105346  0.06766  0  1.039262  0
H  H58  1  0.11675516  0.79912709  0.79975187  1  0  0.065877  0  0.959939  0  0  0.06961  0  1.037341  0  0  0.072176  0  1.035112  0  0.080382  0  0.105358  0.0677  0  1.039186  0
H  H59  1  0.11676625  0.29912731  0.70024979  1  0  0.065782  0  0.960095  0  0  0.069562  0  1.037437  0  0  0.072127  0  1.035207  0  0.080439  0  0.105356  0.067651  0  1.039285  0
H  H60  1  0.38323106  0.29913176  0.20024924  1  0  0.06581  0  0.960015  0  0  0.069636  0  1.037318  0  0  0.072193  0  1.035111  0  0.080402  0  0.105351  0.06773  0  1.03915  0
H  H61  1  0.38322244  0.79912976  0.29974799  1  0  0.065759  0  0.960098  0  0  0.069631  0  1.037377  0  0  0.072198  0  1.035145  0  0.080559  0  0.105332  0.067725  0  1.039209  0
H  H62  1  0.88323701  0.20087070  0.20025201  1  0  0.065857  0  0.96002  0  0  0.069638  0  1.037363  0  0  0.072197  0  1.03515  0  0.080433  0  0.105371  0.067732  0  1.039193  0
H  H63  1  0.88323577  0.70087493  0.29974965  1  0  0.065882  0  0.960048  0  0  0.069634  0  1.037409  0  0  0.072198  0  1.03518  0  0.080438  0  0.105374  0.067724  0  1.039255  0
C  C64  1  0.13423782  0.86943646  0.02445084  1  0  0.272523  0  3.977174  0  0  0.261225  0  4.268394  0  0  0.278653  0  4.284776  0  0.59983  0  0.143457  0.248965  0  4.257382  0
C  C65  1  0.13423289  0.36944824  0.47555802  1  0  0.272572  0  3.976801  0  0  0.261271  0  4.26804  0  0  0.278701  0  4.284424  0  0.598538  0  0.143483  0.24901  0  4.257026  0
C  C66  1  0.63423637  0.63054599  0.02444752  1  0  0.272724  0  3.97714  0  0  0.261429  0  4.268348  0  0  0.278855  0  4.284732  0  0.599559  0  0.14361  0.249171  0  4.25733  0
C  C67  1  0.63423637  0.13055866  0.47555303  1  0  0.272522  0  3.977296  0  0  0.261213  0  4.268534  0  0  0.278643  0  4.28492  0  0.599252  0  0.143424  0.248952  0  4.257525  0
C  C68  1  0.86576421  0.13054887  0.97555082  1  0  0.272687  0  3.97689  0  0  0.261395  0  4.268108  0  0  0.278825  0  4.284494  0  0.59959  0  0.14355  0.249137  0  4.257087  0
C  C69  1  0.86576667  0.63055844  0.52444531  1  0  0.272379  0  3.977433  0  0  0.26106  0  4.268674  0  0  0.278485  0  4.285063  0  0.599924  0  0.143424  0.248803  0  4.257659  0
C  C70  1  0.36576935  0.36943668  0.97554971  1  0  0.272548  0  3.977095  0  0  0.261244  0  4.268331  0  0  0.278672  0  4.284717  0  0.599786  0  0.143463  0.248988  0  4.257308  0
C  C71  1  0.36576566  0.86944714  0.52444641  1  0  0.272635  0  3.976951  0  0  0.261332  0  4.268181  0  0  0.278761  0  4.284568  0  0.599546  0  0.143526  0.249073  0  4.257163  0
C  C72  1  0.83312269  0.93636875  0.75382830  1  0  0.05077  0  3.671276  0  0  0.019388  0  3.913804  0  0  0.024409  0  3.931284  0  0.450954  0  0.038477  0.016108  0  3.90209  0
C  C73  1  0.83313378  0.43636985  0.74617170  1  0  0.05074  0  3.671598  0  0  0.01942  0  3.914182  0  0  0.024443  0  3.93166  0  0.451259  0  0.03856  0.016139  0  3.902467  0
C  C74  1  0.33312660  0.56362972  0.75382443  1  0  0.050837  0  3.671304  0  0  0.01947  0  3.913819  0  0  0.02449  0  3.931299  0  0.45089  0  0.038512  0.016193  0  3.902099  0
C  C75  1  0.33312044  0.06362637  0.74617557  1  0  0.050762  0  3.671577  0  0  0.019482  0  3.914124  0  0  0.024502  0  3.931609  0  0.450898  0  0.038503  0.016204  0  3.902406  0
C  C76  1  0.16686948  0.06363349  0.24617336  1  0  0.050692  0  3.671472  0  0  0.019316  0  3.914023  0  0  0.024338  0  3.931499  0  0.451084  0  0.038443  0.016034  0  3.902314  0
C  C77  1  0.16687441  0.56362794  0.25382443  1  0  0.050818  0  3.671557  0  0  0.019488  0  3.91407  0  0  0.024509  0  3.931549  0  0.450911  0  0.038494  0.016207  0  3.902356  0
C  C78  1  0.66686311  0.43636985  0.24617668  1  0  0.050772  0  3.67133  0  0  0.01937  0  3.913871  0  0  0.024395  0  3.931344  0  0.450901  0  0.038413  0.016089  0  3.902162  0
C  C79  1  0.66686803  0.93636964  0.25382276  1  0  0.050748  0  3.671553  0  0  0.019352  0  3.914096  0  0  0.024371  0  3.931578  0  0.451094  0  0.038428  0.016073  0  3.90238  0
C  C80  1  0.80905185  0.94444404  0.67709610  1  0  0.097946  0  3.758736  0  0  0.133019  0  3.983999  0  0  0.12962  0  4.009536  0  -0.059825  0  -0.003991  0.135122  0  3.966668  0
C  C81  1  0.80905801  0.44444425  0.82290667  1  0  0.097903  0  3.758535  0  0  0.13278  0  3.984071  0  0  0.12938  0  4.009611  0  -0.060724  0  -0.00405  0.134886  0  3.966733  0
C  C82  1  0.30905330  0.55555621  0.67709610  1  0  0.097868  0  3.75884  0  0  0.132859  0  3.98422  0  0  0.129459  0  4.009756  0  -0.060612  0  -0.004027  0.134963  0  3.966889  0
C  C83  1  0.30905453  0.05555286  0.82290003  1  0  0.098078  0  3.758759  0  0  0.132918  0  3.984272  0  0  0.129518  0  4.009807  0  -0.060066  0  -0.003949  0.135024  0  3.966935  0
C  C84  1  0.19094402  0.05556354  0.32290390  1  0  0.098008  0  3.758812  0  0  0.132982  0  3.984161  0  0  0.129585  0  4.00969  0  -0.059848  0  -0.003991  0.135084  0  3.966837  0
C  C85  1  0.19094525  0.55555354  0.17709665  1  0  0.0979  0  3.758744  0  0  0.13286  0  3.984106  0  0  0.129459  0  4.009646  0  -0.059884  0  -0.003976  0.134964  0  3.966772  0
C  C86  1  0.69094873  0.44444425  0.32290446  1  0  0.097918  0  3.758831  0  0  0.132964  0  3.984111  0  0  0.129565  0  4.009651  0  -0.060531  0  -0.003999  0.135065  0  3.966781  0
C  C87  1  0.69094873  0.94444048  0.17709443  1  0  0.0978  0  3.758912  0  0  0.132824  0  3.984216  0  0  0.129425  0  4.009752  0  -0.060826  0  -0.00404  0.134925  0  3.966889  0
C  C88  1  0.70520938  0.85994131  0.64457879  1  0  -0.06802  0  3.696043  0  0  -0.090891  0  3.933601  0  0  -0.090723  0  3.954656  0  -0.014601  0  -0.071568  -0.090685  0  3.919273  0
C  C89  1  0.70521554  0.35993796  0.85541567  1  0  -0.068062  0  3.696264  0  0  -0.090798  0  3.93386  0  0  -0.090643  0  3.954917  0  -0.014337  0  -0.071428  -0.090595  0  3.919522  0
C  C90  1  0.20520959  0.64006072  0.64458045  1  0  -0.068008  0  3.69599  0  0  -0.090823  0  3.933596  0  0  -0.090653  0  3.954653  0  -0.014504  0  -0.071519  -0.090642  0  3.919253  0
C  C91  1  0.20521083  0.14006449  0.85542454  1  0  -0.068286  0  3.695722  0  0  -0.090949  0  3.933299  0  0  -0.090777  0  3.954352  0  -0.014469  0  -0.071559  -0.090746  0  3.918968  0
C  C92  1  0.29478772  0.14006894  0.35542177  1  0  -0.0681  0  3.696021  0  0  -0.090853  0  3.93362  0  0  -0.090683  0  3.954674  0  -0.01455  0  -0.07148  -0.090685  0  3.919273  0
C  C93  1  0.29479142  0.64005983  0.14457546  1  0  -0.068144  0  3.695669  0  0  -0.090842  0  3.933205  0  0  -0.090686  0  3.954245  0  -0.014549  0  -0.071589  -0.090639  0  3.91888  0
C  C94  1  0.79479859  0.35994775  0.35542509  1  0  -0.068063  0  3.695747  0  0  -0.09086  0  3.933261  0  0  -0.090702  0  3.954306  0  -0.014759  0  -0.071551  -0.090649  0  3.918944  0
C  C95  1  0.79478997  0.85993330  0.14457713  1  0  -0.068048  0  3.696029  0  0  -0.090791  0  3.933596  0  0  -0.090621  0  3.95465  0  -0.014324  0  -0.07151  -0.0906  0  3.919261  0
C  C96  1  0.63424746  0.77130084  0.68802769  1  0  -0.106417  0  3.746719  0  0  -0.116944  0  3.991087  0  0  -0.123076  0  4.015132  0  -0.060166  0  -0.085807  -0.112904  0  3.97501  0
C  C97  1  0.63426471  0.27129483  0.81197341  1  0  -0.106583  0  3.746988  0  0  -0.117025  0  3.991306  0  0  -0.123154  0  4.015349  0  -0.059828  0  -0.085891  -0.112986  0  3.975235  0
C  C98  1  0.13424152  0.72869673  0.68803046  1  0  -0.106426  0  3.746856  0  0  -0.116936  0  3.991196  0  0  -0.123067  0  4.01524  0  -0.060189  0  -0.085838  -0.112896  0  3.975126  0
C  C99  1  0.13424768  0.22869695  0.81196788  1  0  -0.106407  0  3.747151  0  0  -0.116926  0  3.991475  0  0  -0.123057  0  4.015519  0  -0.060288  0  -0.085824  -0.112886  0  3.975402  0
C  C100  1  0.36575087  0.22870407  0.31196954  1  0  -0.106509  0  3.746977  0  0  -0.117026  0  3.991306  0  0  -0.123157  0  4.015348  0  -0.060225  0  -0.08591  -0.11299  0  3.975245  0
C  C101  1  0.36574964  0.72870118  0.18802880  1  0  -0.106558  0  3.746868  0  0  -0.117109  0  3.991203  0  0  -0.123242  0  4.015255  0  -0.060044  0  -0.085878  -0.113069  0  3.975129  0
C  C102  1  0.86575928  0.27130462  0.31197231  1  0  -0.106409  0  3.746567  0  0  -0.116984  0  3.99091  0  0  -0.123112  0  4.014953  0  -0.060106  0  -0.085839  -0.11295  0  3.974844  0
C  C103  1  0.86575435  0.77130262  0.18802880  1  0  -0.106395  0  3.747061  0  0  -0.116913  0  3.991365  0  0  -0.123042  0  4.015411  0  -0.060261  0  -0.085842  -0.112874  0  3.975295  0
C  C104  1  0.66878646  0.76887301  0.76348435  1  0  0.095951  0  3.741616  0  0  0.067909  0  3.992746  0  0  0.072721  0  4.012354  0  0.493767  0  0.031736  0.064481  0  3.980159  0
C  C105  1  0.66880617  0.26887500  0.73651343  1  0  0.096016  0  3.741862  0  0  0.067958  0  3.992983  0  0  0.072771  0  4.012595  0  0.494018  0  0.031813  0.064533  0  3.980377  0
C  C106  1  0.16878421  0.73112546  0.76348325  1  0  0.095875  0  3.741856  0  0  0.06788  0  3.992975  0  0  0.072701  0  4.012569  0  0.493926  0  0.031751  0.064447  0  3.980389  0
C  C107  1  0.16878791  0.23112478  0.73652063  1  0  0.095963  0  3.74208  0  0  0.067956  0  3.993213  0  0  0.072771  0  4.012822  0  0.4939  0  0.031777  0.064526  0  3.980615  0
C  C108  1  0.33121188  0.23113012  0.23651565  1  0  0.096051  0  3.741768  0  0  0.067982  0  3.992894  0  0  0.072791  0  4.012506  0  0.493828  0  0.031789  0.064568  0  3.980277  0
C  C109  1  0.33120448  0.73112012  0.26347881  1  0  0.095993  0  3.741933  0  0  0.067895  0  3.993057  0  0  0.072706  0  4.012671  0  0.49388  0  0.031798  0.064468  0  3.98046  0
C  C110  1  0.83121535  0.26887322  0.23651842  1  0  0.095944  0  3.741727  0  0  0.067926  0  3.992846  0  0  0.072741  0  4.012446  0  0.493895  0  0.031785  0.06451  0  3.980236  0
C  C111  1  0.83121535  0.76887034  0.26348103  1  0  0.095832  0  3.741856  0  0  0.067838  0  3.992956  0  0  0.072655  0  4.012561  0  0.493827  0  0.031732  0.064399  0  3.980379  0
C  C112  1  0.89663516  0.03593268  0.63154583  1  0  -0.346018  0  3.725009  0  0  -0.426581  0  3.955134  0  0  -0.428454  0  3.965305  0  -0.087477  0  -0.25051  -0.424853  0  3.948126  0
C  C113  1  0.89664379  0.53592624  0.86845749  1  0  -0.345892  0  3.725059  0  0  -0.426351  0  3.955285  0  0  -0.42822  0  3.965463  0  -0.086992  0  -0.250445  -0.424628  0  3.948273  0
C  C114  1  0.39664400  0.46407245  0.63154196  1  0  -0.346059  0  3.725107  0  0  -0.426553  0  3.955223  0  0  -0.428422  0  3.965398  0  -0.086895  0  -0.250481  -0.424827  0  3.948215  0
C  C115  1  0.39663907  0.96407312  0.86845749  1  0  -0.346178  0  3.725143  0  0  -0.426653  0  3.955304  0  0  -0.428526  0  3.965479  0  -0.087565  0  -0.25057  -0.424928  0  3.948296  0
C  C116  1  0.10335578  0.96408113  0.36845804  1  0  -0.346061  0  3.725241  0  0  -0.42653  0  3.955364  0  0  -0.428396  0  3.965543  0  -0.132869  0  -0.250538  -0.424803  0  3.948356  0
C  C117  1  0.10336317  0.46406800  0.13154251  1  0  -0.345981  0  3.724798  0  0  -0.426459  0  3.954943  0  0  -0.428334  0  3.965117  0  -0.087404  0  -0.250492  -0.424731  0  3.947943  0
C  C118  1  0.60335926  0.53592979  0.36845860  1  0  -0.346123  0  3.725089  0  0  -0.426655  0  3.955151  0  0  -0.428535  0  3.965322  0  -0.086917  0  -0.250508  -0.424923  0  3.948154  0
C  C119  1  0.60335926  0.03592467  0.13154085  1  0  -0.346142  0  3.725099  0  0  -0.426675  0  3.955219  0  0  -0.428548  0  3.965395  0  -0.131856  0  -0.250536  -0.424953  0  3.948214  0
S  S120  1  0.05763030  0.75026968  0.98409748  1  0  -0.31624  0  2.564792  0  0  -0.262551  0  2.992059  0  0  -0.277058  0  2.97466  0  0.062778  0  -0.152175  -0.251798  0  3.00383  0
S  S121  1  0.05762906  0.25028324  0.51590806  1  0  -0.316225  0  2.564831  0  0  -0.262535  0  2.992061  0  0  -0.277047  0  2.974679  0  0.062843  0  -0.15214  -0.251786  0  3.003836  0
S  S122  1  0.55763008  0.74971544  0.98409693  1  0  -0.316323  0  2.56471  0  0  -0.262654  0  2.992004  0  0  -0.277148  0  2.974581  0  0.062807  0  -0.152207  -0.251901  0  3.003774  0
S  S123  1  0.55763131  0.24972188  0.51590529  1  0  -0.316238  0  2.564951  0  0  -0.262578  0  2.992283  0  0  -0.277067  0  2.974855  0  0.062875  0  -0.152185  -0.251827  0  3.004057  0
S  S124  1  0.94237296  0.24971476  0.01590418  1  0  -0.316318  0  2.564754  0  0  -0.262657  0  2.992053  0  0  -0.277148  0  2.974623  0  0.062761  0  -0.152186  -0.251903  0  3.003825  0
S  S125  1  0.94237420  0.74972789  0.48409526  1  0  -0.316208  0  2.564569  0  0  -0.262528  0  2.991848  0  0  -0.277024  0  2.974431  0  0.062765  0  -0.152186  -0.251774  0  3.003618  0
S  S126  1  0.44236948  0.25027079  0.01589975  1  0  -0.316228  0  2.564855  0  0  -0.262562  0  2.992164  0  0  -0.277055  0  2.97474  0  0.062853  0  -0.152149  -0.251807  0  3.003932  0
S  S127  1  0.44237565  0.75027591  0.48409637  1  0  -0.316279  0  2.564628  0  0  -0.262632  0  2.99198  0  0  -0.277117  0  2.974539  0  0.062656  0  -0.152207  -0.251885  0  3.003764  0
N  N128  1  0.18830850  0.95391429  0.05484852  1  0  -0.484557  0  2.905876  0  0  -0.433947  0  3.196862  0  0  -0.449735  0  3.202017  0  -1.243824  0  -0.391203  -0.423391  0  3.19393  0
N  N129  1  0.18831466  0.45393496  0.44516533  1  0  -0.484629  0  2.905641  0  0  -0.433989  0  3.19664  0  0  -0.449776  0  3.201792  0  -1.242637  0  -0.391249  -0.423434  0  3.193711  0
N  N130  1  0.68830582  0.54606994  0.05484132  1  0  -0.484683  0  2.906009  0  0  -0.434049  0  3.196963  0  0  -0.449837  0  3.202115  0  -1.243482  0  -0.391334  -0.423493  0  3.194026  0
N  N131  1  0.68831444  0.04607728  0.44515536  1  0  -0.48459  0  2.905969  0  0  -0.433966  0  3.196968  0  0  -0.449756  0  3.202123  0  -1.243289  0  -0.391181  -0.423411  0  3.194038  0
N  N132  1  0.81168737  0.04606660  0.94515757  1  0  -0.484639  0  2.905761  0  0  -0.434015  0  3.196755  0  0  -0.449807  0  3.201911  0  -1.24351  0  -0.391267  -0.42346  0  3.193821  0
N  N133  1  0.81168983  0.54608507  0.55483467  1  0  -0.484397  0  2.906212  0  0  -0.433748  0  3.197176  0  0  -0.449535  0  3.202333  0  -1.243857  0  -0.391168  -0.423194  0  3.194245  0
N  N134  1  0.31169990  0.45391984  0.94515702  1  0  -0.484598  0  2.905871  0  0  -0.433961  0  3.196841  0  0  -0.449751  0  3.201997  0  -1.243893  0  -0.391258  -0.423406  0  3.193905  0
N  N135  1  0.31168266  0.95392585  0.55483855  1  0  -0.484643  0  2.905961  0  0  -0.434014  0  3.196949  0  0  -0.449801  0  3.202097  0  -1.243421  0  -0.391256  -0.423458  0  3.194017  0
N  N136  1  0.76631181  0.85044348  0.79610025  1  0  -0.305898  0  3.332106  0  0  -0.231298  0  3.612101  0  0  -0.246429  0  3.627886  0  -1.199301  0  -0.34105  -0.220869  0  3.601122  0
N  N137  1  0.76629949  0.35046238  0.70389975  1  0  -0.305767  0  3.332662  0  0  -0.231193  0  3.612696  0  0  -0.246326  0  3.628485  0  -1.199586  0  -0.341102  -0.220765  0  3.601718  0
N  N138  1  0.26631203  0.64955143  0.79609859  1  0  -0.305888  0  3.33193  0  0  -0.231284  0  3.611911  0  0  -0.246414  0  3.627698  0  -1.199214  0  -0.341047  -0.220854  0  3.60093  0
N  N139  1  0.26632188  0.14955342  0.70390141  1  0  -0.305903  0  3.331806  0  0  -0.231345  0  3.611837  0  0  -0.246476  0  3.627619  0  -1.199207  0  -0.34111  -0.220916  0  3.600862  0
N  N140  1  0.23369515  0.14955164  0.20389975  1  0  -0.30588  0  3.332075  0  0  -0.231286  0  3.612097  0  0  -0.246417  0  3.627884  0  -1.19929  0  -0.341033  -0.22086  0  3.601123  0
N  N141  1  0.23368406  0.64955232  0.29609748  1  0  -0.305822  0  3.332024  0  0  -0.231257  0  3.612076  0  0  -0.246388  0  3.627863  0  -1.199318  0  -0.341058  -0.220828  0  3.601099  0
N  N142  1  0.73368754  0.35044636  0.20390141  1  0  -0.305848  0  3.331763  0  0  -0.23126  0  3.611794  0  0  -0.246391  0  3.627578  0  -1.199099  0  -0.341004  -0.220835  0  3.600823  0
N  N143  1  0.73368507  0.85044882  0.29609637  1  0  -0.305778  0  3.331936  0  0  -0.231177  0  3.611922  0  0  -0.246309  0  3.627711  0  -1.199198  0  -0.34097  -0.220746  0  3.600941  0
