# generated using pymatgen
data_Zn4H7C44S10N4Cl5(O4F)4
_symmetry_space_group_name_H-M   'P 1'
_cell_length_a   11.47503704
_cell_length_b   12.74945609
_cell_length_c   26.13568318
_cell_angle_alpha   90.28269207
_cell_angle_beta   88.88918641
_cell_angle_gamma   90.00278110
_symmetry_Int_Tables_number   1
_chemical_formula_structural   Zn4H7C44S10N4Cl5(O4F)4
_chemical_formula_sum   'Zn4 H7 C44 S10 N4 Cl5 O16 F4'
_cell_volume   3822.89790630
_cell_formula_units_Z   1
loop_
 _symmetry_equiv_pos_site_id
 _symmetry_equiv_pos_as_xyz
  1  'x, y, z'
loop_
 _atom_site_type_symbol
 _atom_site_label
 _atom_site_symmetry_multiplicity
 _atom_site_fract_x
 _atom_site_fract_y
 _atom_site_fract_z
 _atom_site_occupancy
 _atom_site_pbe_bader_charge
 _atom_site_pbe_bader_spin_density
 _atom_site_pbe_cm5_charge
 _atom_site_pbe_ddec_charge
 _atom_site_pbe_ddec_spin_density
 _atom_site_pbe_ddec_sum_bond_order
 _atom_site_pbe_magmom
Zn  Zn0  1  0.61995275  0.50122949  0.49812408  1  1.275732  0  0.662387  0.85439  0  2.381468  0
Zn  Zn1  1  0.37777411  0.49825695  0.49945533  1  1.297939  0  0.667052  0.837821  0  2.447963  0
Zn  Zn2  1  0.38002811  0.50340468  0.01056764  1  1.278627  0  0.662813  0.854336  0  2.393085  0
Zn  Zn3  1  0.62187695  0.50032674  0.01128479  1  1.288491  0  0.665097  0.835189  0  2.442188  0
H  H4  1  0.16308326  0.60675935  0.55728095  1  0.183238  0  0.148322  0.139569  0  0.939838  0
H  H5  1  0.31365037  0.85826813  0.49732103  1  0.132263  0  0.115358  0.140287  0  0.978865  0
H  H6  1  0.70217043  0.49956148  0.85884035  1  0.150724  0  0.114451  0.144776  0  0.991679  0
H  H7  1  0.29944693  0.49927189  0.65111293  1  0.114448  0  0.115184  0.146613  0  0.990406  0
H  H8  1  0.68645052  0.50316200  0.18526586  1  0.127351  0  0.114401  0.139005  0  0.981626  0
H  H9  1  0.83605190  0.60721279  0.95265921  1  0.170068  0  0.148515  0.13986  0  0.94042  0
H  H10  1  0.68615253  0.86054280  0.01191411  1  0.089496  0  0.115033  0.139523  0  0.979954  0
C  C11  1  0.49670032  0.70481276  0.50046993  1  1.561888  0  0.206353  0.603887  0  4.209861  0
C  C12  1  0.49971469  0.50150040  0.59927630  1  1.562886  0  0.217608  0.616623  0  4.147654  0
C  C13  1  0.49887989  0.29493091  0.49938957  1  1.573589  0  0.203764  0.615491  0  4.203751  0
C  C14  1  0.49360974  0.50058277  0.39881500  1  1.6097  0  0.204778  0.616521  0  4.203564  0
C  C15  1  0.50254561  0.70695342  0.00914456  1  1.62383  0  0.206146  0.603481  0  4.211264  0
C  C16  1  0.50139329  0.50220971  0.91056603  1  1.57564  0  0.217388  0.617189  0  4.146632  0
C  C17  1  0.50014998  0.29698400  0.01006512  1  1.524777  0  0.202915  0.614289  0  4.206413  0
C  C18  1  0.50594988  0.50373481  0.11088060  1  1.582587  0  0.206565  0.606796  0  4.208281  0
C  C19  1  0.87596513  0.44582155  0.46762911  1  0.690549  0  0.150622  0.265003  0  4.090083  0
C  C20  1  0.12569118  0.55425400  0.52901063  1  0.512117  0  0.068482  0.079675  0  3.874305  0
C  C21  1  0.00658440  0.53684363  0.51857845  1  -0.140857  0  -0.008363  -0.067003  0  4.069652  0
C  C22  1  0.99488306  0.46361104  0.47862194  1  -0.09103  0  -0.016669  -0.1471  0  4.0991  0
C  C23  1  0.59633857  0.11075915  0.50217621  1  0.12684  0  0.004605  0.100685  0  4.085203  0
C  C24  1  0.40265137  0.88709641  0.49908224  1  0.003759  0  -0.0952  -0.142962  0  3.975985  0
C  C25  1  0.50235010  0.17941929  0.50013024  1  -0.068506  0  -0.0304  -0.176627  0  3.932944  0
C  C26  1  0.49761141  0.82050744  0.50083106  1  -0.156883  0  -0.023558  -0.10378  0  3.96282  0
C  C27  1  0.43836870  0.99316168  0.49957346  1  -0.117976  0  -0.024556  0.003283  0  4.079624  0
C  C28  1  0.56020154  0.00466496  0.50180018  1  -0.182456  0  -0.033409  -0.087299  0  4.094207  0
C  C29  1  0.42372403  0.50262648  0.81918778  1  0.511016  0  0.112396  0.246354  0  3.989425  0
C  C30  1  0.62999544  0.50121422  0.83250970  1  -0.059126  0  -0.098736  -0.212767  0  4.010793  0
C  C31  1  0.65086401  0.50163355  0.78084738  1  0.491468  0  0.095643  0.252568  0  4.065422  0
C  C32  1  0.55976752  0.50223634  0.74471774  1  0.068505  0  -0.013523  -0.104226  0  4.0071  0
C  C33  1  0.57793874  0.50248237  0.69069289  1  0.504294  0  0.112572  0.245791  0  3.991866  0
C  C34  1  0.37163928  0.50089773  0.67743302  1  0.083188  0  -0.09791  -0.213509  0  4.010095  0
C  C35  1  0.35078348  0.50153178  0.72909159  1  0.427768  0  0.095758  0.253003  0  4.066815  0
C  C36  1  0.44195280  0.50221212  0.76517285  1  0.002158  0  -0.013552  -0.103519  0  4.008587  0
C  C37  1  0.51503366  0.50217800  0.85318964  1  0.1133  0  -0.021347  -0.115818  0  3.969199  0
C  C38  1  0.48658963  0.50180065  0.65672461  1  0.104277  0  -0.021425  -0.114276  0  3.967733  0
C  C39  1  0.39965396  0.50071512  0.30917268  1  0.084781  0  0.004968  0.102382  0  4.079767  0
C  C40  1  0.59686632  0.50272751  0.19957603  1  0.016845  0  -0.093711  -0.138972  0  3.97134  0
C  C41  1  0.49287773  0.50086026  0.34243347  1  -0.095607  0  -0.029753  -0.174859  0  3.930249  0
C  C42  1  0.50271521  0.50315748  0.16733512  1  -0.17287  0  -0.023652  -0.103128  0  3.959783  0
C  C43  1  0.55957678  0.50197595  0.25142402  1  -0.175618  0  -0.024832  0.002205  0  4.078452  0
C  C44  1  0.43737747  0.50157426  0.25732475  1  -0.073056  0  -0.033254  -0.086077  0  4.092626  0
C  C45  1  0.12448517  0.44803625  0.04150340  1  0.743597  0  0.150623  0.264061  0  4.092245  0
C  C46  1  0.87376133  0.55515110  0.98079038  1  0.589086  0  0.069945  0.081179  0  3.874728  0
C  C47  1  0.99305765  0.53792852  0.99088477  1  -0.170955  0  -0.008036  -0.06784  0  4.071736  0
C  C48  1  0.00540674  0.46529199  0.03069290  1  -0.16232  0  -0.016644  -0.147614  0  4.10409  0
C  C49  1  0.40324524  0.11262968  0.00680944  1  0.144097  0  0.004197  0.100076  0  4.083648  0
C  C50  1  0.59712916  0.88923730  0.01008811  1  -0.000311  0  -0.095038  -0.14173  0  3.976267  0
C  C51  1  0.49711891  0.18146539  0.00901036  1  -0.065035  0  -0.029976  -0.17555  0  3.930547  0
C  C52  1  0.50214982  0.82261663  0.00845921  1  -0.18344  0  -0.023334  -0.103983  0  3.96339  0
C  C53  1  0.56139618  0.99527972  0.00944947  1  -0.0971  0  -0.02472  0.002364  0  4.08027  0
C  C54  1  0.43955990  0.00661518  0.00720470  1  -0.160312  0  -0.033277  -0.086785  0  4.095388  0
S  S55  1  0.87062062  0.57647146  0.53959211  1  0.726092  0  0.280368  0.348217  0  2.751502  0
S  S56  1  0.12883408  0.42204712  0.45735314  1  0.737103  0  0.280718  0.351121  0  2.841911  0
S  S57  1  0.36954661  0.11334210  0.49803622  1  0.257616  0  0.071861  0.117826  0  2.759002  0
S  S58  1  0.63069730  0.88570643  0.50302841  1  0.277557  0  0.071964  0.119665  0  2.786966  0
S  S59  1  0.62680295  0.50202927  0.30990696  1  0.248729  0  0.072877  0.118532  0  2.766674  0
S  S60  1  0.36845757  0.50268175  0.19946623  1  0.262232  0  0.070917  0.118384  0  2.79774  0
S  S61  1  0.12871497  0.57767608  0.96972530  1  0.728648  0  0.281899  0.350096  0  2.749583  0
S  S62  1  0.87170221  0.42381453  0.05216459  1  0.741513  0  0.279156  0.346155  0  2.809861  0
S  S63  1  0.63000079  0.11558474  0.01119756  1  0.278986  0  0.071237  0.116592  0  2.758624  0
S  S64  1  0.36907654  0.88768184  0.00604635  1  0.255421  0  0.072192  0.120311  0  2.789551  0
N  N65  1  0.80247545  0.50067629  0.49714252  1  -1.13587  0  -0.307125  -0.303631  0  3.338624  0
N  N66  1  0.19718126  0.49793865  0.49931869  1  -1.145887  0  -0.304542  -0.240505  0  3.388937  0
N  N67  1  0.19748508  0.50270133  0.01194365  1  -1.134364  0  -0.306299  -0.301855  0  3.336355  0
N  N68  1  0.80265251  0.49927471  0.01056808  1  -1.167669  0  -0.304466  -0.240571  0  3.390757  0
Cl  Cl69  1  0.83022840  0.36347176  0.42122100  1  -0.094172  0  0.068669  0.013932  0  1.552425  0
Cl  Cl70  1  0.74050420  0.14412302  0.50524448  1  -0.174555  0  -0.011821  -0.054325  0  1.532761  0
Cl  Cl71  1  0.25455995  0.50030352  0.32571490  1  -0.17173  0  -0.014035  -0.06199  0  1.53092  0
Cl  Cl72  1  0.17085648  0.36670793  0.08780625  1  -0.096107  0  0.069671  0.015664  0  1.557336  0
Cl  Cl73  1  0.25900425  0.14561343  0.00373239  1  -0.176832  0  -0.011244  -0.053795  0  1.533707  0
O  O74  1  0.59640978  0.65986174  0.50072865  1  -1.156253  0  -0.326343  -0.553161  0  2.330531  0
O  O75  1  0.39770021  0.65978454  0.49981916  1  -1.161555  0  -0.321553  -0.543945  0  2.285952  0
O  O76  1  0.40297790  0.49938373  0.57583220  1  -1.165377  0  -0.321396  -0.551094  0  2.345387  0
O  O77  1  0.60033904  0.50317630  0.57847255  1  -1.139  0  -0.31448  -0.542113  0  2.307858  0
O  O78  1  0.39760615  0.33645046  0.49860781  1  -1.160961  0  -0.326935  -0.55307  0  2.310094  0
O  O79  1  0.59583321  0.34360238  0.49950881  1  -1.156255  0  -0.320139  -0.546705  0  2.37553  0
O  O80  1  0.59334304  0.50450844  0.41957760  1  -1.162722  0  -0.324602  -0.556403  0  2.325839  0
O  O81  1  0.39518961  0.49646437  0.42206617  1  -1.157459  0  -0.322036  -0.543431  0  2.369534  0
O  O82  1  0.40264910  0.66248805  0.00846393  1  -1.16466  0  -0.325964  -0.552247  0  2.328561  0
O  O83  1  0.60129278  0.66149915  0.01049201  1  -1.162453  0  -0.322037  -0.544969  0  2.287882  0
O  O84  1  0.59749665  0.49958408  0.93444513  1  -1.159882  0  -0.321003  -0.552115  0  2.339084  0
O  O85  1  0.40029346  0.50467975  0.93096416  1  -1.14858  0  -0.315207  -0.541172  0  2.315835  0
O  O86  1  0.60112415  0.33895682  0.01223992  1  -1.153809  0  -0.327112  -0.554631  0  2.313186  0
O  O87  1  0.40314134  0.34527752  0.00880712  1  -1.15212  0  -0.319769  -0.545796  0  2.374434  0
O  O88  1  0.40808834  0.50699522  0.08857185  1  -1.165096  0  -0.32354  -0.556796  0  2.341303  0
O  O89  1  0.60643788  0.50080948  0.08919694  1  -1.158945  0  -0.324179  -0.546499  0  2.317268  0
F  F90  1  0.23776407  0.50109593  0.74574347  1  -0.61623  0  -0.108475  -0.146927  0  1.341629  0
F  F91  1  0.31238904  0.50340181  0.83685525  1  -0.613098  0  -0.094147  -0.125664  0  1.408744  0
F  F92  1  0.76390599  0.50078155  0.76422388  1  -0.613713  0  -0.108278  -0.146669  0  1.340801  0
F  F93  1  0.68921523  0.50341677  0.67295555  1  -0.616006  0  -0.093872  -0.125269  0  1.408024  0
