# generated using pymatgen
data_CuH16C10(NO2)2
_symmetry_space_group_name_H-M   'P 1'
_cell_length_a   7.26335578
_cell_length_b   8.03961237
_cell_length_c   11.25636767
_cell_angle_alpha   91.71431965
_cell_angle_beta   109.82360660
_cell_angle_gamma   108.99650009
_symmetry_Int_Tables_number   1
_chemical_formula_structural   CuH16C10(NO2)2
_chemical_formula_sum   'Cu2 H32 C20 N4 O8'
_cell_volume   577.36319685
_cell_formula_units_Z   2
loop_
 _symmetry_equiv_pos_site_id
 _symmetry_equiv_pos_as_xyz
  1  'x, y, z'
loop_
 _atom_site_type_symbol
 _atom_site_label
 _atom_site_symmetry_multiplicity
 _atom_site_fract_x
 _atom_site_fract_y
 _atom_site_fract_z
 _atom_site_occupancy
 _atom_site_hle17_ddec_charge
 _atom_site_hle17_ddec_spin_density
 _atom_site_hle17_ddec_sum_bond_order
 _atom_site_hle17_magmom
 _atom_site_hse06_10hf_ddec_charge
 _atom_site_hse06_10hf_ddec_spin_density
 _atom_site_hse06_10hf_ddec_sum_bond_order
 _atom_site_hse06_10hf_magmom
 _atom_site_hse06_ddec_charge
 _atom_site_hse06_ddec_spin_density
 _atom_site_hse06_ddec_sum_bond_order
 _atom_site_hse06_magmom
 _atom_site_pbe_cm5_charge
 _atom_site_pbe_ddec_charge
 _atom_site_pbe_ddec_spin_density
 _atom_site_pbe_ddec_sum_bond_order
 _atom_site_pbe_magmom
Cu  Cu0  1  0.46689495  0.68833040  0.18282829  1  0.777766  0.619643  1.797928  0.437  0.757637  0.759615  2.177209  0.584  0.848289  0.855269  2.116488  0.682  0.705045  0.70051  0.630579  2.218905  0.478
Cu  Cu1  1  0.53311570  0.31167163  0.81716808  1  0.777922  -0.619643  1.798107  -0.437  0.757764  -0.759627  2.177439  -0.584  0.848391  -0.855267  2.116725  -0.682  0.705159  0.700659  -0.630561  2.219175  -0.478
H  H2  1  0.12939075  0.64470459  0.94823577  1  0.414111  -2.6e-05  0.887497  0.0  0.390386  -4.3e-05  0.940972  0.0  0.400322  -3.8e-05  0.926576  0.0  0.289673  0.383461  -3.9e-05  0.95104  0.0
H  H3  1  0.87061623  0.35529892  0.05176079  1  0.414109  2.4e-05  0.887489  0.0  0.390374  4.3e-05  0.940975  0.0  0.400306  3.8e-05  0.926584  0.0  0.289683  0.383454  3.9e-05  0.951036  0.0
H  H4  1  0.09174826  0.66247636  0.07466682  1  0.399407  -1.8e-05  0.920111  0.0  0.368262  -1.1e-05  0.987078  0.0  0.37948  -2.3e-05  0.970572  0.0  0.280072  0.360301  2e-06  0.998822  0.0
H  H5  1  0.90823876  0.33752517  0.92532561  1  0.399429  1.8e-05  0.920085  0.0  0.368308  1.1e-05  0.987014  0.0  0.379527  2.3e-05  0.970509  0.0  0.280112  0.360349  -2e-06  0.998756  0.0
H  H6  1  0.26442609  0.04434184  0.00171477  1  0.060304  -0.000298  0.95314  -0.001  0.077539  -0.000128  1.017158  0.0  0.07713  -0.000168  1.016519  0.0  0.098858  0.077755  -7.1e-05  1.017719  0.0
H  H7  1  0.73559320  0.95569095  0.99829057  1  0.060296  0.000298  0.953224  0.001  0.077472  0.000128  1.017298  0.0  0.077093  0.000168  1.016627  0.0  0.098807  0.077692  7.1e-05  1.017851  0.0
H  H8  1  0.07909440  0.14981256  0.94764235  1  0.078021  -0.004294  0.937992  -0.006  0.093609  -0.002829  0.999584  -0.004  0.093027  -0.002147  0.999713  -0.003  0.106824  0.093656  -0.002853  0.999592  -0.004
H  H9  1  0.92090920  0.85019385  0.05234562  1  0.078025  0.004289  0.93808  0.006  0.093664  0.002829  0.999583  0.004  0.09308  0.002146  0.999711  0.003  0.106807  0.093704  0.002852  0.999597  0.004
H  H10  1  0.97935927  0.87124869  0.80645653  1  0.094333  0.000328  0.917427  0.0  0.11726  0.000105  0.967697  0.0  0.118051  0.000108  0.96827  0.0  0.103909  0.116615  8e-05  0.967323  0.0
H  H11  1  0.02065663  0.12873132  0.19355975  1  0.094232  -0.000329  0.917624  0.0  0.117225  -0.000106  0.967809  0.0  0.118027  -0.000108  0.968384  0.0  0.103913  0.116569  -8e-05  0.967442  0.0
H  H12  1  0.02865810  0.05117803  0.72108312  1  0.064175  0.000155  0.946632  0.0  0.086294  0.000101  1.004844  0.0  0.085941  7.9e-05  1.006544  0.0  0.090349  0.086556  0.000106  1.003697  0.0
H  H13  1  0.97132194  0.94878580  0.27891201  1  0.06408  -0.000153  0.946616  0.0  0.086153  -0.000101  1.004908  0.0  0.085807  -7.9e-05  1.006612  0.0  0.090301  0.086417  -0.000106  1.003755  0.0
H  H14  1  0.18205088  0.79801283  0.70432447  1  0.054834  -0.0045  0.960389  -0.006  0.069851  -0.003189  1.023764  -0.004  0.06779  -0.002286  1.027093  -0.003  0.096386  0.07088  -0.0034  1.021726  -0.004
H  H15  1  0.81797366  0.20197635  0.29569387  1  0.054938  0.004504  0.960409  0.006  0.069943  0.003189  1.023867  0.004  0.067885  0.002286  1.02719  0.003  0.096442  0.070965  0.003399  1.02183  0.004
H  H16  1  0.36530999  0.89934109  0.86012081  1  0.084724  -0.000115  0.909492  0.0  0.104892  -9.1e-05  0.961447  0.0  0.1046  -6.4e-05  0.96268  0.0  0.114516  0.104667  -0.000102  0.961032  0.0
H  H17  1  0.63472218  0.10067762  0.13989559  1  0.084633  0.000112  0.909422  0.0  0.104806  9.1e-05  0.961439  0.0  0.104517  6.4e-05  0.962666  0.0  0.114472  0.104577  0.000102  0.96103  0.0
H  H18  1  0.15440628  0.11058288  0.57797909  1  0.088089  -6.6e-05  0.974695  0.0  0.106026  4.8e-05  1.043567  0.0  0.105766  6.6e-05  1.044786  0.0  0.098054  0.105827  3e-05  1.043187  0.0
H  H19  1  0.84558277  0.88940214  0.42203455  1  0.088184  6.3e-05  0.974745  0.0  0.106074  -4.7e-05  1.043635  0.0  0.105832  -6.6e-05  1.044831  0.0  0.098093  0.105863  -3e-05  1.043259  0.0
H  H20  1  0.38335059  0.14851907  0.54212243  1  0.109017  -8e-05  0.952202  -0.001  0.128595  9e-06  1.012326  0.0  0.129425  1.8e-05  1.012485  0.0  0.105103  0.127777  -4e-06  1.012399  0.0
H  H21  1  0.61662789  0.85146645  0.45787574  1  0.109076  8.2e-05  0.952134  0.001  0.128616  -9e-06  1.012274  0.0  0.129441  -1.8e-05  1.012425  0.0  0.105128  0.127801  4e-06  1.012334  0.0
H  H22  1  0.20671476  0.92411354  0.52483937  1  0.083039  -0.003722  0.947397  -0.004  0.100599  -0.002785  1.016904  -0.003  0.100605  -0.001998  1.018086  -0.002  0.092959  0.100295  -0.002965  1.016301  -0.003
H  H23  1  0.79326460  0.07587324  0.47516613  1  0.083055  0.003726  0.947452  0.004  0.100663  0.002785  1.016867  0.003  0.100622  0.001997  1.018102  0.002  0.092978  0.100349  0.002965  1.016273  0.003
H  H24  1  0.50032952  0.84844522  0.66596989  1  0.091585  -0.003644  0.937628  -0.004  0.113686  -0.002764  0.998863  -0.003  0.113644  -0.002052  0.999631  -0.002  0.098047  0.11337  -0.002885  0.998616  -0.003
H  H25  1  0.49966574  0.15155726  0.33403580  1  0.091647  0.003649  0.937615  0.004  0.113713  0.002765  0.998875  0.003  0.113673  0.002053  0.999642  0.002  0.098048  0.113392  0.002886  0.99863  0.003
H  H26  1  0.66253923  0.07210810  0.66866983  1  0.095805  -6e-06  0.957739  0.0  0.115806  -2e-06  1.020643  0.0  0.115762  -2e-06  1.022052  0.0  0.101605  0.115643  -4e-06  1.019833  0.0
H  H27  1  0.33746502  0.92789547  0.33133062  1  0.095751  1e-05  0.957834  0.0  0.115781  2e-06  1.020707  0.0  0.115738  2e-06  1.022116  0.0  0.101574  0.115618  4e-06  1.0199  0.0
H  H28  1  0.66720564  0.99127510  0.81526129  1  0.112255  -0.000417  0.958734  -0.001  0.13075  -0.000354  1.021847  -0.001  0.131664  -0.000243  1.021844  0.0  0.107946  0.129691  -0.000392  1.022209  -0.001
H  H29  1  0.33280378  0.00874587  0.18474166  1  0.112282  0.000412  0.958761  0.001  0.130788  0.000354  1.021841  0.001  0.131703  0.000242  1.021836  0.0  0.10797  0.12973  0.000392  1.022201  0.001
H  H30  1  0.76551016  0.54270979  0.29292457  1  0.096443  -0.000593  0.978616  0.0  0.091908  -0.000602  1.066998  0.0  0.096881  -0.000572  1.061186  0.0  0.099154  0.087592  -0.000532  1.072152  0.0
H  H31  1  0.23448155  0.45729829  0.70707347  1  0.096479  0.000587  0.978799  0.0  0.091946  0.000602  1.067151  0.0  0.096933  0.000572  1.061325  0.0  0.099125  0.087623  0.000532  1.072322  0.0
H  H32  1  0.35834239  0.51171425  0.52454519  1  0.106194  9.4e-05  0.950731  0.0  0.115123  7e-05  1.012857  0.0  0.119106  5.7e-05  1.009709  0.0  0.104377  0.112153  7.1e-05  1.015286  0.0
H  H33  1  0.64166410  0.48828108  0.47545989  1  0.106193  -9.7e-05  0.950677  0.0  0.115065  -7e-05  1.012871  0.0  0.119081  -5.7e-05  1.00969  0.0  0.104403  0.112097  -7.2e-05  1.015296  0.0
C  C34  1  0.42058063  0.41865156  0.00808040  1  0.400709  0.000138  3.926356  -0.003  0.371722  -0.000855  4.211155  -0.003  0.401462  0.000433  4.215533  -0.001  0.206546  0.350215  -0.001533  4.209274  -0.004
C  C35  1  0.57940549  0.58134871  0.99190381  1  0.400934  -0.000135  3.926396  0.003  0.371683  0.000855  4.211504  0.003  0.401432  -0.000433  4.215878  0.001  0.206619  0.35018  0.001531  4.20962  0.004
C  C36  1  0.19974508  0.11532944  0.92546508  1  0.048434  -0.001386  3.684975  0.0  -0.002401  -0.001841  3.955552  -0.001  0.006305  -0.00108  3.967739  0.0  -0.073312  -0.008046  -0.002042  3.947011  -0.001
C  C37  1  0.80025615  0.88467162  0.07452490  1  0.048129  0.001382  3.685089  0.0  -0.0026  0.00184  3.955471  0.001  0.0061  0.001079  3.967673  0.0  -0.073312  -0.008236  0.002039  3.946929  0.001
C  C38  1  0.10389234  0.98865548  0.79970449  1  -0.142929  -0.00304  3.680798  -0.004  -0.189487  -0.002446  3.939265  -0.003  -0.192202  -0.001725  3.952904  -0.003  -0.162732  -0.187608  -0.002615  3.929749  -0.003
C  C39  1  0.89611073  0.01132647  0.20029592  1  -0.142591  0.003039  3.680963  0.004  -0.189079  0.002446  3.939339  0.003  -0.19184  0.001725  3.953033  0.003  -0.162701  -0.187197  0.002614  3.92981  0.003
C  C40  1  0.26233196  0.92484053  0.77114394  1  -0.007792  0.001706  3.594934  0.004  -0.054776  -0.000121  3.845015  0.002  -0.050018  0.000563  3.859925  0.002  -0.070801  -0.057564  -0.000637  3.835297  0.001
C  C41  1  0.73768949  0.07515828  0.22886875  1  -0.007726  -0.001707  3.594826  -0.004  -0.054944  0.000122  3.845324  -0.002  -0.050174  -0.000564  3.860244  -0.002  -0.070811  -0.05772  0.000637  3.835604  -0.001
C  C42  1  0.27796069  0.05889676  0.58186245  1  -0.193286  0.00205  3.650994  0.004  -0.28785  9.8e-05  3.905526  0.002  -0.284377  0.000653  3.917084  0.002  -0.153736  -0.289655  -0.000318  3.898401  0.001
C  C43  1  0.72202703  0.94109244  0.41814305  1  -0.193589  -0.00205  3.65114  -0.004  -0.288075  -9.8e-05  3.905651  -0.002  -0.284572  -0.000654  3.917209  -0.002  -0.153847  -0.289862  0.000318  3.898532  -0.001
C  C44  1  0.56792702  0.98668916  0.71640811  1  -0.187193  0.001493  3.629236  0.004  -0.283302  -0.000499  3.883826  0.002  -0.280164  0.00015  3.896402  0.002  -0.150354  -0.284881  -0.000909  3.87599  0.001
C  C45  1  0.43207850  0.01331706  0.28359357  1  -0.187335  -0.001495  3.629358  -0.004  -0.283422  0.0005  3.883899  -0.002  -0.280289  -0.000149  3.896481  -0.002  -0.15033  -0.284997  0.000909  3.876072  -0.001
C  C46  1  0.13718112  0.56563980  0.28610312  1  0.642161  -0.002133  3.890551  -0.004  0.595017  0.000204  4.18258  -0.002  0.632074  -0.000149  4.173496  -0.002  0.213058  0.570014  0.00045  4.188176  -0.001
C  C47  1  0.86282443  0.43436641  0.71389946  1  0.64226  0.00213  3.890468  0.004  0.595079  -0.000205  4.182594  0.002  0.632139  0.00015  4.173501  0.002  0.213028  0.570082  -0.000449  4.188177  0.001
C  C48  1  0.06901881  0.53161432  0.39787601  1  -0.066854  0.006864  3.764515  0.007  -0.0461  0.004107  3.996992  0.004  -0.051495  0.003326  4.016646  0.004  -0.019509  -0.042628  0.004194  3.98361  0.004
C  C49  1  0.93097732  0.46839092  0.60212017  1  -0.066849  -0.006861  3.764612  -0.007  -0.046053  -0.004106  3.997027  -0.004  -0.051435  -0.003325  4.016671  -0.004  -0.019483  -0.042583  -0.004194  3.983641  -0.004
C  C50  1  0.86719563  0.52485774  0.38454957  1  -0.083691  -0.000782  3.748106  -0.001  -0.10565  0.000106  4.008196  0.0  -0.106211  -0.000219  4.025836  0.0  -0.087092  -0.105083  0.000311  3.996941  0.0
C  C51  1  0.13281537  0.47515366  0.61545696  1  -0.083882  0.000789  3.748082  0.001  -0.105814  -0.000106  4.008121  0.0  -0.106384  0.000218  4.025728  0.0  -0.087122  -0.10525  -0.000311  3.996881  0.0
C  C52  1  0.20169832  0.50671375  0.51410460  1  -0.080902  -0.002377  3.736767  -0.002  -0.102855  -0.000924  3.984225  -0.001  -0.102874  -0.000852  4.002351  -0.001  -0.086231  -0.102605  -0.000909  3.971898  -0.001
C  C53  1  0.79831877  0.49329886  0.48589520  1  -0.08093  0.002377  3.737103  0.002  -0.102843  0.000924  3.984579  0.001  -0.102893  0.000852  4.00269  0.001  -0.086308  -0.10259  0.000908  3.972245  0.001
N  N54  1  0.36275147  0.27735415  0.92360706  1  -0.453372  -0.08003  3.241639  -0.098  -0.424051  -0.05768  3.569794  -0.074  -0.467167  -0.051211  3.589275  -0.069  -0.407755  -0.394833  -0.052078  3.556833  -0.065
N  N55  1  0.63723443  0.72263671  0.07637057  1  -0.453102  0.080028  3.241515  0.098  -0.423804  0.05768  3.569819  0.074  -0.466913  0.051207  3.589274  0.069  -0.407624  -0.394585  0.052075  3.556809  0.065
N  N56  1  0.39898641  0.05163231  0.71544646  1  -0.119057  -0.086114  3.277934  -0.107  -0.039052  -0.064383  3.547874  -0.086  -0.069018  -0.054001  3.577294  -0.076  -0.354844  -0.021667  -0.061868  3.529933  -0.08
N  N57  1  0.60101800  0.94837121  0.28455846  1  -0.118896  0.086113  3.277747  0.107  -0.038863  0.064389  3.547726  0.086  -0.068825  0.054006  3.577139  0.076  -0.354847  -0.021494  0.061867  3.529777  0.08
O  O58  1  0.35506404  0.42975007  0.09942638  1  -0.507988  0.07276  2.022914  0.094  -0.48827  0.057575  2.283831  0.081  -0.530384  0.04803  2.280513  0.071  -0.311865  -0.457101  0.054525  2.285046  0.074
O  O59  1  0.64491263  0.57023977  0.90055023  1  -0.508146  -0.072759  2.022911  -0.094  -0.488378  -0.057567  2.283998  -0.081  -0.530491  -0.048029  2.280671  -0.071  -0.311973  -0.457202  -0.054522  2.28522  -0.074
O  O60  1  0.33511451  0.61477691  0.31101076  1  -0.603511  0.051952  2.096829  0.068  -0.561017  0.039497  2.372725  0.056  -0.598164  0.032767  2.360364  0.049  -0.328082  -0.536385  0.039008  2.381263  0.053
O  O61  1  0.66487819  0.38521495  0.68897985  1  -0.603535  -0.051963  2.096781  -0.068  -0.561045  -0.039499  2.372729  -0.056  -0.598194  -0.032771  2.360368  -0.049  -0.327976  -0.53641  -0.039014  2.381288  -0.053
O  O62  1  0.99742311  0.54927032  0.17778641  1  -0.617262  -0.000182  2.026121  0.0  -0.550382  -4.8e-05  2.236103  0.0  -0.575112  -0.000388  2.226842  0.0  -0.303937  -0.533796  0.000232  2.242455  0.001
O  O63  1  0.00256783  0.45074860  0.82221360  1  -0.617268  0.000191  2.026214  0.0  -0.550459  4.9e-05  2.236313  0.0  -0.575192  0.000388  2.227038  0.0  -0.30403  -0.533876  -0.000231  2.242664  -0.001
O  O64  1  0.17757966  0.72992716  0.02675163  1  -0.837673  -0.000807  1.872217  0.0  -0.799763  -0.000686  2.062227  0.0  -0.820129  -0.000957  2.0298  -0.001  -0.602257  -0.785124  -0.000324  2.084653  0.0
O  O65  1  0.82241626  0.27007398  0.97324971  1  -0.837697  0.000814  1.872269  0.0  -0.799748  0.000686  2.062211  0.0  -0.820132  0.000956  2.029833  0.001  -0.602271  -0.785122  0.000325  2.084655  0.0
