# generated using pymatgen
data_CdH6C9IN3O2
_symmetry_space_group_name_H-M   'P 1'
_cell_length_a   7.68142760
_cell_length_b   7.81509738
_cell_length_c   18.31929083
_cell_angle_alpha   89.99990163
_cell_angle_beta   90.00042449
_cell_angle_gamma   103.79494497
_symmetry_Int_Tables_number   1
_chemical_formula_structural   CdH6C9IN3O2
_chemical_formula_sum   'Cd4 H24 C36 I4 N12 O8'
_cell_volume   1068.00598692
_cell_formula_units_Z   4
loop_
 _symmetry_equiv_pos_site_id
 _symmetry_equiv_pos_as_xyz
  1  'x, y, z'
loop_
 _atom_site_type_symbol
 _atom_site_label
 _atom_site_symmetry_multiplicity
 _atom_site_fract_x
 _atom_site_fract_y
 _atom_site_fract_z
 _atom_site_occupancy
 _atom_site_hle17_bader_spin_density
 _atom_site_hle17_ddec_charge
 _atom_site_hle17_ddec_spin_density
 _atom_site_hle17_ddec_sum_bond_order
 _atom_site_hle17_magmom
 _atom_site_hse06_10hf_bader_charge
 _atom_site_hse06_10hf_bader_spin_density
 _atom_site_hse06_10hf_ddec_charge
 _atom_site_hse06_10hf_ddec_spin_density
 _atom_site_hse06_10hf_ddec_sum_bond_order
 _atom_site_hse06_10hf_magmom
 _atom_site_hse06_bader_spin_density
 _atom_site_hse06_ddec_charge
 _atom_site_hse06_ddec_spin_density
 _atom_site_hse06_ddec_sum_bond_order
 _atom_site_hse06_magmom
 _atom_site_pbe_bader_spin_density
 _atom_site_pbe_cm5_charge
 _atom_site_pbe_ddec_charge
 _atom_site_pbe_ddec_spin_density
 _atom_site_pbe_ddec_sum_bond_order
 _atom_site_pbe_magmom
Cd  Cd0  1  0.63340305  0.97374455  0.78103469  1  0  1.002561  0  1.808155  0  1.184572  0  0.824494  0  2.260608  0  0  0.881643  0  2.212355  0  0  0.667677  0.784231  0  2.293236  0
Cd  Cd1  1  0.36659316  0.52625571  0.28103637  1  0  1.002596  0  1.808141  0  1.184623  0  0.82452  0  2.260607  0  0  0.881667  0  2.212353  0  0  0.667681  0.784255  0  2.293238  0
Cd  Cd2  1  0.36659529  0.02625556  0.21896646  1  0  1.002543  0  1.808172  0  1.184589  0  0.824477  0  2.260636  0  0  0.881626  0  2.212382  0  0  0.667655  0.784215  0  2.293265  0
Cd  Cd3  1  0.63340650  0.47374442  0.71896260  1  0  1.002621  0  1.80812  0  1.184672  0  0.824547  0  2.260581  0  0  0.881694  0  2.212328  0  0  0.667675  0.784277  0  2.293218  0
H  H4  1  0.53408270  0.36656914  0.88888718  1  0  0.090573  0  0.980407  0  0.118275  0  0.094993  0  1.057908  0  0  0.09856  0  1.054969  0  0  0.088185  0.092391  0  1.060106  0
H  H5  1  0.46591494  0.13342813  0.38888910  1  0  0.090558  0  0.980427  0  0.118365  0  0.095023  0  1.057883  0  0  0.09859  0  1.054944  0  0  0.088201  0.092421  0  1.060082  0
H  H6  1  0.46591795  0.63342968  0.11111288  1  0  0.090624  0  0.980388  0  0.118272  0  0.095009  0  1.057923  0  0  0.098577  0  1.054982  0  0  0.088208  0.092408  0  1.060122  0
H  H7  1  0.53408049  0.86657063  0.61111042  1  0  0.090543  0  0.980445  0  0.118346  0  0.095001  0  1.057904  0  0  0.098568  0  1.054964  0  0  0.088189  0.092397  0  1.060103  0
H  H8  1  0.57249433  0.15606289  0.98558157  1  0  0.101212  0  0.93852  0  0.097127  0  0.11106  0  0.998706  0  0  0.114386  0  0.996862  0  0  0.103381  0.108646  0  1.000165  0
H  H9  1  0.42750462  0.34393832  0.48558157  1  0  0.101218  0  0.938535  0  0.097125  0  0.111078  0  0.998703  0  0  0.114403  0  0.996859  0  0  0.103391  0.108662  0  1.000163  0
H  H10  1  0.42750924  0.84393729  0.01441850  1  0  0.101239  0  0.938524  0  0.097155  0  0.111097  0  0.998689  0  0  0.114421  0  0.996847  0  0  0.103393  0.108683  0  1.000148  0
H  H11  1  0.57249242  0.65606177  0.51441795  1  0  0.101216  0  0.938529  0  0.097142  0  0.11107  0  0.9987  0  0  0.114393  0  0.996858  0  0  0.103383  0.108655  0  1.000159  0
H  H12  1  0.75939349  0.25766852  0.09350689  1  0  0.095817  0  1.012314  0  0.127867  0  0.103162  0  1.083179  0  0  0.106931  0  1.080543  0  0  0.084862  0.100436  0  1.085123  0
H  H13  1  0.24060539  0.24233407  0.59350743  1  0  0.095824  0  1.012302  0  0.127817  0  0.103119  0  1.083237  0  0  0.106887  0  1.080598  0  0  0.084854  0.100394  0  1.08518  0
H  H14  1  0.24061007  0.74233166  0.90649262  1  0  0.095781  0  1.012353  0  0.127858  0  0.103146  0  1.0832  0  0  0.106915  0  1.080565  0  0  0.084854  0.100421  0  1.085145  0
H  H15  1  0.75939396  0.75766474  0.40649317  1  0  0.095865  0  1.012269  0  0.127824  0  0.103148  0  1.083211  0  0  0.106915  0  1.080571  0  0  0.084867  0.100424  0  1.085154  0
H  H16  1  0.87763549  0.78980830  0.00652426  1  0  0.114532  0  0.953107  0  0.083392  0  0.124121  0  1.015653  0  0  0.128238  0  1.012026  0  0  0.10835  0.121126  0  1.018387  0
H  H17  1  0.12236533  0.71019338  0.50652773  1  0  0.114514  0  0.953099  0  0.083586  0  0.124125  0  1.015623  0  0  0.128242  0  1.011994  0  0  0.108368  0.121129  0  1.018357  0
H  H18  1  0.12236285  0.21019181  0.99347525  1  0  0.114495  0  0.953112  0  0.083569  0  0.124112  0  1.015638  0  0  0.12823  0  1.012009  0  0  0.108356  0.121117  0  1.01837  0
H  H19  1  0.87763633  0.28980415  0.49347452  1  0  0.114508  0  0.953158  0  0.083581  0  0.124131  0  1.015668  0  0  0.12825  0  1.012037  0  0  0.108359  0.121136  0  1.018402  0
H  H20  1  0.03516875  0.87531941  0.09805430  1  0  0.126594  0  0.942928  0  0.216435  0  0.134913  0  1.003132  0  0  0.13828  0  0.998386  0  0  0.143174  0.132339  0  1.006754  0
H  H21  1  0.96483067  0.62468617  0.59805445  1  0  0.126648  0  0.942947  0  0.216485  0  0.134974  0  1.003141  0  0  0.138341  0  0.998393  0  0  0.14319  0.132399  0  1.006764  0
H  H22  1  0.96483120  0.12468203  0.90194576  1  0  0.126609  0  0.942933  0  0.216434  0  0.13493  0  1.003134  0  0  0.138296  0  0.998388  0  0  0.143181  0.132355  0  1.006757  0
H  H23  1  0.03516637  0.37531392  0.40194616  1  0  0.126605  0  0.942967  0  0.216485  0  0.134925  0  1.003174  0  0  0.138292  0  0.998427  0  0  0.143171  0.13235  0  1.006796  0
H  H24  1  0.96648223  0.35031914  0.17477507  1  0  0.116769  0  0.927251  0  0.192039  0  0.123108  0  0.994296  0  0  0.12654  0  0.989635  0  0  0.138031  0.120537  0  0.997722  0
H  H25  1  0.03352069  0.14968349  0.67477776  1  0  0.116795  0  0.927267  0  0.191991  0  0.123083  0  0.99436  0  0  0.126518  0  0.989696  0  0  0.138022  0.12051  0  0.997789  0
H  H26  1  0.03352073  0.64967841  0.82522281  1  0  0.116803  0  0.927247  0  0.192045  0  0.123139  0  0.994289  0  0  0.126574  0  0.989625  0  0  0.138058  0.120567  0  0.997717  0
H  H27  1  0.96647795  0.85031794  0.32522340  1  0  0.116793  0  0.927268  0  0.192006  0  0.123096  0  0.994341  0  0  0.126532  0  0.989676  0  0  0.138033  0.120524  0  0.997769  0
C  C28  1  0.68637709  0.72361775  0.88561970  1  0  0.639085  0  3.910148  0  1.580969  0  0.587989  0  4.197544  0  0  0.622954  0  4.192036  0  0  0.19201  0.564311  0  4.2003  0
C  C29  1  0.31361774  0.77637985  0.38562321  1  0  0.63907  0  3.91023  0  1.581339  0  0.588002  0  4.197625  0  0  0.622968  0  4.192116  0  0  0.192022  0.564327  0  4.200384  0
C  C30  1  0.31362226  0.27638106  0.11437982  1  0  0.639014  0  3.910148  0  1.580968  0  0.587924  0  4.197544  0  0  0.62289  0  4.192037  0  0  0.191982  0.564248  0  4.200299  0
C  C31  1  0.68638060  0.22362026  0.61437739  1  0  0.639048  0  3.910212  0  1.581294  0  0.587978  0  4.197629  0  0  0.622944  0  4.192119  0  0  0.19195  0.564302  0  4.200387  0
C  C32  1  0.70578523  0.59123301  0.94239981  1  0  -0.059738  0  3.776689  0  0.005436  0  -0.027895  0  4.000892  0  0  -0.036078  0  4.02521  0  0  -0.01945  -0.022595  0  3.9846  0
C  C33  1  0.29421412  0.90876857  0.44240372  1  0  -0.059653  0  3.776772  0  0.005361  0  -0.02789  0  4.001102  0  0  -0.036073  0  4.025422  0  0  -0.019414  -0.022596  0  3.984817  0
C  C34  1  0.29421542  0.40876582  0.05760025  1  0  -0.059765  0  3.776776  0  0.005424  0  -0.027927  0  4.000995  0  0  -0.036113  0  4.025318  0  0  -0.019468  -0.022629  0  3.984705  0
C  C35  1  0.70578362  0.09122890  0.55759689  1  0  -0.059628  0  3.776667  0  0.005401  0  -0.027888  0  4.001018  0  0  -0.03607  0  4.025339  0  0  -0.019417  -0.022592  0  3.98473  0
C  C36  1  0.61942306  0.41281694  0.93582525  1  0  -0.063116  0  3.7227  0  -0.056409  0  -0.093478  0  3.972572  0  0  -0.093951  0  3.99495  0  0  -0.087017  -0.092983  0  3.957459  0
C  C37  1  0.38057250  0.08717898  0.43582693  1  0  -0.063162  0  3.722955  0  -0.056891  0  -0.093552  0  3.97287  0  0  -0.094026  0  3.995251  0  0  -0.087087  -0.09306  0  3.957764  0
C  C38  1  0.38057759  0.58718188  0.06417481  1  0  -0.063139  0  3.722757  0  -0.056394  0  -0.093467  0  3.97262  0  0  -0.093939  0  3.994998  0  0  -0.087022  -0.092975  0  3.957512  0
C  C39  1  0.61942424  0.91281980  0.56417313  1  0  -0.063156  0  3.72286  0  -0.056453  0  -0.093512  0  3.972753  0  0  -0.093984  0  3.99513  0  0  -0.087072  -0.093019  0  3.957644  0
C  C40  1  0.64051117  0.29485988  0.99029687  1  0  -0.043894  0  3.732643  0  0.021915  0  -0.054033  0  3.985147  0  0  -0.056693  0  4.0064  0  0  -0.084353  -0.05224  0  3.970737  0
C  C41  1  0.35948756  0.20514001  0.49029730  1  0  -0.04393  0  3.732724  0  0.022396  0  -0.054073  0  3.985241  0  0  -0.056733  0  4.006493  0  0  -0.084364  -0.052281  0  3.970835  0
C  C42  1  0.35949079  0.70513896  0.00970265  1  0  -0.044009  0  3.732702  0  0.021829  0  -0.054159  0  3.985224  0  0  -0.05682  0  4.006477  0  0  -0.084402  -0.052365  0  3.970815  0
C  C43  1  0.64051209  0.79486011  0.50970330  1  0  -0.043972  0  3.732751  0  0.02181  0  -0.054116  0  3.985266  0  0  -0.056775  0  4.006516  0  0  -0.084386  -0.052324  0  3.97086  0
C  C44  1  0.74701220  0.35253251  0.05126831  1  0  -0.123494  0  3.694036  0  -0.10954  0  -0.148127  0  3.944364  0  0  -0.150887  0  3.963883  0  0  -0.088431  -0.146115  0  3.931194  0
C  C45  1  0.25298755  0.14747141  0.55126950  1  0  -0.123366  0  3.693827  0  -0.109545  0  -0.147996  0  3.94414  0  0  -0.150747  0  3.963649  0  0  -0.088375  -0.14598  0  3.930954  0
C  C46  1  0.25299006  0.64746765  0.94873066  1  0  -0.123377  0  3.693988  0  -0.109604  0  -0.148047  0  3.944278  0  0  -0.150805  0  3.963791  0  0  -0.088385  -0.146025  0  3.931101  0
C  C47  1  0.74701210  0.85252871  0.44873111  1  0  -0.123371  0  3.693817  0  -0.109539  0  -0.147977  0  3.944142  0  0  -0.150728  0  3.963651  0  0  -0.088374  -0.145962  0  3.930957  0
C  C48  1  0.83373027  0.53074690  0.05722112  1  0  0.18283  0  3.760253  0  0.248982  0  0.176925  0  4.01004  0  0  0.18171  0  4.032376  0  0  0.094267  0.173655  0  3.995022  0
C  C49  1  0.16626822  0.96925211  0.55722126  1  0  0.18257  0  3.76032  0  0.24892  0  0.176785  0  4.009973  0  0  0.181569  0  4.032312  0  0  0.094201  0.173516  0  3.994956  0
C  C50  1  0.16627069  0.46925324  0.94277785  1  0  0.18277  0  3.760334  0  0.249084  0  0.176944  0  4.010028  0  0  0.181729  0  4.032362  0  0  0.094238  0.173659  0  3.995031  0
C  C51  1  0.83372982  0.03074669  0.44277880  1  0  0.182571  0  3.760323  0  0.248952  0  0.176743  0  4.010026  0  0  0.181526  0  4.032365  0  0  0.094174  0.173472  0  3.99501  0
C  C52  1  0.81282099  0.65023396  0.00343403  1  0  -0.148504  0  3.709671  0  0.038526  0  -0.184691  0  3.96368  0  0  -0.186723  0  3.983227  0  0  -0.084993  -0.1832  0  3.950581  0
C  C53  1  0.18717917  0.84976508  0.50343650  1  0  -0.148462  0  3.709663  0  0.038296  0  -0.184695  0  3.963717  0  0  -0.186731  0  3.983265  0  0  -0.085033  -0.183206  0  3.950622  0
C  C54  1  0.18717997  0.34976618  0.99656604  1  0  -0.148407  0  3.709631  0  0.038363  0  -0.18465  0  3.963627  0  0  -0.186683  0  3.983177  0  0  -0.084986  -0.183153  0  3.950534  0
C  C55  1  0.81282279  0.15023376  0.49656465  1  0  -0.148437  0  3.709671  0  0.038318  0  -0.18466  0  3.963728  0  0  -0.186696  0  3.983277  0  0  -0.084997  -0.183171  0  3.950634  0
C  C56  1  0.04588748  0.76048987  0.12904464  1  0  0.185618  0  3.614447  0  1.018883  0  0.122632  0  3.882969  0  0  0.13744  0  3.893259  0  0  0.164254  0.112881  0  3.87606  0
C  C57  1  0.95411479  0.73951443  0.62904468  1  0  0.185541  0  3.614503  0  1.018865  0  0.122532  0  3.883051  0  0  0.137338  0  3.893349  0  0  0.164219  0.112779  0  3.876143  0
C  C58  1  0.95411347  0.23951028  0.87095597  1  0  0.185653  0  3.614395  0  1.018755  0  0.122651  0  3.882938  0  0  0.13746  0  3.893227  0  0  0.164262  0.112899  0  3.876028  0
C  C59  1  0.04588516  0.26048701  0.37095593  1  0  0.18565  0  3.614476  0  1.018872  0  0.122644  0  3.883012  0  0  0.137454  0  3.893303  0  0  0.164251  0.112892  0  3.876103  0
C  C60  1  0.01403618  0.49189513  0.16835680  1  0  0.191145  0  3.604078  0  1.023325  0  0.126207  0  3.878858  0  0  0.141272  0  3.888597  0  0  0.166544  0.1163  0  3.872327  0
C  C61  1  0.98596593  0.00811012  0.66835819  1  0  0.191197  0  3.603933  0  1.023244  0  0.126306  0  3.878715  0  0  0.141369  0  3.888447  0  0  0.16663  0.116396  0  3.872187  0
C  C62  1  0.98596478  0.50810502  0.83164217  1  0  0.191185  0  3.60416  0  1.023292  0  0.126231  0  3.878962  0  0  0.141292  0  3.888698  0  0  0.166543  0.116323  0  3.872432  0
C  C63  1  0.01403402  0.99189132  0.33164241  1  0  0.191196  0  3.60401  0  1.02324  0  0.126303  0  3.878797  0  0  0.141366  0  3.888531  0  0  0.166585  0.116394  0  3.872268  0
I  I64  1  0.30374962  0.03639932  0.81674987  1  0  -0.502541  0  1.004462  0  -0.524442  0  -0.456644  0  1.325508  0  0  -0.478042  0  1.301534  0  0  -0.234842  -0.441282  0  1.34172  0
I  I65  1  0.69624867  0.46360060  0.31675117  1  0  -0.502542  0  1.004431  0  -0.524437  0  -0.456641  0  1.325497  0  0  -0.478037  0  1.301521  0  0  -0.234841  -0.441271  0  1.341701  0
I  I66  1  0.69625003  0.96360080  0.18325019  1  0  -0.502542  0  1.00444  0  -0.524439  0  -0.456634  0  1.325475  0  0  -0.478033  0  1.3015  0  0  -0.234841  -0.441271  0  1.341687  0
I  I67  1  0.30375793  0.53641276  0.68324725  1  0  -0.502541  0  1.004444  0  -0.524481  0  -0.45665  0  1.325522  0  0  -0.478045  0  1.301546  0  0  -0.234839  -0.441272  0  1.341711  0
N  N68  1  0.15762539  0.76487797  0.18377619  1  0  -0.247819  0  3.168811  0  -0.784004  0  -0.189134  0  3.452065  0  0  -0.206116  0  3.471481  0  0  -0.23945  -0.177692  0  3.438822  0
N  N69  1  0.84237494  0.73512498  0.68377752  1  0  -0.247912  0  3.168888  0  -0.783916  0  -0.189212  0  3.452143  0  0  -0.206197  0  3.471557  0  0  -0.239502  -0.177771  0  3.438902  0
N  N70  1  0.84237557  0.23512217  0.81622278  1  0  -0.247785  0  3.168672  0  -0.783861  0  -0.189107  0  3.451927  0  0  -0.20609  0  3.471341  0  0  -0.239446  -0.177665  0  3.438683  0
N  N71  1  0.15762371  0.26487645  0.31622309  1  0  -0.247876  0  3.168736  0  -0.783955  0  -0.189167  0  3.451992  0  0  -0.206151  0  3.471406  0  0  -0.23946  -0.177726  0  3.438751  0
N  N72  1  0.13884920  0.59554673  0.20844966  1  0  -0.249275  0  3.152626  0  -0.768277  0  -0.192435  0  3.44078  0  0  -0.208921  0  3.458947  0  0  -0.240128  -0.181369  0  3.428434  0
N  N73  1  0.86115187  0.90445754  0.70845038  1  0  -0.249301  0  3.152641  0  -0.76827  0  -0.192471  0  3.44079  0  0  -0.208956  0  3.458957  0  0  -0.240155  -0.181406  0  3.428446  0
N  N74  1  0.86115437  0.40445345  0.79154985  1  0  -0.249323  0  3.152625  0  -0.768275  0  -0.192456  0  3.440756  0  0  -0.208941  0  3.458922  0  0  -0.240143  -0.181391  0  3.428409  0
N  N75  1  0.13884548  0.09554387  0.29154968  1  0  -0.249283  0  3.152692  0  -0.768233  0  -0.192476  0  3.440862  0  0  -0.208961  0  3.459029  0  0  -0.240118  -0.181411  0  3.428518  0
N  N76  1  0.95277233  0.59064242  0.11686442  1  0  -0.113315  0  3.547379  0  -1.304332  0  -0.02218  0  3.75954  0  0  -0.039157  0  3.782369  0  0  -0.205316  -0.0111  0  3.74412  0
N  N77  1  0.04722942  0.90936056  0.61686533  1  0  -0.113214  0  3.547296  0  -1.304281  0  -0.02209  0  3.759406  0  0  -0.039069  0  3.782239  0  0  -0.205289  -0.01101  0  3.743985  0
N  N78  1  0.04722862  0.40935772  0.88313509  1  0  -0.113421  0  3.547542  0  -1.304331  0  -0.022293  0  3.759683  0  0  -0.039271  0  3.782513  0  0  -0.205323  -0.011209  0  3.744267  0
N  N79  1  0.95277053  0.09064088  0.38313473  1  0  -0.11331  0  3.547347  0  -1.30428  0  -0.022175  0  3.759477  0  0  -0.039154  0  3.782311  0  0  -0.205308  -0.011094  0  3.744055  0
O  O80  1  0.74416890  0.88604401  0.89993415  1  0  -0.62325  0  1.955726  0  -1.199838  0  -0.566042  0  2.192992  0  0  -0.593587  0  2.184443  0  0  -0.327544  -0.546635  0  2.198068  0
O  O81  1  0.25582718  0.61395229  0.39993706  1  0  -0.623258  0  1.955771  0  -1.199903  0  -0.566054  0  2.193033  0  0  -0.593599  0  2.184482  0  0  -0.327548  -0.546648  0  2.198107  0
O  O82  1  0.25583014  0.11395348  0.10006482  1  0  -0.623224  0  1.955648  0  -1.199876  0  -0.566024  0  2.192921  0  0  -0.593568  0  2.184372  0  0  -0.327543  -0.546616  0  2.197994  0
O  O83  1  0.74417347  0.38604654  0.60006355  1  0  -0.623233  0  1.9558  0  -1.19987  0  -0.566038  0  2.193069  0  0  -0.593582  0  2.18452  0  0  -0.327511  -0.546633  0  2.198145  0
O  O84  1  0.61080087  0.66992085  0.82447204  1  0  -0.671788  0  2.08202  0  -1.210991  0  -0.594939  0  2.34265  0  0  -0.62779  0  2.333735  0  0  -0.339196  -0.57164  0  2.347525  0
O  O85  1  0.38919388  0.83007544  0.32447466  1  0  -0.671779  0  2.082043  0  -1.211071  0  -0.594928  0  2.34267  0  0  -0.627783  0  2.333757  0  0  -0.339196  -0.571615  0  2.347505  0
O  O86  1  0.38919817  0.33007665  0.17552803  1  0  -0.671729  0  2.082026  0  -1.210955  0  -0.594878  0  2.342652  0  0  -0.627733  0  2.33374  0  0  -0.339173  -0.571578  0  2.347525  0
O  O87  1  0.61080185  0.16992463  0.67552540  1  0  -0.671757  0  2.081985  0  -1.211045  0  -0.594897  0  2.3426  0  0  -0.627754  0  2.33369  0  0  -0.339142  -0.571581  0  2.347427  0
