# generated using pymatgen
data_AgH8C5BrN2
_symmetry_space_group_name_H-M   'P 1'
_cell_length_a   7.43200681
_cell_length_b   10.39553599
_cell_length_c   10.39547760
_cell_angle_alpha   87.85846283
_cell_angle_beta   76.33203775
_cell_angle_gamma   76.33396021
_symmetry_Int_Tables_number   1
_chemical_formula_structural   AgH8C5BrN2
_chemical_formula_sum   'Ag4 H32 C20 Br4 N8'
_cell_volume   758.16849985
_cell_formula_units_Z   4
loop_
 _symmetry_equiv_pos_site_id
 _symmetry_equiv_pos_as_xyz
  1  'x, y, z'
loop_
 _atom_site_type_symbol
 _atom_site_label
 _atom_site_symmetry_multiplicity
 _atom_site_fract_x
 _atom_site_fract_y
 _atom_site_fract_z
 _atom_site_occupancy
 _atom_site_pbe_bader_charge
 _atom_site_pbe_bader_spin_density
 _atom_site_pbe_cm5_charge
 _atom_site_pbe_ddec_charge
 _atom_site_pbe_ddec_spin_density
 _atom_site_pbe_ddec_sum_bond_order
 _atom_site_pbe_magmom
Ag  Ag0  1  0.89003930  0.62834548  0.47089419  1  0.426344  0  0.263719  0.239611  0  2.34773  0
Ag  Ag1  1  0.60995147  0.52909752  0.37163767  1  0.42734  0  0.263752  0.239707  0  2.347441  0
Ag  Ag2  1  0.10996801  0.37165184  0.52911410  1  0.426464  0  0.263732  0.239649  0  2.347612  0
Ag  Ag3  1  0.39005829  0.47090470  0.62835940  1  0.427222  0  0.263743  0.23973  0  2.347422  0
H  H4  1  0.26051271  0.77763165  0.40382873  1  0.180183  0  0.116665  0.091806  0  1.057042  0
H  H5  1  0.23946526  0.59618197  0.22237246  1  0.180313  0  0.116604  0.091719  0  1.05719  0
H  H6  1  0.73948738  0.22237059  0.59617481  1  0.180294  0  0.11665  0.091765  0  1.057045  0
H  H7  1  0.76053935  0.40382323  0.77762729  1  0.180062  0  0.116611  0.091709  0  1.05737  0
H  H8  1  0.91433242  0.12892325  0.29454097  1  0.149612  0  0.112557  0.122386  0  1.035072  0
H  H9  1  0.58565347  0.70545203  0.87105978  1  0.149435  0  0.112575  0.122433  0  1.035128  0
H  H10  1  0.08565575  0.87106906  0.70545927  1  0.149484  0  0.112591  0.122443  0  1.035032  0
H  H11  1  0.41436357  0.29454922  0.12894090  1  0.14947  0  0.112511  0.122365  0  1.035232  0
H  H12  1  0.70597838  0.93421297  0.35040551  1  0.107433  0  0.110125  0.106392  0  1.028199  0
H  H13  1  0.79401315  0.64957742  0.06575924  1  0.10761  0  0.110186  0.106425  0  1.028092  0
H  H14  1  0.29401936  0.06577141  0.64959152  1  0.107457  0  0.110105  0.106386  0  1.02814  0
H  H15  1  0.20599558  0.35042385  0.93424478  1  0.107441  0  0.110208  0.106462  0  1.028167  0
H  H16  1  0.37785356  0.99171044  0.39054536  1  0.065246  0  0.103953  0.080182  0  0.999128  0
H  H17  1  0.12212154  0.60946003  0.00829899  1  0.065236  0  0.103948  0.080156  0  0.999138  0
H  H18  1  0.62213381  0.00830069  0.60945516  1  0.065225  0  0.103975  0.080147  0  0.999078  0
H  H19  1  0.87789408  0.39054116  0.99169328  1  0.065111  0  0.103974  0.080129  0  0.999125  0
H  H20  1  0.24088629  0.13740714  0.33712127  1  0.060632  0  0.095034  0.081827  0  1.024261  0
H  H21  1  0.25909245  0.66287940  0.86259403  1  0.060612  0  0.09499  0.081762  0  1.024321  0
H  H22  1  0.75909819  0.86259603  0.66287336  1  0.060655  0  0.09502  0.081818  0  1.024216  0
H  H23  1  0.74091952  0.33713271  0.13740223  1  0.060646  0  0.095004  0.081747  0  1.024311  0
H  H24  1  0.48006806  0.89757557  0.15618183  1  0.06512  0  0.085332  0.120597  0  1.042139  0
H  H25  1  0.01991301  0.84382256  0.10242497  1  0.06514  0  0.085318  0.120567  0  1.042237  0
H  H26  1  0.51992333  0.10242370  0.84382140  1  0.065082  0  0.085329  0.12058  0  1.042172  0
H  H27  1  0.98008775  0.15617772  0.89758046  1  0.065158  0  0.085357  0.120622  0  1.042217  0
H  H28  1  0.54191143  0.05167968  0.16465881  1  0.024406  0  0.087775  0.12044  0  1.024016  0
H  H29  1  0.95807518  0.83534054  0.94831839  1  0.025287  0  0.087832  0.120505  0  1.023944  0
H  H30  1  0.45807584  0.94832351  0.83533918  1  0.024864  0  0.087809  0.120467  0  1.024167  0
H  H31  1  0.04192041  0.16466268  0.05168395  1  0.025301  0  0.087823  0.120471  0  1.024156  0
H  H32  1  0.34206242  0.04458921  0.10205616  1  0.027332  0  0.087047  0.120663  0  1.019582  0
H  H33  1  0.15792949  0.89794173  0.95540673  1  0.027476  0  0.087039  0.120691  0  1.019618  0
H  H34  1  0.65792717  0.95540703  0.89793982  1  0.027421  0  0.087059  0.120677  0  1.019626  0
H  H35  1  0.84206754  0.10206547  0.04459807  1  0.027629  0  0.087047  0.120688  0  1.019589  0
C  C36  1  0.13738394  0.84302827  0.37823782  1  0.933208  0  0.13013  0.082591  0  3.928573  0
C  C37  1  0.36259320  0.62177175  0.15697132  1  0.933135  0  0.13028  0.082698  0  3.928501  0
C  C38  1  0.86260988  0.15697198  0.62176495  1  0.933243  0  0.13019  0.08268  0  3.928434  0
C  C39  1  0.63741524  0.37823442  0.84302677  1  0.933193  0  0.130238  0.082722  0  3.928763  0
C  C40  1  0.95442787  0.02603543  0.32111636  1  0.22952  0  -0.002706  -0.106907  0  3.926547  0
C  C41  1  0.54556202  0.67887698  0.97395448  1  0.229393  0  -0.002782  -0.107158  0  3.926766  0
C  C42  1  0.04556245  0.97396284  0.67888613  1  0.229421  0  -0.00279  -0.107117  0  3.926786  0
C  C43  1  0.45445225  0.32112428  0.02604859  1  0.229424  0  -0.002629  -0.106977  0  3.926676  0
C  C44  1  0.85319909  0.92935545  0.35038046  1  0.415769  0  -0.01423  -0.054469  0  4.035032  0
C  C45  1  0.64678598  0.64961119  0.07062375  1  0.416595  0  -0.014176  -0.054348  0  4.035303  0
C  C46  1  0.14678903  0.07063292  0.64962285  1  0.416239  0  -0.014137  -0.05436  0  4.035192  0
C  C47  1  0.35322135  0.35039005  0.92937667  1  0.416963  0  -0.0142  -0.054396  0  4.035176  0
C  C48  1  0.29688103  0.03086339  0.31615171  1  0.315627  0  -0.060182  -0.015713  0  3.894167  0
C  C49  1  0.20309990  0.68385211  0.96913982  1  0.315696  0  -0.060053  -0.015594  0  3.894187  0
C  C50  1  0.70310800  0.96914278  0.68384682  1  0.315717  0  -0.060166  -0.015689  0  3.894008  0
C  C51  1  0.79690892  0.31615704  0.03085807  1  0.315712  0  -0.060091  -0.015473  0  3.893971  0
C  C52  1  0.42197948  0.00406791  0.17650930  1  -0.07199  0  -0.247728  -0.385784  0  3.936624  0
C  C53  1  0.07800985  0.82349133  0.99593199  1  -0.072965  0  -0.247807  -0.385932  0  3.936873  0
C  C54  1  0.57800536  0.99593431  0.82349300  1  -0.072505  0  -0.247799  -0.385843  0  3.936914  0
C  C55  1  0.92200403  0.17650694  0.00406840  1  -0.073086  0  -0.247865  -0.385959  0  3.936857  0
Br  Br56  1  0.49790419  0.70863487  0.57990636  1  -0.512211  0  -0.24801  -0.385999  0  1.621198  0
Br  Br57  1  0.00210932  0.42007969  0.29138429  1  -0.512229  0  -0.248065  -0.385992  0  1.621137  0
Br  Br58  1  0.50209763  0.29137028  0.42008713  1  -0.512193  0  -0.248037  -0.385979  0  1.621123  0
Br  Br59  1  0.99789771  0.57992259  0.70862383  1  -0.512153  0  -0.248053  -0.385987  0  1.621098  0
N  N60  1  0.96896021  0.81565870  0.38606789  1  -1.186179  0  -0.374345  -0.261061  0  3.599049  0
N  N61  1  0.53102684  0.61393565  0.18432780  1  -1.186642  0  -0.374442  -0.261155  0  3.599082  0
N  N62  1  0.03103905  0.18433365  0.61393622  1  -1.186593  0  -0.374419  -0.261154  0  3.599057  0
N  N63  1  0.46897811  0.38606856  0.81567289  1  -1.186582  0  -0.374472  -0.261178  0  3.599073  0
N  N64  1  0.13452459  0.96936020  0.33893565  1  -1.230451  0  -0.245105  0.043402  0  3.74931  0
N  N65  1  0.36545652  0.66106913  0.03063665  1  -1.231065  0  -0.245203  0.043547  0  3.74903  0
N  N66  1  0.86546613  0.03064104  0.66106665  1  -1.230593  0  -0.245119  0.043521  0  3.749098  0
N  N67  1  0.63455469  0.33893706  0.96936289  1  -1.231164  0  -0.245225  0.043336  0  3.749359  0
