# generated using pymatgen
data_ZnH18C20(N2Cl)2
_symmetry_space_group_name_H-M   'P 1'
_cell_length_a   5.58504104
_cell_length_b   12.01093094
_cell_length_c   15.01788178
_cell_angle_alpha   70.29190487
_cell_angle_beta   79.24158499
_cell_angle_gamma   76.52426770
_symmetry_Int_Tables_number   1
_chemical_formula_structural   ZnH18C20(N2Cl)2
_chemical_formula_sum   'Zn2 H36 C40 N8 Cl4'
_cell_volume   915.84986114
_cell_formula_units_Z   2
loop_
 _symmetry_equiv_pos_site_id
 _symmetry_equiv_pos_as_xyz
  1  'x, y, z'
loop_
 _atom_site_type_symbol
 _atom_site_label
 _atom_site_symmetry_multiplicity
 _atom_site_fract_x
 _atom_site_fract_y
 _atom_site_fract_z
 _atom_site_occupancy
 _atom_site_hle17_bader_spin_density
 _atom_site_hle17_ddec_charge
 _atom_site_hle17_ddec_spin_density
 _atom_site_hle17_ddec_sum_bond_order
 _atom_site_hle17_magmom
 _atom_site_hse06_10hf_bader_spin_density
 _atom_site_hse06_10hf_ddec_charge
 _atom_site_hse06_10hf_ddec_spin_density
 _atom_site_hse06_10hf_ddec_sum_bond_order
 _atom_site_hse06_10hf_magmom
 _atom_site_hse06_bader_spin_density
 _atom_site_hse06_ddec_charge
 _atom_site_hse06_ddec_spin_density
 _atom_site_hse06_ddec_sum_bond_order
 _atom_site_hse06_magmom
 _atom_site_pbe_bader_spin_density
 _atom_site_pbe_cm5_charge
 _atom_site_pbe_ddec_charge
 _atom_site_pbe_ddec_spin_density
 _atom_site_pbe_ddec_sum_bond_order
 _atom_site_pbe_magmom
Zn  Zn0  1  0.33132846  0.25014561  0.74999502  1  0  0.85972  0  2.137004  0  0  0.687028  0  2.632171  0  0  0.72627  0  2.585002  0  0  0.557187  0.659996  0  2.664263  0
Zn  Zn1  1  0.66868937  0.74984764  0.25000019  1  0  0.859762  0  2.13668  0  0  0.687077  0  2.631867  0  0  0.726329  0  2.584696  0  0  0.557115  0.66004  0  2.663966  0
H  H2  1  0.54166059  0.09889558  0.95391814  1  0  0.098598  0  0.979327  0  0  0.106287  0  1.044688  0  0  0.108196  0  1.044702  0  0  0.112024  0.104868  0  1.044805  0
H  H3  1  0.59444779  0.40138519  0.54598892  1  0  0.09878  0  0.978878  0  0  0.10635  0  1.044483  0  0  0.108267  0  1.044496  0  0  0.112018  0.104938  0  1.044616  0
H  H4  1  0.45837313  0.90109630  0.04606063  1  0  0.098632  0  0.979027  0  0  0.106356  0  1.044369  0  0  0.108274  0  1.044391  0  0  0.112004  0.104934  0  1.044493  0
H  H5  1  0.40554928  0.59862049  0.45401009  1  0  0.098849  0  0.97876  0  0  0.106377  0  1.044427  0  0  0.108293  0  1.044443  0  0  0.11203  0.104966  0  1.044553  0
H  H6  1  0.97503228  0.92491095  0.96215775  1  0  0.121272  0  0.972838  0  0  0.128401  0  1.038048  0  0  0.130884  0  1.037769  0  0  0.116455  0.126593  0  1.038359  0
H  H7  1  0.86216700  0.57525009  0.53763630  1  0  0.119861  0  0.973892  0  0  0.126976  0  1.039326  0  0  0.12953  0  1.038956  0  0  0.115883  0.125124  0  1.039692  0
H  H8  1  0.02499824  0.07509928  0.03783794  1  0  0.121251  0  0.972849  0  0  0.128362  0  1.038079  0  0  0.130848  0  1.037804  0  0  0.116462  0.126554  0  1.038386  0
H  H9  1  0.13780193  0.42476284  0.46235908  1  0  0.119961  0  0.973817  0  0  0.127043  0  1.039266  0  0  0.129597  0  1.038896  0  0  0.115945  0.125191  0  1.039632  0
H  H10  1  0.79936522  0.07355098  0.67814851  1  0  0.098862  0  0.953699  0  0  0.105503  0  1.023285  0  0  0.107742  0  1.020744  0  0  0.13076  0.103842  0  1.025135  0
H  H11  1  0.55196552  0.42624827  0.82181423  1  0  0.098802  0  0.955414  0  0  0.105268  0  1.025087  0  0  0.107492  0  1.022564  0  0  0.130704  0.103618  0  1.026913  0
H  H12  1  0.20067591  0.92644453  0.32182796  1  0  0.09908  0  0.953976  0  0  0.105776  0  1.023486  0  0  0.108012  0  1.020942  0  0  0.130969  0.104114  0  1.025334  0
H  H13  1  0.44803644  0.57374291  0.17819236  1  0  0.098734  0  0.955561  0  0  0.105237  0  1.025184  0  0  0.107459  0  1.02266  0  0  0.130717  0.103588  0  1.027013  0
H  H14  1  0.32491421  0.97062294  0.75884432  1  0  0.081486  0  0.947085  0  0  0.091176  0  1.019681  0  0  0.091803  0  1.019407  0  0  0.104389  0.090591  0  1.020038  0
H  H15  1  0.05521130  0.52933251  0.74079550  1  0  0.081845  0  0.94555  0  0  0.091463  0  1.018565  0  0  0.09211  0  1.018296  0  0  0.10421  0.09089  0  1.018936  0
H  H16  1  0.67509919  0.02937438  0.24116697  1  0  0.081334  0  0.94694  0  0  0.091041  0  1.019601  0  0  0.091681  0  1.019322  0  0  0.104238  0.090454  0  1.019955  0
H  H17  1  0.94474555  0.47067131  0.25920649  1  0  0.081847  0  0.945367  0  0  0.091458  0  1.018408  0  0  0.092115  0  1.018108  0  0  0.104153  0.090861  0  1.018765  0
H  H18  1  0.15527151  0.90261513  0.70955555  1  0  0.085132  0  0.936308  0  0  0.100165  0  0.999726  0  0  0.100305  0  1.000908  0  0  0.112966  0.099988  0  0.998989  0
H  H19  1  0.76809661  0.59731460  0.79021439  1  0  0.0849  0  0.935546  0  0  0.099928  0  0.999328  0  0  0.10008  0  1.000505  0  0  0.113032  0.099758  0  0.998615  0
H  H20  1  0.84477627  0.09739553  0.29045864  1  0  0.085098  0  0.93603  0  0  0.100176  0  0.99944  0  0  0.100324  0  1.000629  0  0  0.112867  0.099993  0  0.998707  0
H  H21  1  0.23187348  0.40268319  0.20977834  1  0  0.084998  0  0.935318  0  0  0.099975  0  0.999161  0  0  0.100123  0  1.000339  0  0  0.113072  0.099793  0  0.998414  0
H  H22  1  0.54901848  0.85091659  0.89340935  1  0  0.089188  0  0.977231  0  0  0.09782  0  1.044069  0  0  0.100004  0  1.044456  0  0  0.096902  0.096262  0  1.043848  0
H  H23  1  0.29404547  0.64914865  0.60638311  1  0  0.089352  0  0.977188  0  0  0.098037  0  1.043966  0  0  0.10025  0  1.044312  0  0  0.096747  0.096452  0  1.043796  0
H  H24  1  0.45101969  0.14907358  0.10660171  1  0  0.089114  0  0.977407  0  0  0.097802  0  1.044159  0  0  0.099979  0  1.044588  0  0  0.096837  0.096243  0  1.043938  0
H  H25  1  0.70592931  0.35085357  0.39361126  1  0  0.089193  0  0.977252  0  0  0.09783  0  1.044103  0  0  0.100042  0  1.044456  0  0  0.096718  0.096249  0  1.043932  0
H  H26  1  0.69982791  0.65412278  0.00115175  1  0  0.090281  0  0.994199  0  0  0.098427  0  1.062071  0  0  0.101366  0  1.060772  0  0  0.09094  0.096276  0  1.063156  0
H  H27  1  0.35546382  0.84605335  0.49874037  1  0  0.090047  0  0.993432  0  0  0.098611  0  1.060827  0  0  0.101531  0  1.059568  0  0  0.09123  0.096476  0  1.061871  0
H  H28  1  0.30019919  0.34585894  0.99887521  1  0  0.090402  0  0.994518  0  0  0.098631  0  1.06223  0  0  0.101563  0  1.060941  0  0  0.091068  0.096484  0  1.063316  0
H  H29  1  0.64452004  0.15395432  0.50125075  1  0  0.090105  0  0.993641  0  0  0.098644  0  1.061012  0  0  0.101563  0  1.059772  0  0  0.091244  0.09651  0  1.062057  0
H  H30  1  0.16456810  0.50567242  0.92138675  1  0  0.090961  0  0.974511  0  0  0.100934  0  1.039722  0  0  0.103668  0  1.038622  0  0  0.097442  0.09894  0  1.040621  0
H  H31  1  0.59091673  0.99411876  0.57831027  1  0  0.091132  0  0.974943  0  0  0.101026  0  1.040087  0  0  0.103869  0  1.038882  0  0  0.097301  0.098958  0  1.041096  0
H  H32  1  0.83543690  0.49431725  0.07860889  1  0  0.090982  0  0.974559  0  0  0.100978  0  1.039717  0  0  0.103713  0  1.03862  0  0  0.09745  0.098988  0  1.040626  0
H  H33  1  0.40905295  0.00588761  0.42169725  1  0  0.091049  0  0.975016  0  0  0.100951  0  1.040133  0  0  0.103785  0  1.038932  0  0  0.097284  0.098883  0  1.041139  0
H  H34  1  0.01082558  0.70639676  0.81687850  1  0  0.08507  0  0.987686  0  0  0.096898  0  1.051346  0  0  0.098773  0  1.052095  0  0  0.09668  0.095554  0  1.050869  0
H  H35  1  0.53379321  0.79323189  0.68268018  1  0  0.08492  0  0.988796  0  0  0.097523  0  1.051386  0  0  0.099393  0  1.052081  0  0  0.096708  0.096145  0  1.051012  0
H  H36  1  0.98920599  0.29360905  0.18311528  1  0  0.085077  0  0.987877  0  0  0.096873  0  1.051539  0  0  0.098753  0  1.052291  0  0  0.096656  0.095529  0  1.051065  0
H  H37  1  0.46618597  0.20677022  0.31731887  1  0  0.085124  0  0.988637  0  0  0.097568  0  1.0514  0  0  0.099435  0  1.052101  0  0  0.096728  0.096188  0  1.051024  0
C  C38  1  0.65954846  0.06703577  0.89832189  1  0  0.001563  0  3.750899  0  0  -0.030824  0  4.013016  0  0  -0.028558  0  4.031769  0  0  -0.004705  -0.032331  0  4.000395  0
C  C39  1  0.62500881  0.43316382  0.60157521  1  0  0.000572  0  3.752599  0  0  -0.031759  0  4.014872  0  0  -0.029505  0  4.033619  0  0  -0.005148  -0.033283  0  4.00228  0
C  C40  1  0.34043032  0.93297346  0.10167858  1  0  0.001554  0  3.750609  0  0  -0.03081  0  4.012706  0  0  -0.028559  0  4.031476  0  0  -0.00459  -0.032316  0  4.000088  0
C  C41  1  0.37497851  0.56683572  0.39841924  1  0  0.000477  0  3.752216  0  0  -0.031805  0  4.014473  0  0  -0.029553  0  4.033218  0  0  -0.005203  -0.033325  0  4.001875  0
C  C42  1  0.87533592  0.98321935  0.90288992  1  0  -0.066701  0  3.658225  0  0  -0.10489  0  3.912174  0  0  -0.103634  0  3.930072  0  0  -0.000164  -0.105713  0  3.900245  0
C  C43  1  0.76167341  0.51687180  0.59695590  1  0  -0.064478  0  3.658751  0  0  -0.10247  0  3.912355  0  0  -0.101262  0  3.930179  0  0  0.00071  -0.103261  0  3.900473  0
C  C44  1  0.12467363  0.01679150  0.09711694  1  0  -0.066614  0  3.658568  0  0  -0.104794  0  3.912516  0  0  -0.103546  0  3.930414  0  0  -0.000101  -0.105615  0  3.900588  0
C  C45  1  0.23831222  0.48312783  0.40303481  1  0  -0.064548  0  3.658618  0  0  -0.102521  0  3.912247  0  0  -0.10131  0  3.930064  0  0  0.00071  -0.103313  0  3.900374  0
C  C46  1  0.78312949  0.05683448  0.75429754  1  0  0.166332  0  3.662604  0  0  0.10287  0  3.931192  0  0  0.117292  0  3.942969  0  0  0.141677  0.093514  0  3.923025  0
C  C47  1  0.59490994  0.44307732  0.74564562  1  0  0.166094  0  3.663446  0  0  0.102991  0  3.931893  0  0  0.117418  0  3.943652  0  0  0.141546  0.09363  0  3.92373  0
C  C48  1  0.21687915  0.94316568  0.24570779  1  0  0.166094  0  3.663578  0  0  0.102589  0  3.932131  0  0  0.117013  0  3.943886  0  0  0.141513  0.093235  0  3.923971  0
C  C49  1  0.40508421  0.55691598  0.25434773  1  0  0.166316  0  3.664177  0  0  0.103177  0  3.932598  0  0  0.117604  0  3.944358  0  0  0.141578  0.093813  0  3.924452  0
C  C50  1  0.18556446  0.91293002  0.77636675  1  0  -0.04131  0  3.656735  0  0  -0.107476  0  3.902624  0  0  -0.102171  0  3.911683  0  0  -0.049486  -0.110896  0  3.896449  0
C  C51  1  0.87548030  0.58695537  0.72335372  1  0  -0.040057  0  3.653465  0  0  -0.10662  0  3.899605  0  0  -0.101358  0  3.908728  0  0  -0.048808  -0.110149  0  3.89359  0
C  C52  1  0.81459555  0.08701572  0.22363249  1  0  -0.041532  0  3.656497  0  0  -0.107844  0  3.902611  0  0  -0.102591  0  3.911746  0  0  -0.049321  -0.111254  0  3.896417  0
C  C53  1  0.12453895  0.41306716  0.27665086  1  0  -0.040165  0  3.653323  0  0  -0.106592  0  3.899334  0  0  -0.101322  0  3.908441  0  0  -0.048723  -0.109989  0  3.893144  0
C  C54  1  0.27099280  0.79248709  0.84612469  1  0  0.05781  0  3.774582  0  0  0.079289  0  4.011222  0  0  0.078696  0  4.03374  0  0  -0.017392  0.079675  0  3.995904  0
C  C55  1  0.90984219  0.70747855  0.65356457  1  0  0.056752  0  3.777706  0  0  0.079299  0  4.013379  0  0  0.078696  0  4.035921  0  0  -0.018052  0.079741  0  3.998057  0
C  C56  1  0.72898991  0.20753562  0.15387269  1  0  0.057792  0  3.773016  0  0  0.079443  0  4.00955  0  0  0.078861  0  4.03208  0  0  -0.01724  0.079829  0  3.994218  0
C  C57  1  0.09013133  0.29251456  0.34643654  1  0  0.056371  0  3.777008  0  0  0.078891  0  4.012736  0  0  0.078283  0  4.035278  0  0  -0.018162  0.079294  0  3.997394  0
C  C58  1  0.46378761  0.77512267  0.89966308  1  0  -0.108303  0  3.743706  0  0  -0.126506  0  3.989128  0  0  -0.128417  0  4.009869  0  0  -0.092161  -0.125113  0  3.975023  0
C  C59  1  0.13894715  0.72489856  0.60011448  1  0  -0.108616  0  3.743273  0  0  -0.127141  0  3.98858  0  0  -0.129058  0  4.00929  0  0  -0.091791  -0.125747  0  3.974474  0
C  C60  1  0.53618842  0.22488953  0.10032582  1  0  -0.108284  0  3.74409  0  0  -0.126541  0  3.989515  0  0  -0.128463  0  4.010244  0  0  -0.092155  -0.125149  0  3.97541  0
C  C61  1  0.86100568  0.27510153  0.39989369  1  0  -0.108111  0  3.742796  0  0  -0.126594  0  3.988129  0  0  -0.128515  0  4.008851  0  0  -0.091699  -0.125203  0  3.974032  0
C  C62  1  0.55086856  0.66184314  0.96052543  1  0  -0.105641  0  3.728831  0  0  -0.124035  0  3.974587  0  0  -0.126842  0  3.995042  0  0  -0.091401  -0.122086  0  3.960744  0
C  C63  1  0.17340906  0.83825042  0.53931622  1  0  -0.105061  0  3.729021  0  0  -0.123764  0  3.974967  0  0  -0.126569  0  3.995403  0  0  -0.09155  -0.121801  0  3.961109  0
C  C64  1  0.44911332  0.33815980  0.03947582  1  0  -0.105689  0  3.729857  0  0  -0.12425  0  3.975588  0  0  -0.127049  0  3.996026  0  0  -0.091516  -0.122308  0  3.961755  0
C  C65  1  0.82653905  0.16174705  0.46068923  1  0  -0.10528  0  3.729302  0  0  -0.123965  0  3.975168  0  0  -0.126784  0  3.995626  0  0  -0.091544  -0.122  0  3.961315  0
C  C66  1  0.45050505  0.56083679  0.96920607  1  0  0.044072  0  3.769566  0  0  0.058403  0  3.999827  0  0  0.058629  0  4.023794  0  0  -0.010035  0.058257  0  3.983563  0
C  C67  1  0.98032453  0.93912506  0.53069255  1  0  0.043919  0  3.768402  0  0  0.058234  0  3.998898  0  0  0.058456  0  4.022881  0  0  -0.009607  0.058093  0  3.98262  0
C  C68  1  0.54950760  0.43913436  0.03081468  1  0  0.044107  0  3.770615  0  0  0.058707  0  4.000614  0  0  0.058936  0  4.024574  0  0  -0.010039  0.058554  0  3.984363  0
C  C69  1  0.01964193  0.06089866  0.46930048  1  0  0.044295  0  3.769007  0  0  0.058695  0  3.999407  0  0  0.058917  0  4.023389  0  0  -0.009514  0.058546  0  3.983133  0
C  C70  1  0.25182564  0.58010413  0.91669702  1  0  -0.113088  0  3.739782  0  0  -0.131646  0  3.989543  0  0  -0.13477  0  4.010753  0  0  -0.092829  -0.129474  0  3.975144  0
C  C71  1  0.74804088  0.91973608  0.58301351  1  0  -0.111841  0  3.739204  0  0  -0.130352  0  3.988966  0  0  -0.133552  0  4.010109  0  0  -0.092472  -0.128144  0  3.974624  0
C  C72  1  0.74815955  0.41990616  0.08329656  1  0  -0.113047  0  3.74073  0  0  -0.131686  0  3.990417  0  0  -0.134814  0  4.011632  0  0  -0.092866  -0.129524  0  3.976031  0
C  C73  1  0.25191028  0.08026219  0.41699560  1  0  -0.111641  0  3.739849  0  0  -0.130156  0  3.989512  0  0  -0.133344  0  4.010647  0  0  -0.092452  -0.127945  0  3.975162  0
C  C74  1  0.16414834  0.69361970  0.85683713  1  0  -0.103201  0  3.745795  0  0  -0.124855  0  3.993406  0  0  -0.126879  0  4.015207  0  0  -0.092357  -0.123372  0  3.978558  0
C  C75  1  0.71429556  0.80619771  0.64276001  1  0  -0.104914  0  3.750032  0  0  -0.127483  0  3.99719  0  0  -0.129483  0  4.019111  0  0  -0.093123  -0.126  0  3.982284  0
C  C76  1  0.83587452  0.30641300  0.14315421  1  0  -0.103268  0  3.745743  0  0  -0.124927  0  3.993319  0  0  -0.126958  0  4.015125  0  0  -0.09234  -0.123446  0  3.97847  0
C  C77  1  0.28567367  0.19378530  0.35725140  1  0  -0.105238  0  3.750317  0  0  -0.127701  0  3.99758  0  0  -0.129687  0  4.019478  0  0  -0.093166  -0.12622  0  3.982679  0
N  N78  1  0.60342199  0.11127447  0.80561423  1  0  -0.371824  0  3.343199  0  0  -0.290738  0  3.633861  0  0  -0.310236  0  3.647448  0  0  -0.363367  -0.277555  0  3.62437  0
N  N79  1  0.52060280  0.38883456  0.69433753  1  0  -0.370862  0  3.343956  0  0  -0.290007  0  3.634693  0  0  -0.309495  0  3.648271  0  0  -0.362941  -0.276832  0  3.625222  0
N  N80  1  0.39655649  0.88873185  0.19439541  1  0  -0.371898  0  3.343049  0  0  -0.290905  0  3.63381  0  0  -0.310406  0  3.647404  0  0  -0.363313  -0.277721  0  3.624324  0
N  N81  1  0.47938904  0.61115088  0.30564859  1  0  -0.370854  0  3.344556  0  0  -0.29001  0  3.635255  0  0  -0.3095  0  3.648835  0  0  -0.362906  -0.276834  0  3.625785  0
N  N82  1  0.95034592  0.97813105  0.81097848  1  0  -0.056639  0  3.563958  0  0  0.039455  0  3.77867  0  0  0.024596  0  3.804186  0  0  -0.240307  0.049251  0  3.761308  0
N  N83  1  0.74009286  0.52174440  0.68889457  1  0  -0.058162  0  3.562573  0  0  0.037853  0  3.77788  0  0  0.022993  0  3.803417  0  0  -0.241324  0.047695  0  3.760527  0
N  N84  1  0.04972103  0.02185561  0.18902977  1  0  -0.056071  0  3.565728  0  0  0.039981  0  3.780439  0  0  0.025151  0  3.805953  0  0  -0.240417  0.049765  0  3.763078  0
N  N85  1  0.25989813  0.47826054  0.31109838  1  0  -0.058161  0  3.563536  0  0  0.037827  0  3.778803  0  0  0.022969  0  3.804334  0  0  -0.24135  0.047628  0  3.76143  0
Cl  Cl86  1  0.07075843  0.28511987  0.87516428  1  0  -0.573532  0  0.893868  0  0  -0.508145  0  1.163977  0  0  -0.523536  0  1.143986  0  0  -0.324257  -0.497022  0  1.177591  0
Cl  Cl87  1  0.23043921  0.21534448  0.62493613  1  0  -0.5734  0  0.893062  0  0  -0.507872  0  1.162974  0  0  -0.523341  0  1.143166  0  0  -0.324404  -0.496712  0  1.176517  0
Cl  Cl88  1  0.92925567  0.71487429  0.12483045  1  0  -0.573474  0  0.893859  0  0  -0.508108  0  1.16404  0  0  -0.523502  0  1.144045  0  0  -0.324175  -0.496974  0  1.177646  0
Cl  Cl89  1  0.76955049  0.78465498  0.37506139  1  0  -0.573414  0  0.893047  0  0  -0.507889  0  1.163006  0  0  -0.523361  0  1.143195  0  0  -0.324397  -0.496725  0  1.176539  0
