# generated using pymatgen
data_Zn4H33C42N3O16
_symmetry_space_group_name_H-M   'P 1'
_cell_length_a   20.79583881
_cell_length_b   21.42883955
_cell_length_c   21.53255026
_cell_angle_alpha   90.01985525
_cell_angle_beta   118.67327596
_cell_angle_gamma   119.03585489
_symmetry_Int_Tables_number   1
_chemical_formula_structural   Zn4H33C42N3O16
_chemical_formula_sum   'Zn8 H66 C84 N6 O32'
_cell_volume   7012.28665822
_cell_formula_units_Z   2
loop_
 _symmetry_equiv_pos_site_id
 _symmetry_equiv_pos_as_xyz
  1  'x, y, z'
loop_
 _atom_site_type_symbol
 _atom_site_label
 _atom_site_symmetry_multiplicity
 _atom_site_fract_x
 _atom_site_fract_y
 _atom_site_fract_z
 _atom_site_occupancy
 _atom_site_pbe_bader_charge
 _atom_site_pbe_bader_spin_density
 _atom_site_pbe_cm5_charge
 _atom_site_pbe_ddec_charge
 _atom_site_pbe_ddec_spin_density
 _atom_site_pbe_ddec_sum_bond_order
 _atom_site_pbe_magmom
Zn  Zn0  1  0.93032252  0.96455084  0.04373203  1  1.311559  0  0.674795  0.953709  0  2.445737  0
Zn  Zn1  1  0.06964406  0.11298615  0.04764193  1  1.315277  0  0.671824  0.956787  0  2.42561  0
Zn  Zn2  1  0.93394698  0.97546684  0.90050483  1  1.313644  0  0.673384  0.970508  0  2.355191  0
Zn  Zn3  1  0.09072291  0.97154930  0.04841186  1  1.321395  0  0.670518  0.983002  0  2.249947  0
Zn  Zn4  1  0.08538341  0.54314590  0.47483075  1  1.296606  0  0.656256  0.957663  0  2.414505  0
Zn  Zn5  1  0.93443096  0.39970440  0.47357116  1  1.304344  0  0.664482  0.953238  0  2.439975  0
Zn  Zn6  1  0.93055832  0.54763934  0.47552155  1  1.324352  0  0.689434  0.98889  0  2.276858  0
Zn  Zn7  1  0.08012452  0.53749286  0.61908328  1  1.317897  0  0.676086  0.965533  0  2.387075  0
H  H8  1  0.93844566  0.05413362  0.22213462  1  0.106677  0  0.110421  0.119294  0  0.990005  0
H  H9  1  0.93830377  0.12751581  0.31435820  1  0.112794  0  0.112507  0.11835  0  0.99228  0
H  H10  1  0.03575822  0.24686466  0.15190187  1  0.096888  0  0.107985  0.118436  0  1.032335  0
H  H11  1  0.06053742  0.43229656  0.30031848  1  0.137737  0  0.126065  0.10451  0  1.015908  0
H  H12  1  0.08338260  0.34832779  0.17502091  1  0.052489  0  0.117445  0.063652  0  0.969542  0
H  H13  1  0.16541121  0.48165919  0.20121618  1  0.04382  0  0.099234  0.136693  0  0.987441  0
H  H14  1  0.13096467  0.49563571  0.25766626  1  0.020987  0  0.09467  0.127065  0  1.004773  0
H  H15  1  0.20056695  0.46141094  0.28727555  1  0.048339  0  0.099089  0.136902  0  0.987432  0
H  H16  1  0.99868328  0.39881685  0.09345797  1  0.044764  0  0.096329  0.132558  0  0.989364  0
H  H17  1  0.96477031  0.40339836  0.15411556  1  0.036086  0  0.09606  0.130664  0  0.992914  0
H  H18  1  0.92802510  0.31485990  0.10315784  1  0.052278  0  0.096614  0.133497  0  0.993104  0
H  H19  1  0.67493206  0.89629911  0.94104803  1  0.110358  0  0.108513  0.117241  0  0.995294  0
H  H20  1  0.50849882  0.81802269  0.87238388  1  0.111837  0  0.112121  0.117514  0  0.994014  0
H  H21  1  0.65684226  0.79158465  0.75898128  1  0.074296  0  0.106929  0.116818  0  1.029161  0
H  H22  1  0.34818341  0.61479284  0.58900708  1  0.130905  0  0.126346  0.103395  0  1.014155  0
H  H23  1  0.58096096  0.71433519  0.67179689  1  0.035845  0  0.116267  0.061801  0  0.976418  0
H  H24  1  0.50420364  0.66242071  0.53841560  1  0.043514  0  0.099604  0.137828  0  0.985819  0
H  H25  1  0.40052007  0.62895667  0.52450335  1  0.019156  0  0.094539  0.127284  0  1.005892  0
H  H26  1  0.48025638  0.72727265  0.55608079  1  0.040364  0  0.094723  0.130002  0  0.993405  0
H  H27  1  0.52545297  0.58108703  0.62601717  1  0.049079  0  0.098718  0.136347  0  0.986913  0
H  H28  1  0.42549607  0.55185021  0.61862585  1  0.048963  0  0.096671  0.13093  0  0.996626  0
H  H29  1  0.52622649  0.59772572  0.70753503  1  0.003059  0  0.098286  0.135415  0  0.988292  0
H  H30  1  0.85064829  0.78110960  0.10434717  1  0.103337  0  0.108801  0.118059  0  0.996542  0
H  H31  1  0.82670752  0.69279406  0.18056191  1  0.133359  0  0.114215  0.12114  0  0.987105  0
H  H32  1  0.12288353  0.85926311  0.22315302  1  0.054238  0  0.105314  0.11452  0  1.032004  0
H  H33  1  0.15299352  0.72316048  0.39930617  1  0.130016  0  0.125771  0.103061  0  1.018175  0
H  H34  1  0.20642446  0.84549575  0.29446007  1  0.048443  0  0.115413  0.060045  0  0.975101  0
H  H35  1  0.31396479  0.81315135  0.35365468  1  0.031052  0  0.09579  0.131563  0  0.99149  0
H  H36  1  0.25768448  0.75199819  0.39076793  1  0.047084  0  0.095614  0.129614  0  1.003258  0
H  H37  1  0.20801572  0.72961826  0.29286388  1  0.035171  0  0.095301  0.131562  0  0.99338  0
H  H38  1  0.32797253  0.92127678  0.42620288  1  0.044645  0  0.094704  0.129689  0  0.993344  0
H  H39  1  0.26294227  0.85853098  0.45689907  1  0.038529  0  0.097095  0.132134  0  0.993574  0
H  H40  1  0.23019482  0.91394570  0.40539229  1  0.035019  0  0.098746  0.136893  0  0.987158  0
H  H41  1  0.15998547  0.26465472  0.94653856  1  0.106981  0  0.108294  0.115794  0  0.995865  0
H  H42  1  0.18743600  0.35630599  0.87369663  1  0.140467  0  0.113371  0.1204  0  0.989924  0
H  H43  1  0.89698154  0.11438250  0.75865464  1  0.075136  0  0.106661  0.115194  0  1.029887  0
H  H44  1  0.87202860  0.24756931  0.58032063  1  0.133464  0  0.127872  0.106678  0  1.015582  0
H  H45  1  0.82443343  0.09464909  0.65597946  1  0.034614  0  0.11635  0.061879  0  0.969619  0
H  H46  1  0.72259223  0.05027289  0.52372170  1  0.043385  0  0.096694  0.131771  0  0.991501  0
H  H47  1  0.76772680  0.14122913  0.51422798  1  0.027613  0  0.0966  0.130745  0  1.000986  0
H  H48  1  0.83095595  0.10109522  0.54245944  1  0.056495  0  0.103199  0.144404  0  0.978253  0
H  H49  1  0.69175732  0.09955238  0.61078643  1  0.052451  0  0.094841  0.130593  0  0.991703  0
H  H50  1  0.75141789  0.19349599  0.61073590  1  0.039892  0  0.096349  0.131405  0  0.993587  0
H  H51  1  0.78298769  0.17173868  0.69616832  1  0.0371  0  0.09515  0.131733  0  0.994141  0
H  H52  1  0.31138844  0.25957082  0.22850333  1  0.094009  0  0.106602  0.114926  0  1.000053  0
H  H53  1  0.47336722  0.35891990  0.31838300  1  0.13501  0  0.111637  0.117466  0  0.992066  0
H  H54  1  0.37624846  0.12041882  0.16455195  1  0.083296  0  0.105792  0.114732  0  1.031748  0
H  H55  1  0.68927949  0.26738444  0.30686955  1  0.126659  0  0.127477  0.106839  0  1.018466  0
H  H56  1  0.46807119  0.11007006  0.18843523  1  0.058061  0  0.114574  0.059531  0  0.973791  0
H  H57  1  0.56876128  0.07129798  0.22461938  1  0.04786  0  0.098182  0.135271  0  0.98848  0
H  H58  1  0.66241262  0.16308137  0.27870884  1  0.03189  0  0.099947  0.138401  0  0.994279  0
H  H59  1  0.58752693  0.11635455  0.30660661  1  0.044914  0  0.095203  0.130632  0  0.993644  0
H  H60  1  0.53069588  0.12342056  0.11120512  1  0.04853  0  0.096885  0.13379  0  0.98918  0
H  H61  1  0.61644574  0.21757015  0.16807965  1  0.049529  0  0.096808  0.131671  0  0.993895  0
H  H62  1  0.50550916  0.19179195  0.11236610  1  0.052607  0  0.097517  0.134943  0  0.990528  0
H  H63  1  0.98061801  0.91323926  0.75897512  1  0.090885  0  0.106585  0.114722  0  0.998706  0
H  H64  1  0.97263848  0.83803169  0.66179121  1  0.132491  0  0.112442  0.118835  0  0.992658  0
H  H65  1  0.06091053  0.79713381  0.90939610  1  0.102892  0  0.105078  0.113648  0  1.03156  0
H  H66  1  0.05467089  0.62105910  0.76697694  1  0.124953  0  0.128639  0.107682  0  1.013923  0
H  H67  1  0.09511843  0.72998718  0.92263108  1  0.042287  0  0.114233  0.058902  0  0.973417  0
H  H68  1  0.16652575  0.66361396  0.96352240  1  0.028405  0  0.095749  0.130382  0  0.993026  0
H  H69  1  0.12861177  0.62095512  0.87243706  1  0.040024  0  0.100442  0.137594  0  0.993243  0
H  H70  1  0.20528854  0.71960907  0.91309880  1  0.037357  0  0.101919  0.142135  0  0.981097  0
H  H71  1  0.00172375  0.59866012  0.91919102  1  0.022797  0  0.093953  0.128726  0  0.994232  0
H  H72  1  0.96450234  0.56553709  0.82522001  1  0.038335  0  0.096193  0.130844  0  0.994101  0
H  H73  1  0.93609932  0.62380445  0.84890751  1  0.03951  0  0.094913  0.131322  0  0.993264  0
C  C74  1  0.99029646  0.10655638  0.12949985  1  1.556868  0  0.226557  0.602292  0  4.157053  0
C  C75  1  0.98786568  0.14822571  0.18291144  1  -0.018623  0  -0.015921  -0.018697  0  4.002868  0
C  C76  1  0.95936825  0.11239040  0.22768595  1  -0.048948  0  -0.084172  -0.103564  0  3.981569  0
C  C77  1  0.95921722  0.15232464  0.27796137  1  0.002237  0  -0.075364  -0.075853  0  3.977502  0
C  C78  1  0.98633905  0.22745066  0.28482638  1  -0.002754  0  -0.012095  -0.070676  0  3.928901  0
C  C79  1  0.01482281  0.26343868  0.23943118  1  0.28759  0  0.104271  0.148216  0  3.99695  0
C  C80  1  0.01499014  0.22271740  0.18840065  1  -0.010504  0  -0.089965  -0.19624  0  3.962743  0
C  C81  1  0.03934630  0.37425978  0.29696601  1  0.391107  0  0.050565  0.036925  0  3.955212  0
C  C82  1  0.01154308  0.34330386  0.34215727  1  0.02559  0  -0.044449  -0.233719  0  3.973771  0
C  C83  1  0.01137520  0.39206469  0.39106959  1  1.545982  0  0.219135  0.626706  0  4.181855  0
C  C84  1  0.98329656  0.26583086  0.34015095  1  0.968083  0  0.125479  0.350299  0  4.116104  0
C  C85  1  0.06494603  0.37824097  0.19718610  1  0.336664  0  0.016534  0.192265  0  3.844597  0
C  C86  1  0.14507390  0.45889442  0.23892474  1  -0.068702  0  -0.235365  -0.426632  0  3.932688  0
C  C87  1  0.98415584  0.37332823  0.13310388  1  -0.086324  0  -0.236184  -0.423243  0  3.922343  0
C  C88  1  0.77106024  0.89581555  0.89263420  1  1.548677  0  0.22799  0.605533  0  4.152774  0
C  C89  1  0.67316858  0.84757748  0.85212184  1  -0.016158  0  -0.018103  -0.019033  0  4.000122  0
C  C90  1  0.63339390  0.85574402  0.88630748  1  -0.090801  0  -0.086604  -0.106004  0  3.989714  0
C  C91  1  0.54286874  0.81288767  0.84924348  1  0.077072  0  -0.075844  -0.076335  0  3.986193  0
C  C92  1  0.49003075  0.75997083  0.77921444  1  -0.037098  0  -0.011127  -0.06709  0  3.924825  0
C  C93  1  0.53009379  0.74964322  0.74578801  1  0.333975  0  0.104109  0.139922  0  3.990208  0
C  C94  1  0.62239496  0.79526337  0.78262762  1  0.009288  0  -0.088936  -0.196361  0  3.958232  0
C  C95  1  0.38699445  0.65599506  0.64284520  1  0.366935  0  0.051406  0.029049  0  3.949397  0
C  C96  1  0.34318701  0.66379606  0.67066163  1  0.074537  0  -0.041202  -0.226781  0  3.969369  0
C  C97  1  0.24544147  0.61610002  0.62373125  1  1.576882  0  0.223043  0.630546  0  4.170161  0
C  C98  1  0.39284805  0.71768159  0.74307225  1  0.912766  0  0.12747  0.349305  0  4.11264  0
C  C99  1  0.51015447  0.67204361  0.64101551  1  0.332597  0  0.016634  0.186253  0  3.845487  0
C  C100  1  0.47110246  0.67284412  0.56029616  1  -0.050085  0  -0.235829  -0.425688  0  3.934947  0
C  C101  1  0.49602218  0.59620549  0.64897195  1  -0.04229  0  -0.235341  -0.424028  0  3.923038  0
C  C102  1  0.00008543  0.87584123  0.11413757  1  1.549353  0  0.228411  0.608552  0  4.144127  0
C  C103  1  0.98849487  0.82391333  0.15997255  1  0.073909  0  -0.018955  -0.023551  0  4.000142  0
C  C104  1  0.90413067  0.77790368  0.14720552  1  -0.072976  0  -0.087219  -0.105742  0  3.987468  0
C  C105  1  0.89105873  0.72994748  0.18901901  1  -0.003324  0  -0.074248  -0.075232  0  3.977179  0
C  C106  1  0.96067197  0.72706300  0.24504781  1  -0.064663  0  -0.010982  -0.067652  0  3.923696  0
C  C107  1  0.04616206  0.77415009  0.25888325  1  0.328338  0  0.104088  0.141364  0  3.988055  0
C  C108  1  0.05897363  0.82210628  0.21517427  1  -0.013454  0  -0.091345  -0.198906  0  3.962901  0
C  C109  1  0.09720176  0.72321864  0.35575335  1  0.383137  0  0.049736  0.027806  0  3.956331  0
C  C110  1  0.01681486  0.67631002  0.34617399  1  0.030356  0  -0.041954  -0.227408  0  3.967294  0
C  C111  1  0.01392803  0.62870523  0.39647215  1  1.560507  0  0.224786  0.6342  0  4.163146  0
C  C112  1  0.93994811  0.67326875  0.28715198  1  0.959475  0  0.127128  0.348179  0  4.115561  0
C  C113  1  0.20768991  0.82015166  0.33881317  1  0.342878  0  0.016489  0.188263  0  3.844655  0
C  C114  1  0.24871082  0.77566825  0.34428544  1  -0.077897  0  -0.236823  -0.427024  0  3.935795  0
C  C115  1  0.26019994  0.88222350  0.41107536  1  -0.067862  0  -0.235749  -0.423834  0  3.923938  0
C  C116  1  0.01137495  0.13114487  0.89873852  1  1.550432  0  0.229175  0.6095  0  4.149614  0
C  C117  1  0.02638240  0.18484746  0.85526896  1  -0.006225  0  -0.018308  -0.022474  0  4.00385  0
C  C118  1  0.10917215  0.25299070  0.88955007  1  -0.059177  0  -0.087308  -0.105995  0  3.992212  0
C  C119  1  0.12415329  0.30314509  0.85002036  1  0.015365  0  -0.075699  -0.078258  0  3.983255  0
C  C120  1  0.05772707  0.28813453  0.77701107  1  -0.02846  0  -0.01227  -0.068532  0  3.928463  0
C  C121  1  0.97423924  0.21941148  0.74231600  1  0.33659  0  0.105  0.141158  0  3.991216  0
C  C122  1  0.95966467  0.16776830  0.78227162  1  -0.055985  0  -0.089854  -0.196016  0  3.964708  0
C  C123  1  0.92575823  0.26009588  0.63605204  1  0.333771  0  0.054168  0.035308  0  3.942132  0
C  C124  1  0.00360341  0.32890447  0.66661750  1  0.073013  0  -0.042608  -0.231283  0  3.970996  0
C  C125  1  0.00535469  0.38128300  0.62136201  1  1.604201  0  0.222195  0.627263  0  4.174228  0
C  C126  1  0.07881789  0.34692814  0.73980723  1  0.969677  0  0.126784  0.349713  0  4.115743  0
C  C127  1  0.81871280  0.13670877  0.62908779  1  0.319725  0  0.01631  0.18449  0  3.849119  0
C  C128  1  0.78360754  0.10615561  0.54770384  1  -0.059405  0  -0.234607  -0.427527  0  3.927476  0
C  C129  1  0.75770953  0.15126195  0.63744146  1  -0.083633  0  -0.237433  -0.425633  0  3.928584  0
C  C130  1  0.24006843  0.12701435  0.13889838  1  1.541055  0  0.229167  0.610446  0  4.146567  0
C  C131  1  0.33628261  0.18451899  0.19247412  1  0.042703  0  -0.018694  -0.020335  0  3.996026  0
C  C132  1  0.36201701  0.25177492  0.23508309  1  0.016775  0  -0.088477  -0.109799  0  3.992111  0
C  C133  1  0.45043369  0.30621067  0.28396157  1  -0.099354  0  -0.076983  -0.077245  0  3.982839  0
C  C134  1  0.51555623  0.29653093  0.29136506  1  -0.063468  0  -0.011325  -0.066922  0  3.912225  0
C  C135  1  0.48969130  0.22889365  0.24817598  1  0.319213  0  0.104072  0.148333  0  3.989798  0
C  C136  1  0.39946894  0.17300929  0.19908875  1  -0.023365  0  -0.091045  -0.198603  0  3.963147  0
C  C137  1  0.64113139  0.27703767  0.30345859  1  0.357734  0  0.050941  0.03645  0  3.953825  0
C  C138  1  0.67194703  0.34434387  0.34687431  1  0.053454  0  -0.042192  -0.228912  0  3.955967  0
C  C139  1  0.76968066  0.39611900  0.39511815  1  1.575523  0  0.224599  0.631688  0  4.162551  0
C  C140  1  0.60964443  0.35890590  0.34516801  1  0.994987  0  0.127756  0.349465  0  4.114108  0
C  C141  1  0.53690258  0.15424953  0.21095109  1  0.305577  0  0.017402  0.194031  0  3.846367  0
C  C142  1  0.59259470  0.12513355  0.25848140  1  -0.066347  0  -0.235608  -0.428765  0  3.928079  0
C  C143  1  0.54779552  0.17288329  0.14667289  1  -0.09875  0  -0.236389  -0.424676  0  3.92228  0
C  C144  1  0.02436353  0.90319436  0.89499445  1  1.552052  0  0.229249  0.613057  0  4.14533  0
C  C145  1  0.02184938  0.85861007  0.83935976  1  -0.091577  0  -0.01887  -0.023067  0  4.000271  0
C  C146  1  0.99614530  0.87111646  0.76959865  1  0.061568  0  -0.089416  -0.109449  0  3.997998  0
C  C147  1  0.99130221  0.82994499  0.71636669  1  -0.097174  0  -0.076402  -0.076994  0  3.987708  0
C  C148  1  0.00945941  0.77455697  0.72972871  1  -0.046523  0  -0.011708  -0.069059  0  3.923026  0
C  C149  1  0.03486864  0.76138605  0.79979353  1  0.366173  0  0.104133  0.148375  0  3.988368  0
C  C150  1  0.04170188  0.80470884  0.85472041  1  0.008852  0  -0.091151  -0.198409  0  3.960071  0
C  C151  1  0.04136599  0.66433344  0.75497557  1  0.392713  0  0.054366  0.04189  0  3.942147  0
C  C152  1  0.01555245  0.67266560  0.68529616  1  0.036346  0  -0.040643  -0.228917  0  3.962435  0
C  C153  1  0.00737920  0.62060065  0.63210735  1  1.554715  0  0.225466  0.63303  0  4.16486  0
C  C154  1  0.00013396  0.73176694  0.66786945  1  0.97245  0  0.128124  0.351171  0  4.113231  0
C  C155  1  0.07234199  0.68278324  0.88025158  1  0.319214  0  0.016176  0.192359  0  3.848113  0
C  C156  1  0.14744667  0.67112028  0.90830133  1  -0.041851  0  -0.234077  -0.427161  0  3.924577  0
C  C157  1  0.98853970  0.61371062  0.86761161  1  -0.048741  0  -0.237072  -0.423527  0  3.92651  0
N  N158  1  0.04253236  0.33872493  0.24756259  1  -1.212895  0  -0.23843  -0.047517  0  3.657967  0
N  N159  1  0.47549876  0.69503060  0.67649692  1  -1.217312  0  -0.238204  -0.026317  0  3.623929  0
N  N160  1  0.11446729  0.77027951  0.31567768  1  -1.214605  0  -0.241248  -0.029963  0  3.634355  0
N  N161  1  0.90916675  0.20574942  0.66920326  1  -1.21479  0  -0.23932  -0.026356  0  3.630431  0
N  N162  1  0.55584761  0.22043991  0.25650619  1  -1.196901  0  -0.240423  -0.050202  0  3.665114  0
N  N163  1  0.05227087  0.70537882  0.81127434  1  -1.216451  0  -0.237885  -0.04905  0  3.652073  0
O  O164  1  0.00953598  0.00491902  0.00905410  1  -1.224222  0  -0.575919  -1.032447  0  2.546703  0
O  O165  1  0.02234236  0.14268485  0.09358379  1  -1.174197  0  -0.31809  -0.548966  0  2.321737  0
O  O166  1  0.96029765  0.03732560  0.12396071  1  -1.165296  0  -0.312035  -0.538695  0  2.329051  0
O  O167  1  0.96308609  0.35974597  0.41578882  1  -1.154058  0  -0.306921  -0.522253  0  2.364941  0
O  O168  1  0.05921545  0.46302723  0.40320336  1  -1.173372  0  -0.33202  -0.576355  0  2.320554  0
O  O169  1  0.95970789  0.23262092  0.37974018  1  -1.095756  0  -0.305946  -0.438443  0  2.064098  0
O  O170  1  0.80734542  0.90027615  0.85727010  1  -1.166604  0  -0.315649  -0.544004  0  2.286538  0
O  O171  1  0.81172783  0.93029934  0.96112634  1  -1.186292  0  -0.318587  -0.553812  0  2.359568  0
O  O172  1  0.20490362  0.60527189  0.65574195  1  -1.158367  0  -0.300577  -0.513449  0  2.349637  0
O  O173  1  0.21013173  0.58937673  0.55396595  1  -1.189456  0  -0.334403  -0.580999  0  2.321289  0
O  O174  1  0.36122300  0.73107865  0.77336996  1  -1.08847  0  -0.302081  -0.432941  0  2.061526  0
O  O175  1  0.07186212  0.91069004  0.11635315  1  -1.165103  0  -0.316935  -0.551214  0  2.265647  0
O  O176  1  0.93413796  0.88078984  0.07488492  1  -1.185844  0  -0.322027  -0.554134  0  2.364049  0
O  O177  1  0.95229337  0.60377039  0.40736927  1  -1.149253  0  -0.29738  -0.513777  0  2.318819  0
O  O178  1  0.07668005  0.61792233  0.42529723  1  -1.180445  0  -0.336564  -0.584589  0  2.339161  0
O  O179  1  0.86325019  0.62999002  0.26968764  1  -1.086853  0  -0.299302  -0.429266  0  2.054676  0
O  O180  1  0.94653528  0.06289347  0.86353104  1  -1.17667  0  -0.318607  -0.55194  0  2.300503  0
O  O181  1  0.06639650  0.15895302  0.96909537  1  -1.163509  0  -0.315364  -0.545151  0  2.349445  0
O  O182  1  0.06659964  0.45017371  0.65430565  1  -1.162228  0  -0.304683  -0.521831  0  2.34849  0
O  O183  1  0.94264890  0.35217883  0.55223525  1  -1.189238  0  -0.328988  -0.569034  0  2.335562  0
O  O184  1  0.15421654  0.40399605  0.77057747  1  -1.088717  0  -0.302093  -0.432476  0  2.059257  0
O  O185  1  0.21493869  0.06106268  0.10923657  1  -1.173081  0  -0.318386  -0.553379  0  2.275262  0
O  O186  1  0.19015269  0.14995080  0.12751033  1  -1.188677  0  -0.318694  -0.551762  0  2.366705  0
O  O187  1  0.80436576  0.46543987  0.42117303  1  -1.143469  0  -0.298273  -0.513907  0  2.303076  0
O  O188  1  0.81119328  0.36419709  0.40531995  1  -1.189564  0  -0.334004  -0.581629  0  2.366928  0
O  O189  1  0.62869337  0.41516702  0.38424697  1  -1.089743  0  -0.303117  -0.433503  0  2.055282  0
O  O190  1  0.06748399  0.90745506  0.96354763  1  -1.171975  0  -0.319008  -0.553401  0  2.279776  0
O  O191  1  0.98202331  0.93408634  0.86775034  1  -1.173558  0  -0.319378  -0.554759  0  2.362035  0
O  O192  1  0.96449443  0.61426401  0.56351465  1  -1.147049  0  -0.300478  -0.51917  0  2.331943  0
O  O193  1  0.04412315  0.58517340  0.66096816  1  -1.182556  0  -0.330859  -0.574313  0  2.334666  0
O  O194  1  0.98243199  0.74839743  0.60932753  1  -1.090485  0  -0.299924  -0.430112  0  2.061311  0
O  O195  1  0.00714809  0.50880533  0.51012981  1  -1.205226  0  -0.574029  -1.032824  0  2.547403  0
