# generated using pymatgen
data_Al2H5C12BrO12
_symmetry_space_group_name_H-M   'P 1'
_cell_length_a   6.67509729
_cell_length_b   14.06549928
_cell_length_c   17.40982110
_cell_angle_alpha   93.46779193
_cell_angle_beta   89.66840042
_cell_angle_gamma   89.58238687
_symmetry_Int_Tables_number   1
_chemical_formula_structural   Al2H5C12BrO12
_chemical_formula_sum   'Al4 H10 C24 Br2 O24'
_cell_volume   1631.51522010
_cell_formula_units_Z   2
loop_
 _symmetry_equiv_pos_site_id
 _symmetry_equiv_pos_as_xyz
  1  'x, y, z'
loop_
 _atom_site_type_symbol
 _atom_site_label
 _atom_site_symmetry_multiplicity
 _atom_site_fract_x
 _atom_site_fract_y
 _atom_site_fract_z
 _atom_site_occupancy
 _atom_site_pbe_bader_charge
 _atom_site_pbe_bader_spin_density
 _atom_site_pbe_cm5_charge
 _atom_site_pbe_ddec_charge
 _atom_site_pbe_ddec_spin_density
 _atom_site_pbe_ddec_sum_bond_order
 _atom_site_pbe_magmom
Al  Al0  1  0.86005974  0.49578771  0.50026994  1  2.503055  0  0.398258  1.650004  0  2.570328  0
Al  Al1  1  0.36037646  0.50339476  0.50619425  1  2.499147  0  0.399508  1.642002  0  2.563834  0
Al  Al2  1  0.38791672  0.99964274  0.00113227  1  2.499213  0  0.405063  1.645729  0  2.580007  0
Al  Al3  1  0.88755199  0.00096541  0.00263602  1  2.503737  0  0.405653  1.645317  0  2.578502  0
H  H4  1  0.99473273  0.31072164  0.29205253  1  0.140956  0  0.116568  0.159163  0  1.021154  0
H  H5  1  0.48389060  0.70740031  0.70309323  1  0.150576  0  0.105093  0.143072  0  1.06613  0
H  H6  1  0.57143928  0.17654801  0.24998449  1  0.598763  0  0.281863  0.305109  0  1.029962  0
H  H7  1  0.08510482  0.79045255  0.76552552  1  0.596095  0  0.27457  0.292206  0  1.056352  0
H  H8  1  0.85790255  0.17206627  0.16347659  1  0.64029  0  0.325128  0.368812  0  0.904855  0
H  H9  1  0.36531935  0.82921864  0.84337220  1  0.630148  0  0.324711  0.368226  0  0.90466  0
H  H10  1  0.59743044  0.38409813  0.46474143  1  0.612806  0  0.325394  0.401845  0  0.91841  0
H  H11  1  0.10339863  0.61589450  0.47462306  1  0.636088  0  0.354515  0.435379  0  0.848383  0
H  H12  1  0.63554330  0.11758557  0.97644245  1  0.65037  0  0.359934  0.440324  0  0.83892  0
H  H13  1  0.13774907  0.88126886  0.02408260  1  0.636403  0  0.361012  0.440938  0  0.837233  0
C  C14  1  0.60813670  0.61024855  0.40009543  1  1.694903  0  0.276388  0.706635  0  4.171807  0
C  C15  1  0.11460522  0.39331065  0.60594189  1  1.703119  0  0.279697  0.697474  0  4.183336  0
C  C16  1  0.61611936  0.61639474  0.61070461  1  1.552005  0  0.257795  0.694272  0  4.089656  0
C  C17  1  0.11621352  0.37874392  0.39658127  1  1.564181  0  0.256316  0.696831  0  4.096382  0
C  C18  1  0.29409966  0.19551131  0.23115222  1  0.608455  0  0.071218  0.168545  0  4.047936  0
C  C19  1  0.80387841  0.78852006  0.77976324  1  0.660124  0  0.073978  0.17651  0  4.040114  0
C  C20  1  0.13061450  0.17306856  0.18542429  1  0.558679  0  0.063265  0.040514  0  3.957007  0
C  C21  1  0.63862388  0.82042286  0.82250599  1  0.501633  0  0.063097  0.040999  0  3.95161  0
C  C22  1  0.28288654  0.25538365  0.30310647  1  -0.162926  0  -0.000249  0.073013  0  3.904641  0
C  C23  1  0.79490312  0.72174733  0.71163530  1  -0.138712  0  -0.003134  0.062898  0  3.900898  0
C  C24  1  0.12811956  0.31239282  0.32780280  1  0.103396  0  -0.101506  -0.291543  0  3.85796  0
C  C25  1  0.62706649  0.68449375  0.67797715  1  0.034803  0  -0.105884  -0.295255  0  3.857599  0
C  C26  1  0.13381528  0.16981748  0.83583318  1  0.253066  0  -0.005477  -0.159778  0  3.850009  0
C  C27  1  0.63397593  0.83174283  0.16890302  1  0.287345  0  -0.003793  -0.155203  0  3.846794  0
C  C28  1  0.12664171  0.22163036  0.78195162  1  -0.358227  0  0.00122  0.046381  0  4.227053  0
C  C29  1  0.62608945  0.78029673  0.22300156  1  -0.381447  0  -0.001573  0.042256  0  4.22897  0
C  C30  1  0.11963802  0.27905994  0.72264940  1  -0.211263  0  -0.003505  0.028285  0  4.22154  0
C  C31  1  0.61785859  0.72334853  0.28261511  1  -0.077739  0  -0.005993  0.028104  0  4.229915  0
C  C32  1  0.11354300  0.33138743  0.66912423  1  0.138201  0  0.007137  -0.128608  0  3.827309  0
C  C33  1  0.61029188  0.67154581  0.33647247  1  -0.020204  0  0.000512  -0.139423  0  3.838368  0
C  C34  1  0.64669816  0.88403511  0.89326144  1  1.570406  0  0.254313  0.588624  0  4.14256  0
C  C35  1  0.13994171  0.11410002  0.11199910  1  1.54077  0  0.255347  0.590356  0  4.146845  0
C  C36  1  0.63736194  0.89258187  0.10528475  1  1.691591  0  0.281676  0.715383  0  4.160821  0
C  C37  1  0.13714497  0.10858499  0.89908200  1  1.686308  0  0.281991  0.717885  0  4.15744  0
Br  Br38  1  0.52377347  0.24569577  0.36319912  1  -0.039036  0  0.108828  0.007126  0  1.553608  0
Br  Br39  1  0.05616961  0.68887533  0.67077507  1  0.015475  0  0.123576  0.038686  0  1.688196  0
O  O40  1  0.44075933  0.59802199  0.58376237  1  -1.242839  0  -0.242944  -0.595944  0  2.294719  0
O  O41  1  0.93942399  0.40783694  0.41603115  1  -1.247553  0  -0.245655  -0.608976  0  2.294828  0
O  O42  1  0.77911962  0.58685151  0.42517105  1  -1.222849  0  -0.225365  -0.577208  0  2.281781  0
O  O43  1  0.28409803  0.42675978  0.58863755  1  -1.223831  0  -0.217572  -0.557145  0  2.290566  0
O  O44  1  0.77726244  0.57999774  0.58267700  1  -1.268864  0  -0.236623  -0.599613  0  2.437563  0
O  O45  1  0.27703696  0.40401518  0.43076588  1  -1.261814  0  -0.243107  -0.614751  0  2.402907  0
O  O46  1  0.94792959  0.40764054  0.57357094  1  -1.226942  0  -0.218774  -0.561043  0  2.281935  0
O  O47  1  0.43670007  0.58644740  0.42462297  1  -1.230198  0  -0.227228  -0.579017  0  2.273784  0
O  O48  1  0.60802906  0.44176928  0.49816148  1  -1.423893  0  -0.449039  -0.982482  0  2.19652  0
O  O49  1  0.10709876  0.55742081  0.50142778  1  -1.438005  0  -0.449074  -0.997025  0  2.211572  0
O  O50  1  0.80849865  0.91796654  0.08161422  1  -1.228225  0  -0.224149  -0.579457  0  2.279276  0
O  O51  1  0.30833040  0.08266081  0.92246099  1  -1.230519  0  -0.223786  -0.580233  0  2.279272  0
O  O52  1  0.47108752  0.90662199  0.92069625  1  -1.254033  0  -0.244322  -0.609019  0  2.354453  0
O  O53  1  0.96550216  0.09363109  0.08428794  1  -1.251348  0  -0.243105  -0.603942  0  2.347228  0
O  O54  1  0.46793321  0.91489279  0.07828922  1  -1.23336  0  -0.221239  -0.574763  0  2.28889  0
O  O55  1  0.96763761  0.08635308  0.92631323  1  -1.235532  0  -0.222029  -0.578416  0  2.288339  0
O  O56  1  0.30670473  0.09044196  0.08157752  1  -1.241694  0  -0.226708  -0.555872  0  2.400563  0
O  O57  1  0.81226526  0.90957593  0.92254391  1  -1.241227  0  -0.227821  -0.55838  0  2.399324  0
O  O58  1  0.63642399  0.05807955  0.00184914  1  -1.449309  0  -0.445545  -0.990232  0  2.181727  0
O  O59  1  0.13806644  0.94298411  0.00210067  1  -1.433852  0  -0.445941  -0.99062  0  2.187882  0
O  O60  1  0.47654559  0.16038108  0.20791182  1  -1.105361  0  -0.343838  -0.39957  0  2.369458  0
O  O61  1  0.98666478  0.82073212  0.80254069  1  -1.115998  0  -0.346878  -0.400833  0  2.381507  0
O  O62  1  0.94078120  0.20255330  0.20516570  1  -1.136274  0  -0.346461  -0.418694  0  2.352033  0
O  O63  1  0.44803429  0.79488540  0.80273978  1  -1.129034  0  -0.345309  -0.41586  0  2.365297  0
