# generated using pymatgen
data_Cu2H10C12(IN2)3
_symmetry_space_group_name_H-M   'P 1'
_cell_length_a   7.33187237
_cell_length_b   14.31567063
_cell_length_c   17.22170767
_cell_angle_alpha   89.99968977
_cell_angle_beta   96.33756669
_cell_angle_gamma   89.99963935
_symmetry_Int_Tables_number   1
_chemical_formula_structural   Cu2H10C12(IN2)3
_chemical_formula_sum   'Cu8 H40 C48 I12 N24'
_cell_volume   1796.55534534
_cell_formula_units_Z   4
loop_
 _symmetry_equiv_pos_site_id
 _symmetry_equiv_pos_as_xyz
  1  'x, y, z'
loop_
 _atom_site_type_symbol
 _atom_site_label
 _atom_site_symmetry_multiplicity
 _atom_site_fract_x
 _atom_site_fract_y
 _atom_site_fract_z
 _atom_site_occupancy
 _atom_site_hle17_bader_spin_density
 _atom_site_hle17_ddec_charge
 _atom_site_hle17_ddec_spin_density
 _atom_site_hle17_ddec_sum_bond_order
 _atom_site_hle17_magmom
 _atom_site_hse06_10hf_bader_spin_density
 _atom_site_hse06_10hf_ddec_charge
 _atom_site_hse06_10hf_ddec_spin_density
 _atom_site_hse06_10hf_ddec_sum_bond_order
 _atom_site_hse06_10hf_magmom
 _atom_site_hse06_bader_spin_density
 _atom_site_hse06_ddec_charge
 _atom_site_hse06_ddec_spin_density
 _atom_site_hse06_ddec_sum_bond_order
 _atom_site_hse06_magmom
 _atom_site_pbe_bader_spin_density
 _atom_site_pbe_cm5_charge
 _atom_site_pbe_ddec_charge
 _atom_site_pbe_ddec_spin_density
 _atom_site_pbe_ddec_sum_bond_order
 _atom_site_pbe_magmom
Cu  Cu0  1  0.16182678  0.18214626  0.87716380  1  0  0.392887  0  1.912785  0  0  0.272437  0  2.387279  0  0  0.277755  0  2.340417  0  0  0.425939  0.272278  0  2.416829  0
Cu  Cu1  1  0.33819242  0.68214781  0.62283710  1  0  0.392921  0  1.912834  0  0  0.2725  0  2.387314  0  0  0.277802  0  2.340462  0  0  0.425999  0.272346  0  2.416855  0
Cu  Cu2  1  0.83818423  0.81785025  0.12283803  1  0  0.392917  0  1.912801  0  0  0.272487  0  2.387308  0  0  0.277798  0  2.340447  0  0  0.425965  0.27233  0  2.416855  0
Cu  Cu3  1  0.66181173  0.31784869  0.37716092  1  0  0.392971  0  1.912834  0  0  0.272527  0  2.387334  0  0  0.277841  0  2.340478  0  0  0.425959  0.272357  0  2.416865  0
Cu  Cu4  1  0.19700334  0.10756698  0.69438706  1  0  0.325847  0  2.195954  0  0  0.228099  0  2.69504  0  0  0.22588  0  2.652932  0  0  0.371575  0.234917  0  2.71915  0
Cu  Cu5  1  0.30299355  0.60756607  0.80561546  1  0  0.32584  0  2.195949  0  0  0.228084  0  2.69503  0  0  0.225861  0  2.652932  0  0  0.37155  0.234913  0  2.719106  0
Cu  Cu6  1  0.80299532  0.89244420  0.30561244  1  0  0.325787  0  2.196035  0  0  0.228052  0  2.695139  0  0  0.225833  0  2.653031  0  0  0.371493  0.23486  0  2.719215  0
Cu  Cu7  1  0.69700786  0.39244091  0.19438882  1  0  0.325806  0  2.195933  0  0  0.228047  0  2.695011  0  0  0.225833  0  2.652914  0  0  0.371498  0.234862  0  2.7191  0
H  H8  1  0.54162433  0.12500771  0.61201516  1  0  0.114414  0  0.943651  0  0  0.121963  0  1.008009  0  0  0.12683  0  1.004675  0  0  0.106235  0.118381  0  1.010562  0
H  H9  1  0.95837186  0.62501136  0.88797876  1  0  0.114379  0  0.94357  0  0  0.12192  0  1.00795  0  0  0.126786  0  1.004621  0  0  0.10618  0.118337  0  1.010537  0
H  H10  1  0.45836610  0.87498950  0.38798164  1  0  0.114387  0  0.943624  0  0  0.121933  0  1.007994  0  0  0.126797  0  1.004667  0  0  0.106207  0.118359  0  1.010539  0
H  H11  1  0.04163366  0.37498934  0.11201701  1  0  0.11438  0  0.943618  0  0  0.121923  0  1.007983  0  0  0.126791  0  1.004648  0  0  0.106201  0.11835  0  1.010532  0
H  H12  1  0.49155533  0.17703283  0.97402310  1  0  0.0957  0  1.021363  0  0  0.09793  0  1.09845  0  0  0.101805  0  1.095544  0  0  0.084298  0.09506  0  1.100638  0
H  H13  1  0.00846257  0.67703818  0.52598008  1  0  0.095732  0  1.021386  0  0  0.097941  0  1.098464  0  0  0.101811  0  1.095569  0  0  0.084303  0.095067  0  1.1007  0
H  H14  1  0.50844745  0.82296228  0.02598124  1  0  0.095681  0  1.021444  0  0  0.097901  0  1.0985  0  0  0.101798  0  1.095579  0  0  0.084291  0.095003  0  1.10071  0
H  H15  1  0.99155393  0.32296392  0.47402026  1  0  0.095707  0  1.021418  0  0  0.097946  0  1.098469  0  0  0.10182  0  1.095562  0  0  0.084289  0.095065  0  1.100658  0
H  H16  1  0.59782906  0.15255829  0.47286361  1  0  0.078318  0  0.930986  0  0  0.087267  0  0.995518  0  0  0.090973  0  0.992014  0  0  0.11173  0.084572  0  0.998127  0
H  H17  1  0.90217872  0.65255816  0.02713200  1  0  0.078354  0  0.931017  0  0  0.0873  0  0.995536  0  0  0.090973  0  0.992068  0  0  0.111739  0.084606  0  0.998146  0
H  H18  1  0.40217783  0.84743961  0.52713570  1  0  0.078336  0  0.931036  0  0  0.087304  0  0.995543  0  0  0.091007  0  0.992041  0  0  0.111774  0.084616  0  0.998156  0
H  H19  1  0.09783228  0.34743555  0.97286693  1  0  0.078243  0  0.931108  0  0  0.087238  0  0.995625  0  0  0.09093  0  0.992136  0  0  0.111739  0.08455  0  0.998233  0
H  H20  1  0.63943785  0.45337405  0.90071020  1  0  0.120663  0  0.94708  0  0  0.126996  0  1.012089  0  0  0.131933  0  1.008397  0  0  0.10843  0.123364  0  1.014868  0
H  H21  1  0.86056488  0.95337499  0.59928659  1  0  0.120688  0  0.947113  0  0  0.127049  0  1.012091  0  0  0.131991  0  1.008392  0  0  0.108454  0.123433  0  1.014905  0
H  H22  1  0.36055533  0.54662525  0.09929254  1  0  0.120643  0  0.947094  0  0  0.127003  0  1.01207  0  0  0.131938  0  1.008378  0  0  0.108453  0.123371  0  1.014847  0
H  H23  1  0.13944338  0.04662501  0.40071220  1  0  0.120671  0  0.947039  0  0  0.127011  0  1.012045  0  0  0.131953  0  1.008347  0  0  0.108445  0.123377  0  1.01483  0
H  H24  1  0.52590184  0.42569911  0.64005054  1  0  0.107024  0  0.977317  0  0  0.112122  0  1.0486  0  0  0.116417  0  1.046168  0  0  0.095323  0.108854  0  1.050714  0
H  H25  1  0.97409715  0.92570079  0.85994969  1  0  0.10699  0  0.977403  0  0  0.112126  0  1.048642  0  0  0.116422  0  1.046209  0  0  0.095336  0.108889  0  1.050731  0
H  H26  1  0.47410092  0.57430298  0.35994510  1  0  0.106974  0  0.977337  0  0  0.112079  0  1.048598  0  0  0.116375  0  1.046167  0  0  0.095301  0.108818  0  1.05071  0
H  H27  1  0.02589603  0.07430060  0.14005363  1  0  0.106977  0  0.977351  0  0  0.112073  0  1.048623  0  0  0.116367  0  1.046195  0  0  0.095283  0.108811  0  1.050733  0
H  H28  1  0.59625102  0.44001801  0.50304419  1  0  0.07344  0  0.96015  0  0  0.079864  0  1.030357  0  0  0.082803  0  1.026948  0  0  0.105608  0.077556  0  1.033096  0
H  H29  1  0.90375189  0.94002184  0.99695558  1  0  0.073406  0  0.96006  0  0  0.079876  0  1.030222  0  0  0.082816  0  1.026813  0  0  0.105601  0.07757  0  1.032971  0
H  H30  1  0.40376135  0.55997780  0.49695305  1  0  0.073417  0  0.96013  0  0  0.079908  0  1.03028  0  0  0.082849  0  1.026867  0  0  0.105622  0.077606  0  1.033017  0
H  H31  1  0.09624403  0.05997467  0.00304845  1  0  0.07337  0  0.960163  0  0  0.079827  0  1.030361  0  0  0.082765  0  1.026951  0  0  0.105581  0.077523  0  1.033102  0
H  H32  1  0.55604645  0.23055587  0.11137547  1  0  0.079765  0  0.946571  0  0  0.081287  0  1.023044  0  0  0.085428  0  1.01891  0  0  0.101159  0.078236  0  1.026075  0
H  H33  1  0.94395755  0.73055747  0.38862483  1  0  0.07981  0  0.946547  0  0  0.081324  0  1.023008  0  0  0.085467  0  1.018867  0  0  0.10117  0.078251  0  1.026063  0
H  H34  1  0.44394810  0.76944413  0.88862907  1  0  0.079726  0  0.94671  0  0  0.081329  0  1.023102  0  0  0.085482  0  1.018948  0  0  0.101164  0.078235  0  1.026183  0
H  H35  1  0.05604660  0.26944602  0.61137435  1  0  0.079765  0  0.946583  0  0  0.081285  0  1.023045  0  0  0.085425  0  1.01891  0  0  0.101176  0.078234  0  1.026082  0
H  H36  1  0.71028463  0.49354806  0.04216418  1  0  0.068333  0  0.955106  0  0  0.075909  0  1.022009  0  0  0.078838  0  1.019958  0  0  0.104297  0.073824  0  1.023532  0
H  H37  1  0.78971033  0.99354972  0.45783334  1  0  0.068401  0  0.955135  0  0  0.075954  0  1.022037  0  0  0.078881  0  1.01999  0  0  0.104308  0.073866  0  1.023559  0
H  H38  1  0.28970992  0.50644705  0.95783920  1  0  0.068452  0  0.955039  0  0  0.076005  0  1.021957  0  0  0.078928  0  1.019912  0  0  0.104331  0.073923  0  1.023474  0
H  H39  1  0.21028971  0.00645028  0.54216739  1  0  0.068396  0  0.955117  0  0  0.075968  0  1.022  0  0  0.078898  0  1.019952  0  0  0.104318  0.073882  0  1.023526  0
H  H40  1  0.71030083  0.42651154  0.75390368  1  0  0.277911  0  0.938466  0  0  0.264881  0  1.010425  0  0  0.270355  0  1.005591  0  0  0.277705  0.26081  0  1.014541  0
H  H41  1  0.78970364  0.92651386  0.74609389  1  0  0.27798  0  0.9385  0  0  0.264932  0  1.01051  0  0  0.270407  0  1.005674  0  0  0.277721  0.261087  0  1.013983  0
H  H42  1  0.28969920  0.57348986  0.24609589  1  0  0.277917  0  0.938488  0  0  0.264865  0  1.010499  0  0  0.270341  0  1.005662  0  0  0.277719  0.260801  0  1.014616  0
H  H43  1  0.21030188  0.07348684  0.25390419  1  0  0.277937  0  0.938438  0  0  0.264918  0  1.010383  0  0  0.270392  0  1.005547  0  0  0.277727  0.260845  0  1.014501  0
H  H44  1  0.83921972  0.32868842  0.76461438  1  0  0.276554  0  0.937496  0  0  0.261351  0  1.014284  0  0  0.267708  0  1.007875  0  0  0.274954  0.256547  0  1.019687  0
H  H45  1  0.66079019  0.82869193  0.73538389  1  0  0.276553  0  0.937595  0  0  0.261324  0  1.014418  0  0  0.267665  0  1.008026  0  0  0.274945  0.256789  0  1.019124  0
H  H46  1  0.16077894  0.67131297  0.23538687  1  0  0.276483  0  0.937551  0  0  0.261288  0  1.014326  0  0  0.267643  0  1.007921  0  0  0.274943  0.256494  0  1.01973  0
H  H47  1  0.33921945  0.17130947  0.26461322  1  0  0.276527  0  0.937539  0  0  0.261312  0  1.014347  0  0  0.267654  0  1.007954  0  0  0.274939  0.256518  0  1.019739  0
C  C48  1  0.50145053  0.28204193  0.84574749  1  0  0.26646  0  3.705478  0  0  0.229157  0  3.969263  0  0  0.2425  0  3.980907  0  0  0.234463  0.213268  0  3.960047  0
C  C49  1  0.99856138  0.78204416  0.65425284  1  0  0.266333  0  3.705582  0  0  0.229092  0  3.969315  0  0  0.242434  0  3.980966  0  0  0.234433  0.218923  0  3.962731  0
C  C50  1  0.49855225  0.71795947  0.15425395  1  0  0.266437  0  3.705373  0  0  0.229068  0  3.969293  0  0  0.24241  0  3.980933  0  0  0.234408  0.213172  0  3.960073  0
C  C51  1  0.00144689  0.21795584  0.34574770  1  0  0.26644  0  3.705666  0  0  0.229235  0  3.969305  0  0  0.242577  0  3.980948  0  0  0.234531  0.21338  0  3.960091  0
C  C52  1  0.49160450  0.26178623  0.71855103  1  0  0.245332  0  3.69934  0  0  0.209883  0  3.96851  0  0  0.221785  0  3.980749  0  0  0.227677  0.194959  0  3.959067  0
C  C53  1  0.00839304  0.76178993  0.78144733  1  0  0.245336  0  3.699447  0  0  0.209788  0  3.96866  0  0  0.221681  0  3.980902  0  0  0.227665  0.2006  0  3.961819  0
C  C54  1  0.50838044  0.73821796  0.28144609  1  0  0.245512  0  3.699354  0  0  0.210071  0  3.96845  0  0  0.221962  0  3.980685  0  0  0.227733  0.19509  0  3.959077  0
C  C55  1  0.99160836  0.23821146  0.21855230  1  0  0.245185  0  3.699678  0  0  0.209753  0  3.968734  0  0  0.221651  0  3.980975  0  0  0.227609  0.194886  0  3.959256  0
C  C56  1  0.65858905  0.42460837  0.02390006  1  0  0.101915  0  3.726093  0  0  0.077557  0  3.972538  0  0  0.082426  0  3.98884  0  0  0.031927  0.074061  0  3.962507  0
C  C57  1  0.84140135  0.92460764  0.47609931  1  0  0.101842  0  3.726107  0  0  0.077547  0  3.972545  0  0  0.08242  0  3.988846  0  0  0.031952  0.074052  0  3.962545  0
C  C58  1  0.34140001  0.57539023  0.97610190  1  0  0.101667  0  3.726201  0  0  0.077298  0  3.972704  0  0  0.082208  0  3.988941  0  0  0.031848  0.073797  0  3.96268  0
C  C59  1  0.15859731  0.07539166  0.52390369  1  0  0.101897  0  3.726528  0  0  0.077604  0  3.972917  0  0  0.082458  0  3.98924  0  0  0.031959  0.074113  0  3.962889  0
C  C60  1  0.62065151  0.40172843  0.94541828  1  0  -0.132221  0  3.703345  0  0  -0.153971  0  3.950928  0  0  -0.158621  0  3.967936  0  0  -0.080843  -0.1512  0  3.939831  0
C  C61  1  0.87935329  0.90172750  0.55458175  1  0  -0.132267  0  3.703411  0  0  -0.154018  0  3.950995  0  0  -0.158668  0  3.967998  0  0  -0.080856  -0.151205  0  3.939913  0
C  C62  1  0.37934852  0.59827086  0.05458304  1  0  -0.13215  0  3.703377  0  0  -0.153878  0  3.950964  0  0  -0.15853  0  3.967973  0  0  -0.080823  -0.151102  0  3.939867  0
C  C63  1  0.12064812  0.09827110  0.44542253  1  0  -0.132321  0  3.703529  0  0  -0.154096  0  3.951112  0  0  -0.158747  0  3.968116  0  0  -0.080905  -0.15133  0  3.940018  0
C  C64  1  0.55432301  0.31186345  0.92560814  1  0  0.053969  0  3.771652  0  0  0.067507  0  4.007234  0  0  0.071954  0  4.023858  0  0  0.008913  0.064313  0  3.997384  0
C  C65  1  0.94568987  0.81186427  0.57439326  1  0  0.054009  0  3.771669  0  0  0.06743  0  4.007397  0  0  0.071874  0  4.024027  0  0  0.008796  0.064475  0  3.99658  0
C  C66  1  0.44568388  0.68813585  0.07439350  1  0  0.054052  0  3.771517  0  0  0.067496  0  4.007287  0  0  0.071936  0  4.023925  0  0  0.008864  0.064299  0  3.997432  0
C  C67  1  0.05431291  0.18813782  0.42560934  1  0  0.054013  0  3.771642  0  0  0.067513  0  4.00722  0  0  0.071962  0  4.023848  0  0  0.008891  0.064323  0  3.997344  0
C  C68  1  0.53434664  0.24879324  0.98646992  1  0  -0.132555  0  3.714058  0  0  -0.151934  0  3.958003  0  0  -0.157451  0  3.97749  0  0  -0.086856  -0.14853  0  3.945155  0
C  C69  1  0.96565199  0.74879509  0.51353051  1  0  -0.13263  0  3.714229  0  0  -0.151944  0  3.958195  0  0  -0.157464  0  3.977693  0  0  -0.086821  -0.148537  0  3.945461  0
C  C70  1  0.46565476  0.75120396  0.01352971  1  0  -0.132592  0  3.714198  0  0  -0.151898  0  3.958171  0  0  -0.157437  0  3.977653  0  0  -0.08682  -0.148463  0  3.945339  0
C  C71  1  0.03434392  0.25120631  0.48646829  1  0  -0.132509  0  3.714109  0  0  -0.151878  0  3.958059  0  0  -0.157399  0  3.97755  0  0  -0.086799  -0.148456  0  3.945204  0
C  C72  1  0.57193205  0.27813393  0.06310792  1  0  0.120039  0  3.684229  0  0  0.091463  0  3.936674  0  0  0.096728  0  3.953043  0  0  0.030978  0.087738  0  3.926592  0
C  C73  1  0.92806856  0.77813527  0.43689201  1  0  0.120001  0  3.684262  0  0  0.09148  0  3.936678  0  0  0.096743  0  3.953055  0  0  0.030985  0.08777  0  3.926623  0
C  C74  1  0.42806661  0.72186467  0.93689449  1  0  0.120079  0  3.684363  0  0  0.091444  0  3.936777  0  0  0.096698  0  3.953161  0  0  0.030934  0.087759  0  3.926716  0
C  C75  1  0.07193010  0.22186822  0.56310692  1  0  0.119938  0  3.68405  0  0  0.091388  0  3.936522  0  0  0.09665  0  3.95289  0  0  0.030871  0.087643  0  3.926476  0
C  C76  1  0.58264653  0.21079786  0.51250953  1  0  0.115776  0  3.680376  0  0  0.088626  0  3.925493  0  0  0.094735  0  3.941151  0  0  0.035918  0.084231  0  3.915981  0
C  C77  1  0.91736086  0.71080031  0.98749149  1  0  0.115711  0  3.680264  0  0  0.088605  0  3.925364  0  0  0.094734  0  3.941027  0  0  0.035923  0.084227  0  3.9159  0
C  C78  1  0.41736723  0.78919934  0.48749243  1  0  0.115679  0  3.68028  0  0  0.088528  0  3.925433  0  0  0.09464  0  3.941052  0  0  0.035867  0.084151  0  3.915941  0
C  C79  1  0.08264192  0.28919620  0.01250879  1  0  0.115918  0  3.680114  0  0  0.088696  0  3.925243  0  0  0.094802  0  3.940933  0  0  0.035919  0.084313  0  3.915736  0
C  C80  1  0.55037999  0.19581479  0.58939379  1  0  -0.122989  0  3.694747  0  0  -0.143303  0  3.940564  0  0  -0.148163  0  3.957872  0  0  -0.079155  -0.140415  0  3.929384  0
C  C81  1  0.94961113  0.69582251  0.91060363  1  0  -0.122915  0  3.694756  0  0  -0.143274  0  3.940464  0  0  -0.148146  0  3.957774  0  0  -0.079072  -0.140377  0  3.929382  0
C  C82  1  0.44960769  0.80418032  0.41060230  1  0  -0.122905  0  3.694739  0  0  -0.143252  0  3.940493  0  0  -0.148128  0  3.957808  0  0  -0.079085  -0.140361  0  3.929315  0
C  C83  1  0.05039028  0.30417958  0.08939542  1  0  -0.122893  0  3.694807  0  0  -0.143241  0  3.940553  0  0  -0.148102  0  3.957853  0  0  -0.079068  -0.140357  0  3.929382  0
C  C84  1  0.53048870  0.27316626  0.63793350  1  0  0.053881  0  3.76791  0  0  0.065265  0  4.007768  0  0  0.070534  0  4.024205  0  0  0.007339  0.061329  0  3.998485  0
C  C85  1  0.96950136  0.77317493  0.86206236  1  0  0.053664  0  3.768233  0  0  0.065282  0  4.007815  0  0  0.070563  0  4.024235  0  0  0.007296  0.061625  0  3.997472  0
C  C86  1  0.46949073  0.72683024  0.36206105  1  0  0.053647  0  3.768177  0  0  0.065161  0  4.007831  0  0  0.070454  0  4.024226  0  0  0.00722  0.061227  0  3.998588  0
C  C87  1  0.03050278  0.22682926  0.13793624  1  0  0.053666  0  3.768332  0  0  0.065256  0  4.007844  0  0  0.070535  0  4.024263  0  0  0.007286  0.061306  0  3.998573  0
C  C88  1  0.54570763  0.36276186  0.60629396  1  0  -0.130841  0  3.701063  0  0  -0.154166  0  3.953916  0  0  -0.159286  0  3.970737  0  0  -0.081841  -0.151313  0  3.943528  0
C  C89  1  0.95428810  0.86276828  0.89370350  1  0  -0.130731  0  3.701163  0  0  -0.154176  0  3.954034  0  0  -0.159296  0  3.970846  0  0  -0.081877  -0.151252  0  3.94358  0
C  C90  1  0.45428965  0.63723604  0.39370084  1  0  -0.130813  0  3.701049  0  0  -0.154158  0  3.953915  0  0  -0.159288  0  3.970727  0  0  -0.081808  -0.1513  0  3.943527  0
C  C91  1  0.04569547  0.13723381  0.10629647  1  0  -0.130785  0  3.701241  0  0  -0.154188  0  3.954148  0  0  -0.159311  0  3.970959  0  0  -0.081809  -0.15133  0  3.943763  0
C  C92  1  0.58081958  0.37156499  0.52914702  1  0  0.122864  0  3.693383  0  0  0.092298  0  3.942583  0  0  0.098665  0  3.958333  0  0  0.034573  0.088021  0  3.932481  0
C  C93  1  0.91917602  0.87156684  0.97085039  1  0  0.122814  0  3.693286  0  0  0.092216  0  3.94256  0  0  0.098578  0  3.95831  0  0  0.034569  0.087955  0  3.932517  0
C  C94  1  0.41917907  0.62843291  0.47084842  1  0  0.122901  0  3.693376  0  0  0.092249  0  3.942667  0  0  0.098604  0  3.958411  0  0  0.03459  0.087988  0  3.932576  0
C  C95  1  0.08081166  0.12842757  0.02915093  1  0  0.122999  0  3.693508  0  0  0.092347  0  3.942765  0  0  0.098722  0  3.958508  0  0  0.034643  0.088079  0  3.932673  0
I  I96  1  0.90699363  0.11852348  0.77509229  1  0  -0.476239  0  1.41621  0  0  -0.418739  0  1.840022  0  0  -0.439441  0  1.804793  0  0  -0.234337  -0.403252  0  1.8624  0
I  I97  1  0.59300540  0.61852588  0.72491108  1  0  -0.476228  0  1.41627  0  0  -0.418762  0  1.840123  0  0  -0.439432  0  1.804844  0  0  -0.234363  -0.403202  0  1.862192  0
I  I98  1  0.09300778  0.88147512  0.22490793  1  0  -0.476194  0  1.416249  0  0  -0.418712  0  1.840064  0  0  -0.439402  0  1.804819  0  0  -0.234312  -0.403226  0  1.862454  0
I  I99  1  0.40698777  0.38147831  0.27509224  1  0  -0.476241  0  1.416246  0  0  -0.418727  0  1.840028  0  0  -0.439432  0  1.804803  0  0  -0.234361  -0.403262  0  1.862425  0
I  I100  1  0.34361860  0.94844655  0.72805718  1  0  -0.400964  0  1.333495  0  0  -0.37325  0  1.740977  0  0  -0.394068  0  1.713849  0  0  -0.221736  -0.359228  0  1.758329  0
I  I101  1  0.15638877  0.44844709  0.77193963  1  0  -0.400941  0  1.333472  0  0  -0.373219  0  1.740952  0  0  -0.39404  0  1.713826  0  0  -0.221753  -0.359352  0  1.758762  0
I  I102  1  0.65638556  0.05156392  0.27194781  1  0  -0.400953  0  1.333463  0  0  -0.37323  0  1.74093  0  0  -0.394055  0  1.713802  0  0  -0.221746  -0.359348  0  1.75872  0
I  I103  1  0.84360713  0.55156339  0.22805162  1  0  -0.40099  0  1.33343  0  0  -0.373283  0  1.740924  0  0  -0.394107  0  1.713799  0  0  -0.221769  -0.359414  0  1.758729  0
I  I104  1  0.05267557  0.48784105  0.58385984  1  0  -0.160873  0  1.343559  0  0  -0.13235  0  1.715397  0  0  -0.124705  0  1.696463  0  0  -0.062154  -0.137199  0  1.728306  0
I  I105  1  0.44732303  0.98784037  0.91613813  1  0  -0.160872  0  1.343507  0  0  -0.132351  0  1.715376  0  0  -0.124704  0  1.696446  0  0  -0.062163  -0.137207  0  1.728255  0
I  I106  1  0.94732172  0.51214986  0.41613961  1  0  -0.160907  0  1.343483  0  0  -0.13239  0  1.715327  0  0  -0.124744  0  1.696391  0  0  -0.062175  -0.137251  0  1.728233  0
I  I107  1  0.55267562  0.01215055  0.08385964  1  0  -0.160918  0  1.343434  0  0  -0.132405  0  1.715291  0  0  -0.124762  0  1.696363  0  0  -0.06218  -0.137263  0  1.728198  0
N  N108  1  0.36922964  0.22048729  0.82350619  1  0  -0.250156  0  3.309739  0  0  -0.195898  0  3.627717  0  0  -0.20392  0  3.629459  0  0  -0.28259  -0.192306  0  3.630415  0
N  N109  1  0.13077669  0.72048708  0.67649335  1  0  -0.249983  0  3.309682  0  0  -0.195684  0  3.627567  0  0  -0.203716  0  3.629326  0  0  -0.282469  -0.191413  0  3.627812  0
N  N110  1  0.63076491  0.77951760  0.17649487  1  0  -0.250158  0  3.30972  0  0  -0.195826  0  3.627667  0  0  -0.203849  0  3.629406  0  0  -0.282543  -0.192233  0  3.630361  0
N  N111  1  0.86923157  0.27951361  0.32350718  1  0  -0.250153  0  3.310011  0  0  -0.195886  0  3.627923  0  0  -0.203907  0  3.629668  0  0  -0.282548  -0.192292  0  3.630599  0
N  N112  1  0.36510897  0.20669986  0.74439438  1  0  -0.213659  0  3.240858  0  0  -0.170604  0  3.555548  0  0  -0.174821  0  3.558195  0  0  -0.262536  -0.169657  0  3.557336  0
N  N113  1  0.13489480  0.70670123  0.75560452  1  0  -0.213723  0  3.240747  0  0  -0.170721  0  3.555553  0  0  -0.174931  0  3.558196  0  0  -0.2626  -0.169118  0  3.554938  0
N  N114  1  0.63487734  0.79330782  0.25560571  1  0  -0.213723  0  3.240747  0  0  -0.170746  0  3.555512  0  0  -0.174955  0  3.558146  0  0  -0.262576  -0.169782  0  3.557308  0
N  N115  1  0.86511484  0.29330156  0.24439550  1  0  -0.213654  0  3.241052  0  0  -0.170678  0  3.555794  0  0  -0.174896  0  3.55844  0  0  -0.262613  -0.169741  0  3.557553  0
N  N116  1  0.57817955  0.31054225  0.78103684  1  0  0.003656  0  3.573373  0  0  0.08381  0  3.790826  0  0  0.070819  0  3.814521  0  0  -0.140382  0.114349  0  3.746139  0
N  N117  1  0.92182510  0.81054641  0.71896069  1  0  0.003781  0  3.573454  0  0  0.083948  0  3.790899  0  0  0.070956  0  3.814597  0  0  -0.140394  0.09397  0  3.775026  0
N  N118  1  0.42181773  0.68945985  0.21896260  1  0  0.003572  0  3.573408  0  0  0.083753  0  3.790858  0  0  0.07076  0  3.814555  0  0  -0.140361  0.114349  0  3.746136  0
N  N119  1  0.07818041  0.18945499  0.28103797  1  0  0.003771  0  3.573435  0  0  0.083872  0  3.790868  0  0  0.07088  0  3.814563  0  0  -0.140359  0.114309  0  3.746269  0
N  N120  1  0.73484757  0.36586108  0.78501403  1  0  -0.521769  0  3.027353  0  0  -0.519477  0  3.265563  0  0  -0.527693  0  3.264541  0  0  -0.504623  -0.520809  0  3.26076  0
N  N121  1  0.76515771  0.86586507  0.71498212  1  0  -0.521893  0  3.027411  0  0  -0.51958  0  3.265659  0  0  -0.527783  0  3.26467  0  0  -0.504642  -0.514632  0  3.266912  0
N  N122  1  0.26514972  0.63414032  0.21498542  1  0  -0.521658  0  3.027361  0  0  -0.519366  0  3.265564  0  0  -0.527583  0  3.264541  0  0  -0.504597  -0.520707  0  3.260744  0
N  N123  1  0.23485055  0.13413632  0.28501551  1  0  -0.521812  0  3.027229  0  0  -0.519524  0  3.26548  0  0  -0.527723  0  3.264483  0  0  -0.504675  -0.520837  0  3.260679  0
N  N124  1  0.63198209  0.36523832  0.08250498  1  0  -0.274396  0  3.406795  0  0  -0.204152  0  3.701532  0  0  -0.211228  0  3.707433  0  0  -0.370288  -0.200392  0  3.697236  0
N  N125  1  0.86801871  0.86523998  0.41749340  1  0  -0.2744  0  3.406862  0  0  -0.204243  0  3.701663  0  0  -0.211324  0  3.707569  0  0  -0.370347  -0.200482  0  3.697368  0
N  N126  1  0.36801794  0.63475889  0.91749808  1  0  -0.274397  0  3.406816  0  0  -0.204153  0  3.701551  0  0  -0.211248  0  3.707479  0  0  -0.370277  -0.200386  0  3.69725  0
N  N127  1  0.13197858  0.13476142  0.58250604  1  0  -0.274354  0  3.406856  0  0  -0.204191  0  3.701654  0  0  -0.211253  0  3.70754  0  0  -0.370291  -0.200427  0  3.697361  0
N  N128  1  0.59928235  0.29743516  0.48199812  1  0  -0.278067  0  3.403966  0  0  -0.197819  0  3.695345  0  0  -0.207459  0  3.702144  0  0  -0.371624  -0.192199  0  3.690457  0
N  N129  1  0.90071388  0.79743999  0.01800209  1  0  -0.277905  0  3.403761  0  0  -0.197702  0  3.695203  0  0  -0.207327  0  3.701978  0  0  -0.371621  -0.192127  0  3.690382  0
N  N130  1  0.40072454  0.70255995  0.51800061  1  0  -0.277832  0  3.403858  0  0  -0.197619  0  3.695292  0  0  -0.207224  0  3.702065  0  0  -0.371561  -0.192036  0  3.690459  0
N  N131  1  0.09927655  0.20255512  0.98200052  1  0  -0.278002  0  3.403785  0  0  -0.19769  0  3.695168  0  0  -0.207331  0  3.701954  0  0  -0.371554  -0.192085  0  3.690305  0
