# generated using pymatgen
data_K3H3CS3O10
_symmetry_space_group_name_H-M   'P 1'
_cell_length_a   9.40536303
_cell_length_b   9.35883974
_cell_length_c   12.26312172
_cell_angle_alpha   89.99966717
_cell_angle_beta   90.00000271
_cell_angle_gamma   90.00012391
_symmetry_Int_Tables_number   1
_chemical_formula_structural   K3H3CS3O10
_chemical_formula_sum   'K12 H12 C4 S12 O40'
_cell_volume   1079.44026236
_cell_formula_units_Z   4
loop_
 _symmetry_equiv_pos_site_id
 _symmetry_equiv_pos_as_xyz
  1  'x, y, z'
loop_
 _atom_site_type_symbol
 _atom_site_label
 _atom_site_symmetry_multiplicity
 _atom_site_fract_x
 _atom_site_fract_y
 _atom_site_fract_z
 _atom_site_occupancy
 _atom_site_hle17_bader_spin_density
 _atom_site_hle17_ddec_charge
 _atom_site_hle17_ddec_spin_density
 _atom_site_hle17_ddec_sum_bond_order
 _atom_site_hle17_magmom
 _atom_site_hse06_10hf_bader_spin_density
 _atom_site_hse06_10hf_ddec_charge
 _atom_site_hse06_10hf_ddec_spin_density
 _atom_site_hse06_10hf_ddec_sum_bond_order
 _atom_site_hse06_10hf_magmom
 _atom_site_hse06_bader_spin_density
 _atom_site_hse06_ddec_charge
 _atom_site_hse06_ddec_spin_density
 _atom_site_hse06_ddec_sum_bond_order
 _atom_site_hse06_magmom
 _atom_site_pbe_bader_spin_density
 _atom_site_pbe_cm5_charge
 _atom_site_pbe_ddec_charge
 _atom_site_pbe_ddec_spin_density
 _atom_site_pbe_ddec_sum_bond_order
 _atom_site_pbe_magmom
K  K0  1  0.01293624  0.00041863  0.06249958  1  0  0.952093  0  0.499682  0  0  0.919102  0  0.684122  0  0  0.930431  0  0.66327  0  0  0.871613  0.910194  0  0.699446  0
K  K1  1  0.48705939  0.99958170  0.56250057  1  0  0.952081  0  0.499697  0  0  0.919092  0  0.68414  0  0  0.930413  0  0.663292  0  0  0.871596  0.910209  0  0.69942  0
K  K2  1  0.51293345  0.49958029  0.93749918  1  0  0.952092  0  0.499676  0  0  0.919099  0  0.684091  0  0  0.930418  0  0.663254  0  0  0.871627  0.910211  0  0.699386  0
K  K3  1  0.98706719  0.50041720  0.43749762  1  0  0.952108  0  0.499669  0  0  0.919093  0  0.684121  0  0  0.930414  0  0.663276  0  0  0.871607  0.910203  0  0.69942  0
K  K4  1  0.24978267  0.65360523  0.16558445  1  0  0.944421  0  0.524217  0  0  0.907209  0  0.716397  0  0  0.919349  0  0.694838  0  0  0.907457  0.898039  0  0.73174  0
K  K5  1  0.25021721  0.34639752  0.66558425  1  0  0.944407  0  0.524211  0  0  0.907181  0  0.7164  0  0  0.919312  0  0.694847  0  0  0.907449  0.898013  0  0.731743  0
K  K6  1  0.74978593  0.84639850  0.83441781  1  0  0.944388  0  0.52423  0  0  0.907164  0  0.716433  0  0  0.919294  0  0.694891  0  0  0.907421  0.898005  0  0.731756  0
K  K7  1  0.75021896  0.15360191  0.33441615  1  0  0.944413  0  0.524214  0  0  0.907188  0  0.716411  0  0  0.919323  0  0.694853  0  0  0.907439  0.898016  0  0.731759  0
K  K8  1  0.70549722  0.72831886  0.21544517  1  0  0.964311  0  0.39852  0  0  0.932496  0  0.555106  0  0  0.944627  0  0.534841  0  0  0.774478  0.922876  0  0.570158  0
K  K9  1  0.79450341  0.27167925  0.71544367  1  0  0.964296  0  0.398532  0  0  0.932475  0  0.555119  0  0  0.944609  0  0.534844  0  0  0.774486  0.922854  0  0.570174  0
K  K10  1  0.20549532  0.77167623  0.78455627  1  0  0.964303  0  0.398522  0  0  0.932499  0  0.555103  0  0  0.94463  0  0.534836  0  0  0.77449  0.922878  0  0.570158  0
K  K11  1  0.29450244  0.22832348  0.28455673  1  0  0.964294  0  0.39854  0  0  0.932468  0  0.555142  0  0  0.944599  0  0.534871  0  0  0.774478  0.922844  0  0.570198  0
H  H12  1  0.87006466  0.36685354  0.99295844  1  0  0.194712  0  0.932899  0  0  0.19594  0  0.992686  0  0  0.202428  0  0.98807  0  0  0.139218  0.191308  0  0.996196  0
H  H13  1  0.62993598  0.63314994  0.49295628  1  0  0.194764  0  0.932819  0  0  0.196005  0  0.992603  0  0  0.202509  0  0.987969  0  0  0.139234  0.19135  0  0.996142  0
H  H14  1  0.37006667  0.13314829  0.00704033  1  0  0.194663  0  0.932976  0  0  0.195919  0  0.992706  0  0  0.202408  0  0.98809  0  0  0.139196  0.191291  0  0.996215  0
H  H15  1  0.12993746  0.86685246  0.50704108  1  0  0.194731  0  0.932958  0  0  0.196023  0  0.992656  0  0  0.202521  0  0.988029  0  0  0.139225  0.191367  0  0.996198  0
H  H16  1  0.99606260  0.01279148  0.74994036  1  0  0.420388  0  0.881987  0  0  0.391204  0  0.945248  0  0  0.40094  0  0.930622  0  0  0.296201  0.384307  0  0.955592  0
H  H17  1  0.50393803  0.98720957  0.24993989  1  0  0.420438  0  0.881914  0  0  0.391269  0  0.945148  0  0  0.401004  0  0.930523  0  0  0.296221  0.384371  0  0.9555  0
H  H18  1  0.49606113  0.48720848  0.25006005  1  0  0.420641  0  0.881631  0  0  0.391471  0  0.944873  0  0  0.401205  0  0.930249  0  0  0.296304  0.384572  0  0.955226  0
H  H19  1  0.00393876  0.51278935  0.75005992  1  0  0.42053  0  0.881779  0  0  0.391366  0  0.945006  0  0  0.4011  0  0.930383  0  0  0.296266  0.384468  0  0.955358  0
H  H20  1  0.05002374  0.12159956  0.83509460  1  0  0.424565  0  0.862886  0  0  0.398258  0  0.925055  0  0  0.407448  0  0.911348  0  0  0.305814  0.391697  0  0.934851  0
H  H21  1  0.44997828  0.87840083  0.33509463  1  0  0.424573  0  0.862879  0  0  0.398271  0  0.925035  0  0  0.40746  0  0.911329  0  0  0.30583  0.391711  0  0.93483  0
H  H22  1  0.55002384  0.37840051  0.16490579  1  0  0.424475  0  0.862902  0  0  0.398176  0  0.925144  0  0  0.407366  0  0.911436  0  0  0.305809  0.391616  0  0.934938  0
H  H23  1  0.94997678  0.62159799  0.66490601  1  0  0.424569  0  0.862882  0  0  0.398276  0  0.925023  0  0  0.407464  0  0.911319  0  0  0.305847  0.391717  0  0.934817  0
C  C24  1  0.95734363  0.43068145  0.02766902  1  0  -0.545731  0  3.380229  0  0  -0.53543  0  3.627527  0  0  -0.548017  0  3.624851  0  0  -0.083059  -0.527126  0  3.629878  0
C  C25  1  0.54265911  0.56932343  0.52766781  1  0  -0.545566  0  3.379911  0  0  -0.535324  0  3.627223  0  0  -0.547933  0  3.624556  0  0  -0.083076  -0.527005  0  3.629588  0
C  C26  1  0.45734556  0.06931629  0.97233058  1  0  -0.545675  0  3.380207  0  0  -0.535366  0  3.62748  0  0  -0.547959  0  3.624815  0  0  -0.08306  -0.527067  0  3.629824  0
C  C27  1  0.04265435  0.93067558  0.47233199  1  0  -0.545654  0  3.380078  0  0  -0.535418  0  3.627327  0  0  -0.548026  0  3.624671  0  0  -0.083109  -0.527097  0  3.629691  0
S  S28  1  0.91436519  0.61699034  0.99802511  1  0  1.361969  0  5.680214  0  0  1.272891  0  6.204577  0  0  1.321297  0  6.178894  0  0  0.463906  1.239551  0  6.22133  0
S  S29  1  0.58562695  0.38300455  0.49803059  1  0  1.361743  0  5.680494  0  0  1.272684  0  6.204884  0  0  1.321093  0  6.179214  0  0  0.463837  1.239347  0  6.221628  0
S  S30  1  0.41436348  0.88300947  0.00197634  1  0  1.362057  0  5.680256  0  0  1.272982  0  6.204602  0  0  1.321391  0  6.17892  0  0  0.463922  1.239642  0  6.221353  0
S  S31  1  0.08563001  0.11699132  0.50197225  1  0  1.361774  0  5.680269  0  0  1.272709  0  6.204666  0  0  1.32112  0  6.178988  0  0  0.463854  1.239372  0  6.221408  0
S  S32  1  0.12138012  0.37214197  0.95981759  1  0  1.38329  0  5.601353  0  0  1.290935  0  6.125826  0  0  1.339336  0  6.101195  0  0  0.513193  1.257542  0  6.142005  0
S  S33  1  0.37861978  0.62785747  0.45981628  1  0  1.38339  0  5.601335  0  0  1.291057  0  6.125791  0  0  1.339461  0  6.101159  0  0  0.51325  1.257664  0  6.141967  0
S  S34  1  0.62137541  0.12786573  0.04018281  1  0  1.383232  0  5.601718  0  0  1.290854  0  6.126214  0  0  1.339257  0  6.101581  0  0  0.513188  1.257463  0  6.142388  0
S  S35  1  0.87862308  0.87213799  0.54018435  1  0  1.383356  0  5.601518  0  0  1.290989  0  6.126017  0  0  1.339394  0  6.101383  0  0  0.513225  1.257597  0  6.142193  0
S  S36  1  0.95490455  0.38519021  0.17323238  1  0  1.380673  0  5.658054  0  0  1.291716  0  6.183015  0  0  1.339973  0  6.158115  0  0  0.472414  1.258443  0  6.199323  0
S  S37  1  0.54509714  0.61479753  0.67323424  1  0  1.380529  0  5.658262  0  0  1.291584  0  6.183237  0  0  1.339844  0  6.158343  0  0  0.472421  1.258311  0  6.199544  0
S  S38  1  0.45490338  0.11481179  0.82676803  1  0  1.380621  0  5.658241  0  0  1.291659  0  6.183216  0  0  1.339917  0  6.158314  0  0  0.472413  1.258387  0  6.199527  0
S  S39  1  0.04509545  0.88519614  0.32676801  1  0  1.380542  0  5.658385  0  0  1.291587  0  6.183397  0  0  1.339849  0  6.1585  0  0  0.472399  1.258315  0  6.199694  0
O  O40  1  0.98546193  0.70455070  0.08057745  1  0  -0.734171  0  2.022117  0  0  -0.696397  0  2.293502  0  0  -0.715929  0  2.278949  0  0  -0.458504  -0.682569  0  2.303059  0
O  O41  1  0.51453656  0.29545164  0.58057257  1  0  -0.733937  0  2.022717  0  0  -0.696165  0  2.294121  0  0  -0.715699  0  2.279567  0  0  -0.45833  -0.682341  0  2.303677  0
O  O42  1  0.48545796  0.79544713  0.91942482  1  0  -0.73414  0  2.022073  0  0  -0.696383  0  2.293489  0  0  -0.715912  0  2.278937  0  0  -0.458457  -0.682558  0  2.303046  0
O  O43  1  0.01453556  0.20455049  0.41942538  1  0  -0.734016  0  2.022364  0  0  -0.696233  0  2.29375  0  0  -0.715769  0  2.279196  0  0  -0.458396  -0.682409  0  2.303306  0
O  O44  1  0.96440156  0.64530095  0.88652571  1  0  -0.733853  0  2.008658  0  0  -0.685579  0  2.265165  0  0  -0.70549  0  2.249704  0  0  -0.418827  -0.671492  0  2.275384  0
O  O45  1  0.53559801  0.35470120  0.38652152  1  0  -0.733883  0  2.008452  0  0  -0.685593  0  2.264946  0  0  -0.705509  0  2.249487  0  0  -0.418852  -0.671504  0  2.275162  0
O  O46  1  0.46439874  0.85469897  0.11347574  1  0  -0.733887  0  2.008666  0  0  -0.685633  0  2.265212  0  0  -0.705545  0  2.249749  0  0  -0.418846  -0.671545  0  2.275429  0
O  O47  1  0.03559689  0.14530097  0.61347561  1  0  -0.733826  0  2.008511  0  0  -0.685539  0  2.265007  0  0  -0.705456  0  2.249548  0  0  -0.418811  -0.671453  0  2.275223  0
O  O48  1  0.75867740  0.62419035  0.00619444  1  0  -0.748961  0  1.994222  0  0  -0.710559  0  2.259752  0  0  -0.730219  0  2.244937  0  0  -0.481778  -0.696527  0  2.269409  0
O  O49  1  0.74132641  0.37580721  0.50619411  1  0  -0.749043  0  1.994078  0  0  -0.710651  0  2.259627  0  0  -0.730288  0  2.24475  0  0  -0.481844  -0.696617  0  2.269281  0
O  O50  1  0.25867467  0.87580485  0.99380782  1  0  -0.749018  0  1.994264  0  0  -0.710631  0  2.259833  0  0  -0.730286  0  2.244999  0  0  -0.481801  -0.696595  0  2.269488  0
O  O51  1  0.24132310  0.12419327  0.49380792  1  0  -0.749014  0  1.994183  0  0  -0.710618  0  2.259721  0  0  -0.730252  0  2.244838  0  0  -0.481845  -0.696586  0  2.269374  0
O  O52  1  0.16657225  0.24126828  0.01526638  1  0  -0.690295  0  1.960069  0  0  -0.643517  0  2.21108  0  0  -0.663709  0  2.196731  0  0  -0.386329  -0.629136  0  2.220351  0
O  O53  1  0.33342656  0.75873562  0.51526761  1  0  -0.690447  0  1.959841  0  0  -0.643669  0  2.210844  0  0  -0.663864  0  2.196495  0  0  -0.386402  -0.629281  0  2.220093  0
O  O54  1  0.66656894  0.25872670  0.98473646  1  0  -0.690287  0  1.960409  0  0  -0.64348  0  2.211416  0  0  -0.663669  0  2.197065  0  0  -0.386294  -0.629102  0  2.220681  0
O  O55  1  0.83342851  0.74126723  0.48473302  1  0  -0.690423  0  1.960049  0  0  -0.643603  0  2.21103  0  0  -0.663797  0  2.196682  0  0  -0.386366  -0.62922  0  2.22029  0
O  O56  1  0.22243748  0.49043769  0.96884602  1  0  -0.722248  0  1.962166  0  0  -0.683836  0  2.224535  0  0  -0.703025  0  2.209717  0  0  -0.426708  -0.670242  0  2.234296  0
O  O57  1  0.27756348  0.50956596  0.46884768  1  0  -0.722247  0  1.96229  0  0  -0.683838  0  2.224669  0  0  -0.703028  0  2.209852  0  0  -0.426699  -0.670245  0  2.234429  0
O  O58  1  0.72243996  0.00955740  0.03115111  1  0  -0.722331  0  1.961932  0  0  -0.683909  0  2.224288  0  0  -0.703097  0  2.209467  0  0  -0.426796  -0.670315  0  2.234049  0
O  O59  1  0.77756384  0.99043677  0.53115131  1  0  -0.72228  0  1.96214  0  0  -0.68387  0  2.224509  0  0  -0.70306  0  2.20969  0  0  -0.426717  -0.670279  0  2.23427  0
O  O60  1  0.07287265  0.34370720  0.84697933  1  0  -0.735489  0  1.967785  0  0  -0.680542  0  2.217794  0  0  -0.701344  0  2.202506  0  0  -0.400742  -0.66581  0  2.22794  0
O  O61  1  0.42712618  0.65629631  0.34698198  1  0  -0.735505  0  1.967953  0  0  -0.680566  0  2.217993  0  0  -0.701369  0  2.202704  0  0  -0.40072  -0.665835  0  2.228136  0
O  O62  1  0.57287120  0.15629291  0.15301780  1  0  -0.735351  0  1.967956  0  0  -0.680407  0  2.217999  0  0  -0.701211  0  2.202714  0  0  -0.400675  -0.665674  0  2.22814  0
O  O63  1  0.92712836  0.84370353  0.65301621  1  0  -0.735386  0  1.967959  0  0  -0.680454  0  2.21802  0  0  -0.701256  0  2.202731  0  0  -0.400692  -0.665725  0  2.228163  0
O  O64  1  0.09496224  0.42359024  0.21756601  1  0  -0.764684  0  2.009901  0  0  -0.723339  0  2.27631  0  0  -0.742881  0  2.261153  0  0  -0.499749  -0.709431  0  2.286333  0
O  O65  1  0.40504402  0.57641638  0.71756561  1  0  -0.764526  0  2.010051  0  0  -0.723196  0  2.27648  0  0  -0.742732  0  2.261317  0  0  -0.499677  -0.709291  0  2.286506  0
O  O66  1  0.59496385  0.07641099  0.78243275  1  0  -0.764678  0  2.009697  0  0  -0.723342  0  2.276114  0  0  -0.742882  0  2.260954  0  0  -0.499771  -0.709437  0  2.286138  0
O  O67  1  0.90503678  0.92358875  0.28243421  1  0  -0.764644  0  2.009958  0  0  -0.723306  0  2.276376  0  0  -0.742846  0  2.261216  0  0  -0.499754  -0.709395  0  2.286395  0
O  O68  1  0.83857314  0.46619460  0.22348041  1  0  -0.720134  0  1.9375  0  0  -0.679368  0  2.190815  0  0  -0.698388  0  2.175749  0  0  -0.423927  -0.665864  0  2.200793  0
O  O69  1  0.66142323  0.53380879  0.72347937  1  0  -0.720055  0  1.937967  0  0  -0.679279  0  2.191268  0  0  -0.698297  0  2.176201  0  0  -0.423928  -0.665775  0  2.201248  0
O  O70  1  0.33857604  0.03380182  0.77651917  1  0  -0.720114  0  1.937531  0  0  -0.679356  0  2.190861  0  0  -0.698377  0  2.175795  0  0  -0.42394  -0.665853  0  2.200838  0
O  O71  1  0.16142066  0.96619154  0.27652125  1  0  -0.720047  0  1.937869  0  0  -0.679276  0  2.191179  0  0  -0.698297  0  2.176112  0  0  -0.423885  -0.665769  0  2.201154  0
O  O72  1  0.92810797  0.23147776  0.17178610  1  0  -0.722146  0  2.021275  0  0  -0.686134  0  2.294757  0  0  -0.706178  0  2.280734  0  0  -0.476513  -0.671951  0  2.303985  0
O  O73  1  0.57190010  0.76853136  0.67178728  1  0  -0.722265  0  2.020698  0  0  -0.686258  0  2.29419  0  0  -0.706304  0  2.280175  0  0  -0.47658  -0.672077  0  2.303415  0
O  O74  1  0.42810607  0.26851885  0.82821186  1  0  -0.722154  0  2.0216  0  0  -0.68611  0  2.295024  0  0  -0.706151  0  2.280999  0  0  -0.476495  -0.671932  0  2.304255  0
O  O75  1  0.07189276  0.73147412  0.32821252  1  0  -0.722169  0  2.021139  0  0  -0.686143  0  2.294598  0  0  -0.706189  0  2.280579  0  0  -0.476536  -0.671964  0  2.303823  0
O  O76  1  0.99285701  0.03442099  0.82827599  1  0  -0.908713  0  1.784756  0  0  -0.875055  0  1.950978  0  0  -0.890651  0  1.921486  0  0  -0.688152  -0.86382  0  1.971647  0
O  O77  1  0.50714256  0.96558053  0.32827562  1  0  -0.908748  0  1.784689  0  0  -0.875099  0  1.950895  0  0  -0.890696  0  1.921401  0  0  -0.688179  -0.863873  0  1.971558  0
O  O78  1  0.49285655  0.46558110  0.17172605  1  0  -0.908849  0  1.784501  0  0  -0.875216  0  1.950767  0  0  -0.890812  0  1.921271  0  0  -0.688255  -0.863988  0  1.971432  0
O  O79  1  0.00714440  0.53442054  0.67172500  1  0  -0.908841  0  1.784644  0  0  -0.875206  0  1.950843  0  0  -0.890802  0  1.921347  0  0  -0.688249  -0.863977  0  1.971507  0
