# generated using pymatgen
data_SmH23C40O11
_symmetry_space_group_name_H-M   'P 1'
_cell_length_a   12.13632325
_cell_length_b   12.08710847
_cell_length_c   13.19102969
_cell_angle_alpha   67.94445457
_cell_angle_beta   88.43390770
_cell_angle_gamma   76.99819994
_symmetry_Int_Tables_number   1
_chemical_formula_structural   SmH23C40O11
_chemical_formula_sum   'Sm2 H46 C80 O22'
_cell_volume   1743.94620139
_cell_formula_units_Z   2
loop_
 _symmetry_equiv_pos_site_id
 _symmetry_equiv_pos_as_xyz
  1  'x, y, z'
loop_
 _atom_site_type_symbol
 _atom_site_label
 _atom_site_symmetry_multiplicity
 _atom_site_fract_x
 _atom_site_fract_y
 _atom_site_fract_z
 _atom_site_occupancy
 _atom_site_hle17_bader_spin_density
 _atom_site_hle17_ddec_charge
 _atom_site_hle17_ddec_spin_density
 _atom_site_hle17_ddec_sum_bond_order
 _atom_site_hle17_magmom
 _atom_site_hse06_10hf_bader_spin_density
 _atom_site_hse06_10hf_ddec_charge
 _atom_site_hse06_10hf_ddec_spin_density
 _atom_site_hse06_10hf_ddec_sum_bond_order
 _atom_site_hse06_10hf_magmom
 _atom_site_hse06_bader_spin_density
 _atom_site_hse06_ddec_charge
 _atom_site_hse06_ddec_spin_density
 _atom_site_hse06_ddec_sum_bond_order
 _atom_site_hse06_magmom
 _atom_site_pbe_bader_spin_density
 _atom_site_pbe_cm5_charge
 _atom_site_pbe_ddec_charge
 _atom_site_pbe_ddec_spin_density
 _atom_site_pbe_ddec_sum_bond_order
 _atom_site_pbe_magmom
Sm  Sm0  1  0.60038466  0.30636145  0.40723090  1  0  2.258088  0  1.70072  0  0  2.111276  0  2.17353  0  0  2.214533  0  2.019789  0  0  1.503389  2.077122  0  2.208746  0
Sm  Sm1  1  0.39961624  0.69363877  0.59276957  1  0  2.258086  0  1.700739  0  0  2.111279  0  2.173543  0  0  2.21453  0  2.019809  0  0  1.503413  2.077137  0  2.208777  0
H  H2  1  0.61580613  0.34563366  0.05354995  1  0  0.120361  0  0.963972  0  0  0.127807  0  1.028009  0  0  0.132413  0  1.02518  0  0  0.106287  0.124555  0  1.030013  0
H  H3  1  0.38419292  0.65436748  0.94644873  1  0  0.12036  0  0.963964  0  0  0.127814  0  1.028001  0  0  0.132414  0  1.025178  0  0  0.106276  0.124567  0  1.029982  0
H  H4  1  0.48651145  0.29789956  0.93826848  1  0  0.092174  0  0.96428  0  0  0.101799  0  1.02785  0  0  0.103777  0  1.027374  0  0  0.103562  0.100352  0  1.028126  0
H  H5  1  0.51348818  0.70209884  0.06173189  1  0  0.092336  0  0.964206  0  0  0.10194  0  1.027786  0  0  0.103921  0  1.027305  0  0  0.103619  0.100494  0  1.028071  0
H  H6  1  0.33650330  0.42439231  0.24504206  1  0  0.144007  0  0.945774  0  0  0.152883  0  1.006548  0  0  0.157822  0  1.004137  0  0  0.114502  0.149287  0  1.00865  0
H  H7  1  0.66349577  0.57560884  0.75495890  1  0  0.143975  0  0.945825  0  0  0.152852  0  1.006595  0  0  0.15779  0  1.004184  0  0  0.114489  0.149261  0  1.008697  0
H  H8  1  0.98078254  0.39186189  0.18487282  1  0  0.160439  0  0.932088  0  0  0.168759  0  0.989931  0  0  0.17411  0  0.986644  0  0  0.118348  0.164941  0  0.992445  0
H  H9  1  0.01921708  0.60813650  0.81512680  1  0  0.160411  0  0.93209  0  0  0.168728  0  0.989953  0  0  0.174081  0  0.986664  0  0  0.11833  0.16491  0  0.992458  0
H  H10  1  0.88664833  0.29596522  0.92036055  1  0  0.112676  0  0.965404  0  0  0.124004  0  1.02323  0  0  0.126881  0  1.023308  0  0  0.103624  0.121917  0  1.023396  0
H  H11  1  0.11335027  0.70403410  0.07963878  1  0  0.112657  0  0.965413  0  0  0.124001  0  1.023224  0  0  0.126869  0  1.023312  0  0  0.103631  0.12193  0  1.023374  0
H  H12  1  0.08552284  0.27310475  0.86501922  1  0  0.099169  0  0.935796  0  0  0.112811  0  0.987237  0  0  0.115194  0  0.985982  0  0  0.108127  0.111066  0  0.988129  0
H  H13  1  0.91447659  0.72689456  0.13498009  1  0  0.099158  0  0.93583  0  0  0.112789  0  0.987279  0  0  0.115171  0  0.986023  0  0  0.108127  0.111046  0  0.988172  0
H  H14  1  0.35001831  0.07501348  0.99413713  1  0  0.093872  0  0.960391  0  0  0.105574  0  1.019958  0  0  0.107941  0  1.020353  0  0  0.098531  0.10391  0  1.019679  0
H  H15  1  0.64998258  0.92498674  0.00586182  1  0  0.093876  0  0.960381  0  0  0.105576  0  1.019949  0  0  0.10794  0  1.020352  0  0  0.098528  0.103913  0  1.019669  0
H  H16  1  0.41742033  0.98661342  0.85560688  1  0  0.089531  0  0.943389  0  0  0.104207  0  0.997386  0  0  0.10682  0  0.996649  0  0  0.103076  0.102352  0  0.997946  0
H  H17  1  0.58258120  0.01338771  0.14439173  1  0  0.089536  0  0.943367  0  0  0.104209  0  0.997369  0  0  0.106823  0  0.996629  0  0  0.103062  0.102341  0  0.99794  0
H  H18  1  0.41203445  0.12662856  0.65702365  1  0  0.104026  0  0.959334  0  0  0.112693  0  1.022914  0  0  0.116115  0  1.021427  0  0  0.106616  0.110325  0  1.023898  0
H  H19  1  0.58796562  0.87337167  0.34297608  1  0  0.104049  0  0.959339  0  0  0.112702  0  1.022928  0  0  0.116102  0  1.021468  0  0  0.106629  0.11034  0  1.02392  0
H  H20  1  0.34396763  0.35110002  0.60538147  1  0  0.083991  0  0.973279  0  0  0.093894  0  1.038484  0  0  0.098142  0  1.033978  0  0  0.105115  0.090902  0  1.041562  0
H  H21  1  0.65602977  0.64890114  0.39461801  1  0  0.083982  0  0.973309  0  0  0.093884  0  1.038511  0  0  0.098129  0  1.03401  0  0  0.105111  0.090894  0  1.041595  0
H  H22  1  0.78405206  0.99741756  0.26220725  1  0  0.104976  0  0.959592  0  0  0.115706  0  1.020679  0  0  0.118884  0  1.02022  0  0  0.099305  0.113459  0  1.021025  0
H  H23  1  0.21594967  0.00258265  0.73779243  1  0  0.104901  0  0.959705  0  0  0.115679  0  1.020712  0  0  0.118858  0  1.020254  0  0  0.099291  0.113435  0  1.02106  0
H  H24  1  0.98585398  0.93385491  0.22683437  1  0  0.087327  0  0.956267  0  0  0.100873  0  1.01186  0  0  0.103392  0  1.010171  0  0  0.100368  0.099041  0  1.013055  0
H  H25  1  0.01414712  0.06614438  0.77316716  1  0  0.087334  0  0.956246  0  0  0.100892  0  1.011825  0  0  0.103415  0  1.010136  0  0  0.10037  0.09906  0  1.013019  0
H  H26  1  0.87661769  0.22110933  0.42217777  1  0  0.149527  0  0.946009  0  0  0.157661  0  1.008194  0  0  0.162902  0  1.005224  0  0  0.119667  0.153422  0  1.01163  0
H  H27  1  0.12338359  0.77888905  0.57782331  1  0  0.149533  0  0.946005  0  0  0.157663  0  1.008194  0  0  0.162912  0  1.005217  0  0  0.119678  0.153424  0  1.01163  0
H  H28  1  0.23687263  0.23505633  0.47685265  1  0  0.13425  0  0.930742  0  0  0.146453  0  0.986579  0  0  0.150828  0  0.984555  0  0  0.110581  0.14338  0  0.988001  0
H  H29  1  0.76312585  0.76494757  0.52314510  1  0  0.134269  0  0.930765  0  0  0.146497  0  0.986571  0  0  0.150873  0  0.984547  0  0  0.110622  0.143422  0  0.987995  0
H  H30  1  0.38896976  0.99879125  0.24400445  1  0  0.082536  0  0.974294  0  0  0.09256  0  1.040534  0  0  0.094282  0  1.040222  0  0  0.098679  0.091302  0  1.040697  0
H  H31  1  0.61103134  0.00120804  0.75599784  1  0  0.082566  0  0.974358  0  0  0.092569  0  1.040615  0  0  0.09429  0  1.040304  0  0  0.098698  0.091309  0  1.040774  0
H  H32  1  0.51844440  0.08102326  0.32509968  1  0  0.117867  0  0.949433  0  0  0.126465  0  1.013124  0  0  0.130723  0  1.011055  0  0  0.110179  0.12329  0  1.015121  0
H  H33  1  0.48155670  0.91897604  0.67490261  1  0  0.117896  0  0.949453  0  0  0.126472  0  1.013175  0  0  0.130729  0  1.011109  0  0  0.110176  0.123295  0  1.01517  0
H  H34  1  0.09784691  0.07696590  0.06890496  1  0  0.090499  0  0.990388  0  0  0.098737  0  1.057406  0  0  0.10065  0  1.058978  0  0  0.096496  0.097316  0  1.056494  0
H  H35  1  0.90215298  0.92303524  0.93109598  1  0  0.090536  0  0.99034  0  0  0.098777  0  1.057359  0  0  0.100706  0  1.058913  0  0  0.096508  0.097359  0  1.056447  0
H  H36  1  0.16092508  0.96069359  0.94898457  1  0  0.090125  0  0.949799  0  0  0.10288  0  1.007554  0  0  0.105252  0  1.007113  0  0  0.10361  0.1012  0  1.007894  0
H  H37  1  0.83907417  0.03930664  0.05101594  1  0  0.090094  0  0.949811  0  0  0.102865  0  1.007549  0  0  0.105237  0  1.00711  0  0  0.103592  0.101189  0  1.007887  0
H  H38  1  0.30137482  0.76124119  0.02208076  1  0  0.096805  0  0.971829  0  0  0.107108  0  1.032669  0  0  0.110286  0  1.030991  0  0  0.105689  0.104858  0  1.0339  0
H  H39  1  0.69862360  0.23875904  0.97791977  1  0  0.096843  0  0.971825  0  0  0.107154  0  1.032645  0  0  0.110337  0  1.030968  0  0  0.105716  0.104906  0  1.03388  0
H  H40  1  0.37581115  0.67485922  0.21770435  1  0  0.112267  0  0.941021  0  0  0.124629  0  0.997107  0  0  0.12818  0  0.994831  0  0  0.113391  0.122166  0  0.998549  0
H  H41  1  0.62418746  0.32514009  0.78229573  1  0  0.112275  0  0.940971  0  0  0.124632  0  0.997065  0  0  0.128185  0  0.994789  0  0  0.113402  0.122173  0  0.998505  0
H  H42  1  0.79855795  0.39083867  0.14054737  1  0  0.409442  0  0.871937  0  0  0.379885  0  0.949888  0  0  0.391836  0  0.936585  0  0  0.312092  0.37142  0  0.959215  0
H  H43  1  0.20144167  0.60915972  0.85945224  1  0  0.409499  0  0.871858  0  0  0.379904  0  0.949847  0  0  0.391852  0  0.93655  0  0  0.312124  0.371442  0  0.959157  0
H  H44  1  0.37250793  0.43502144  0.44791229  1  0  0.428172  0  0.835613  0  0  0.410003  0  0.88803  0  0  0.418697  0  0.875222  0  0  0.323637  0.403843  0  0.897297  0
H  H45  1  0.62749297  0.56497878  0.55208741  1  0  0.428148  0  0.835637  0  0  0.409981  0  0.88806  0  0  0.418675  0  0.875251  0  0  0.323624  0.403823  0  0.897323  0
H  H46  1  0.42370449  0.55215688  0.39846341  1  0  0.450077  0  0.849132  0  0  0.419338  0  0.911785  0  0  0.430342  0  0.8959  0  0  0.302428  0.411716  0  0.922901  0
H  H47  1  0.57629642  0.44784333  0.60153705  1  0  0.450082  0  0.849125  0  0  0.419343  0  0.911779  0  0  0.430347  0  0.895895  0  0  0.302434  0.411723  0  0.922893  0
C  C48  1  0.48605818  0.38487462  0.15855518  1  0  0.453389  0  3.875212  0  0  0.44617  0  4.129438  0  0  0.470027  0  4.140308  0  0  0.116417  0.430096  0  4.124052  0
C  C49  1  0.51394106  0.61512561  0.84144381  1  0  0.45336  0  3.875266  0  0  0.446171  0  4.129448  0  0  0.470028  0  4.140318  0  0  0.116431  0.430098  0  4.12406  0
C  C50  1  0.52646723  0.35022109  0.06836376  1  0  -0.190762  0  3.680819  0  0  -0.209709  0  3.931926  0  0  -0.220334  0  3.949705  0  0  -0.095148  -0.202874  0  3.919658  0
C  C51  1  0.47353220  0.64977822  0.93163630  1  0  -0.190746  0  3.680716  0  0  -0.209714  0  3.931818  0  0  -0.220338  0  3.949602  0  0  -0.095157  -0.202867  0  3.919539  0
C  C52  1  0.45559856  0.32419577  0.00620958  1  0  -0.044601  0  3.74844  0  0  -0.068202  0  4.002226  0  0  -0.062671  0  4.021489  0  0  -0.080629  -0.071215  0  3.988729  0
C  C53  1  0.54440254  0.67580353  0.99379271  1  0  -0.044789  0  3.748491  0  0  -0.068375  0  4.002279  0  0  -0.062839  0  4.021526  0  0  -0.080643  -0.071398  0  3.988787  0
C  C54  1  0.33859508  0.33186854  0.02727401  1  0  -0.077898  0  3.800806  0  0  -0.072645  0  4.046031  0  0  -0.085716  0  4.070575  0  0  -0.01962  -0.064731  0  4.02983  0
C  C55  1  0.66140373  0.66812985  0.97272714  1  0  -0.077848  0  3.800803  0  0  -0.072562  0  4.046005  0  0  -0.085624  0  4.070546  0  0  -0.019631  -0.064642  0  4.029801  0
C  C56  1  0.29912427  0.36984740  0.11511864  1  0  0.304061  0  3.74464  0  0  0.285903  0  4.009501  0  0  0.305643  0  4.020819  0  0  0.106713  0.273119  0  4.001315  0
C  C57  1  0.70087517  0.63015192  0.88488066  1  0  0.304046  0  3.7446  0  0  0.285913  0  4.009431  0  0  0.305652  0  4.020748  0  0  0.106702  0.273123  0  4.001254  0
C  C58  1  0.36900697  0.39746655  0.17797653  1  0  -0.346041  0  3.702508  0  0  -0.377577  0  3.962299  0  0  -0.394635  0  3.979966  0  0  -0.118788  -0.36661  0  3.950898  0
C  C59  1  0.63099245  0.60253276  0.82202126  1  0  -0.346009  0  3.702477  0  0  -0.377565  0  3.962263  0  0  -0.394623  0  3.979928  0  0  -0.118812  -0.366604  0  3.950873  0
C  C60  1  0.26204925  0.30788230  0.96513582  1  0  0.113692  0  3.662593  0  0  0.107796  0  3.909278  0  0  0.124274  0  3.921599  0  0  0.043772  0.097012  0  3.900835  0
C  C61  1  0.73795038  0.69211609  0.03486531  1  0  0.113746  0  3.662479  0  0  0.107781  0  3.909276  0  0  0.124254  0  3.921603  0  0  0.043766  0.097005  0  3.900823  0
C  C62  1  0.14754987  0.31727455  0.99374154  1  0  -0.08578  0  3.81845  0  0  -0.083516  0  4.070569  0  0  -0.096248  0  4.095844  0  0  -0.024288  -0.07568  0  4.053971  0
C  C63  1  0.85244976  0.68272384  0.00625883  1  0  -0.085795  0  3.818481  0  0  -0.083557  0  4.070676  0  0  -0.096294  0  4.09596  0  0  -0.024293  -0.075733  0  4.054089  0
C  C64  1  0.11355600  0.35219177  0.08337476  1  0  0.291886  0  3.750968  0  0  0.273376  0  4.020092  0  0  0.290116  0  4.033637  0  0  0.103697  0.262343  0  4.01082  0
C  C65  1  0.88644281  0.64780663  0.91662639  1  0  0.291866  0  3.751026  0  0  0.27338  0  4.020168  0  0  0.290123  0  4.033712  0  0  0.103685  0.262358  0  4.010883  0
C  C66  1  0.00341597  0.36361794  0.11640790  1  0  -0.327776  0  3.701213  0  0  -0.363137  0  3.969557  0  0  -0.37592  0  3.986427  0  0  -0.116905  -0.354761  0  3.958282  0
C  C67  1  0.99658366  0.63638046  0.88359172  1  0  -0.327718  0  3.701191  0  0  -0.363062  0  3.969583  0  0  -0.375841  0  3.986445  0  0  -0.116886  -0.354686  0  3.958292  0
C  C68  1  0.92140957  0.34248765  0.05753058  1  0  0.39767  0  3.794668  0  0  0.387519  0  4.058171  0  0  0.405924  0  4.070019  0  0  0.103026  0.375171  0  4.04981  0
C  C69  1  0.07858942  0.65750983  0.94246937  1  0  0.397758  0  3.794541  0  0  0.387497  0  4.058198  0  0  0.405901  0  4.070046  0  0  0.103022  0.375148  0  4.049839  0
C  C70  1  0.95213597  0.30974343  0.96596705  1  0  -0.196825  0  3.71975  0  0  -0.218707  0  3.972523  0  0  -0.227818  0  3.991093  0  0  -0.102752  -0.212949  0  3.960204  0
C  C71  1  0.04786550  0.69025403  0.03403358  1  0  -0.196772  0  3.719656  0  0  -0.218641  0  3.972466  0  0  -0.227745  0  3.991042  0  0  -0.102725  -0.212895  0  3.960142  0
C  C72  1  0.06212441  0.29748213  0.93559244  1  0  -0.046973  0  3.759319  0  0  -0.06758  0  4.012123  0  0  -0.061974  0  4.02947  0  0  -0.078608  -0.07088  0  4.00029  0
C  C73  1  0.93787439  0.70251627  0.06440720  1  0  -0.046962  0  3.759319  0  0  -0.067527  0  4.012115  0  0  -0.061919  0  4.029463  0  0  -0.078595  -0.070833  0  4.000301  0
C  C74  1  0.30303530  0.26170065  0.87755312  1  0  0.034588  0  3.751118  0  0  0.046409  0  3.982369  0  0  0.044892  0  4.004543  0  0  0.000935  0.047524  0  3.967201  0
C  C75  1  0.69696477  0.73829957  0.12244585  1  0  0.034507  0  3.751101  0  0  0.04636  0  3.982364  0  0  0.044844  0  4.004538  0  0  0.000927  0.047471  0  3.967196  0
C  C76  1  0.34671510  0.13515675  0.90810946  1  0  -0.123405  0  3.751419  0  0  -0.143429  0  3.999174  0  0  -0.147197  0  4.021843  0  0  -0.091913  -0.140776  0  3.983657  0
C  C77  1  0.65328598  0.86484255  0.09188980  1  0  -0.123355  0  3.751374  0  0  -0.143378  0  3.999117  0  0  -0.147148  0  4.021788  0  0  -0.091881  -0.140721  0  3.983591  0
C  C78  1  0.38510883  0.08563799  0.82986099  1  0  -0.061408  0  3.772294  0  0  -0.074505  0  4.021305  0  0  -0.075178  0  4.041389  0  0  -0.087919  -0.073837  0  4.007407  0
C  C79  1  0.61489105  0.91436315  0.17013843  1  0  -0.061439  0  3.772218  0  0  -0.074539  0  4.021223  0  0  -0.07521  0  4.041301  0  0  -0.087904  -0.07385  0  4.007319  0
C  C80  1  0.38218057  0.16266857  0.71969077  1  0  -0.072623  0  3.752996  0  0  -0.089895  0  4.009954  0  0  -0.091777  0  4.029162  0  0  -0.087126  -0.088545  0  3.99654  0
C  C81  1  0.61781848  0.83733257  0.28030867  1  0  -0.072622  0  3.752894  0  0  -0.089871  0  4.009826  0  0  -0.091734  0  4.029042  0  0  -0.087114  -0.088524  0  3.996419  0
C  C82  1  0.34285798  0.28868736  0.68983302  1  0  -0.042928  0  3.738825  0  0  -0.069347  0  3.990379  0  0  -0.068519  0  4.008283  0  0  -0.077677  -0.069582  0  3.977614  0
C  C83  1  0.65714127  0.71131286  0.31016597  1  0  -0.042973  0  3.738841  0  0  -0.069392  0  3.990396  0  0  -0.068562  0  4.008293  0  0  -0.077693  -0.069629  0  3.977636  0
C  C84  1  0.30292942  0.33979454  0.76680522  1  0  -0.107468  0  3.708717  0  0  -0.091161  0  3.93832  0  0  -0.097876  0  3.959145  0  0  -0.012114  -0.086707  0  3.923868  0
C  C85  1  0.69706881  0.66020662  0.23319425  1  0  -0.10736  0  3.708539  0  0  -0.091074  0  3.938133  0  0  -0.097786  0  3.958954  0  0  -0.01209  -0.086614  0  3.923679  0
C  C86  1  0.26541022  0.47688358  0.73194879  1  0  0.703252  0  3.89204  0  0  0.654693  0  4.186503  0  0  0.68912  0  4.179373  0  0  0.224836  0.631153  0  4.192482  0
C  C87  1  0.73458718  0.52311758  0.26804994  1  0  0.703188  0  3.89204  0  0  0.654671  0  4.186438  0  0  0.689096  0  4.179309  0  0  0.224813  0.631134  0  4.19242  0
C  C88  1  0.38773945  0.16257655  0.40785227  1  0  0.45143  0  3.882311  0  0  0.444049  0  4.137561  0  0  0.465977  0  4.149523  0  0  0.109671  0.42943  0  4.130453  0
C  C89  1  0.61226005  0.83742642  0.59214729  1  0  0.451548  0  3.88219  0  0  0.444094  0  4.137542  0  0  0.466024  0  4.149501  0  0  0.109694  0.429485  0  4.13043  0
C  C90  1  0.81335806  0.11825095  0.34076788  1  0  0.461984  0  3.853796  0  0  0.451879  0  4.114912  0  0  0.476027  0  4.123827  0  0  0.112378  0.435872  0  4.110115  0
C  C91  1  0.18664387  0.88174834  0.65923363  1  0  0.462047  0  3.853721  0  0  0.45186  0  4.114958  0  0  0.476009  0  4.123873  0  0  0.112394  0.435849  0  4.110165  0
C  C92  1  0.84912187  0.03291108  0.28715563  1  0  -0.192535  0  3.694465  0  0  -0.210854  0  3.943313  0  0  -0.220723  0  3.96114  0  0  -0.102205  -0.204464  0  3.930766  0
C  C93  1  0.15087840  0.96708823  0.71284593  1  0  -0.192541  0  3.694578  0  0  -0.210852  0  3.943408  0  0  -0.220721  0  3.961236  0  0  -0.102213  -0.204462  0  3.930863  0
C  C94  1  0.96049433  0.99821458  0.26772947  1  0  -0.059022  0  3.777342  0  0  -0.081026  0  4.029037  0  0  -0.075631  0  4.048292  0  0  -0.086533  -0.083959  0  4.015629  0
C  C95  1  0.03950880  0.00178287  0.73227263  1  0  -0.058992  0  3.777383  0  0  -0.081024  0  4.029077  0  0  -0.075633  0  4.048337  0  0  -0.086517  -0.083949  0  4.015671  0
C  C96  1  0.04648337  0.04428534  0.29987961  1  0  -0.080623  0  3.809692  0  0  -0.075474  0  4.056779  0  0  -0.089058  0  4.083236  0  0  -0.023668  -0.067133  0  4.039019  0
C  C97  1  0.95351811  0.95571212  0.70012254  1  0  -0.080578  0  3.809717  0  0  -0.075422  0  4.056746  0  0  -0.089009  0  4.083207  0  0  -0.023639  -0.067103  0  4.039008  0
C  C98  1  0.01047445  0.12286253  0.35872149  1  0  0.296318  0  3.755409  0  0  0.278001  0  4.022442  0  0  0.296211  0  4.035932  0  0  0.103951  0.266367  0  4.012661  0
C  C99  1  0.98952703  0.87713493  0.64128066  1  0  0.296283  0  3.755512  0  0  0.278009  0  4.022483  0  0  0.296223  0  4.035974  0  0  0.103951  0.266377  0  4.012707  0
C  C100  1  0.89882970  0.16013599  0.37784538  1  0  -0.331449  0  3.668529  0  0  -0.36782  0  3.936738  0  0  -0.382709  0  3.951827  0  0  -0.114735  -0.358547  0  3.927819  0
C  C101  1  0.10117140  0.83986331  0.62215615  1  0  -0.331475  0  3.66854  0  0  -0.367844  0  3.936775  0  0  -0.382742  0  3.951858  0  0  -0.11477  -0.358567  0  3.927851  0
C  C102  1  0.16127680  0.01726617  0.27782722  1  0  0.101102  0  3.66713  0  0  0.09674  0  3.913173  0  0  0.112355  0  3.926544  0  0  0.037343  0.086888  0  3.903571  0
C  C103  1  0.83872430  0.98273312  0.72217432  1  0  0.101074  0  3.667149  0  0  0.096716  0  3.913188  0  0  0.112331  0  3.926561  0  0  0.037333  0.086874  0  3.903581  0
C  C104  1  0.23878911  0.06809848  0.31471081  1  0  -0.086826  0  3.807586  0  0  -0.082872  0  4.056753  0  0  -0.096094  0  4.082259  0  0  -0.025963  -0.074779  0  4.03975  0
C  C105  1  0.76121161  0.93190265  0.68529010  1  0  -0.08677  0  3.807502  0  0  -0.082815  0  4.056682  0  0  -0.09604  0  4.082188  0  0  -0.025951  -0.07473  0  4.039671  0
C  C106  1  0.19961078  0.13812977  0.38014769  1  0  0.304646  0  3.737251  0  0  0.285096  0  4.003561  0  0  0.304199  0  4.014279  0  0  0.107022  0.272678  0  3.995871  0
C  C107  1  0.80038993  0.86187137  0.61985170  1  0  0.304683  0  3.737176  0  0  0.285099  0  4.003544  0  0  0.304204  0  4.014263  0  0  0.10703  0.272698  0  3.995833  0
C  C108  1  0.27106901  0.18289638  0.42675728  1  0  -0.322822  0  3.675061  0  0  -0.354015  0  3.93318  0  0  -0.367677  0  3.947206  0  0  -0.118653  -0.344838  0  3.922977  0
C  C109  1  0.72893049  0.81710660  0.57324152  1  0  -0.32295  0  3.675081  0  0  -0.354128  0  3.933243  0  0  -0.36779  0  3.947267  0  0  -0.118744  -0.34496  0  3.923042  0
C  C110  1  0.35633771  0.04993732  0.29540225  1  0  -0.059163  0  3.774806  0  0  -0.084235  0  4.034615  0  0  -0.079584  0  4.055747  0  0  -0.085659  -0.086788  0  4.020216  0
C  C111  1  0.64366403  0.95006288  0.70459971  1  0  -0.059219  0  3.774821  0  0  -0.084265  0  4.034619  0  0  -0.079611  0  4.05575  0  0  -0.085716  -0.086815  0  4.020212  0
C  C112  1  0.42849441  0.09429303  0.34027342  1  0  -0.207493  0  3.704325  0  0  -0.22816  0  3.960153  0  0  -0.238815  0  3.980044  0  0  -0.096828  -0.221585  0  3.947134  0
C  C113  1  0.57150631  0.90570810  0.65972749  1  0  -0.207576  0  3.70436  0  0  -0.228218  0  3.960226  0  0  -0.238873  0  3.980116  0  0  -0.096833  -0.221645  0  3.947199  0
C  C114  1  0.19911590  0.94160269  0.21131890  1  0  0.047411  0  3.725643  0  0  0.05851  0  3.953824  0  0  0.058077  0  3.974408  0  0  0.006108  0.058872  0  3.939497  0
C  C115  1  0.80088481  0.05839845  0.78868126  1  0  0.047346  0  3.725596  0  0  0.058427  0  3.953791  0  0  0.057993  0  3.974379  0  0  0.00606  0.058792  0  3.939459  0
C  C116  1  0.15794853  0.98820967  0.10152133  1  0  -0.119522  0  3.743087  0  0  -0.139611  0  3.991749  0  0  -0.143023  0  4.012764  0  0  -0.088524  -0.137258  0  3.97748  0
C  C117  1  0.84205053  0.01179147  0.89847962  1  0  -0.119543  0  3.742966  0  0  -0.139632  0  3.991626  0  0  -0.143059  0  4.012632  0  0  -0.088555  -0.137286  0  3.97737  0
C  C118  1  0.19428752  0.92351872  0.03402862  1  0  -0.046914  0  3.765827  0  0  -0.063079  0  4.017608  0  0  -0.06297  0  4.037047  0  0  -0.081719  -0.062965  0  4.00426  0
C  C119  1  0.80571008  0.07648152  0.96597194  1  0  -0.046852  0  3.765791  0  0  -0.063031  0  4.017591  0  0  -0.062923  0  4.037035  0  0  -0.081629  -0.062924  0  4.004256  0
C  C120  1  0.27385236  0.81153345  0.07496164  1  0  -0.075695  0  3.766792  0  0  -0.089399  0  4.018597  0  0  -0.091526  0  4.037589  0  0  -0.088051  -0.087974  0  4.00565  0
C  C121  1  0.72614607  0.18846678  0.92503890  1  0  -0.075749  0  3.766812  0  0  -0.089457  0  4.01863  0  0  -0.091593  0  4.037631  0  0  -0.088111  -0.088033  0  4.005692  0
C  C122  1  0.31525971  0.76340517  0.18409392  1  0  -0.062373  0  3.712023  0  0  -0.087516  0  3.958685  0  0  -0.086746  0  3.976874  0  0  -0.078277  -0.08774  0  3.945861  0
C  C123  1  0.68473871  0.23659507  0.81590586  1  0  -0.06235  0  3.711975  0  0  -0.087498  0  3.958643  0  0  -0.086725  0  3.976825  0  0  -0.078281  -0.087727  0  3.945826  0
C  C124  1  0.27723827  0.82649361  0.25315262  1  0  -0.094207  0  3.716008  0  0  -0.076069  0  3.945239  0  0  -0.082811  0  3.965725  0  0  -0.011191  -0.071423  0  3.930892  0
C  C125  1  0.72276200  0.17350570  0.74684894  1  0  -0.094212  0  3.716057  0  0  -0.076044  0  3.945256  0  0  -0.082787  0  3.965741  0  0  -0.011189  -0.071402  0  3.930905  0
C  C126  1  0.31498062  0.76913395  0.37179102  1  0  0.647736  0  3.925127  0  0  0.601274  0  4.214153  0  0  0.63365  0  4.213061  0  0  0.201412  0.57849  0  4.218855  0
C  C127  1  0.68502009  0.23086718  0.62820913  1  0  0.647706  0  3.925194  0  0  0.601239  0  4.214226  0  0  0.633617  0  4.213133  0  0  0.201418  0.578464  0  4.218912  0
O  O128  1  0.45606223  0.20721514  0.44812233  1  0  -0.75779  0  2.010643  0  0  -0.702407  0  2.269779  0  0  -0.738276  0  2.259127  0  0  -0.460295  -0.683812  0  2.274423  0
O  O129  1  0.54393663  0.79278692  0.55187680  1  0  -0.757785  0  2.01058  0  0  -0.702373  0  2.269741  0  0  -0.738237  0  2.259085  0  0  -0.460269  -0.683791  0  2.2744  0
O  O130  1  0.55633535  0.40170244  0.22002476  1  0  -0.701754  0  2.018916  0  0  -0.650313  0  2.265079  0  0  -0.683552  0  2.256604  0  0  -0.430092  -0.632907  0  2.269222  0
O  O131  1  0.44366409  0.59829687  0.77997606  1  0  -0.701748  0  2.018972  0  0  -0.650313  0  2.2651  0  0  -0.683549  0  2.256624  0  0  -0.43011  -0.632914  0  2.269264  0
O  O132  1  0.70701889  0.15360646  0.35425446  1  0  -0.717331  0  1.988881  0  0  -0.66735  0  2.237827  0  0  -0.700671  0  2.226177  0  0  -0.428474  -0.650287  0  2.24361  0
O  O133  1  0.29298200  0.84639375  0.64574524  1  0  -0.717324  0  1.988884  0  0  -0.667322  0  2.237865  0  0  -0.700642  0  2.226218  0  0  -0.428475  -0.65026  0  2.243654  0
O  O134  1  0.18859530  0.37834753  0.14122077  1  0  -0.237195  0  2.396685  0  0  -0.16339  0  2.616057  0  0  -0.181906  0  2.617931  0  0  -0.10878  -0.150914  0  2.614488  0
O  O135  1  0.81140452  0.62164994  0.85877991  1  0  -0.237245  0  2.396818  0  0  -0.163453  0  2.616188  0  0  -0.181971  0  2.618061  0  0  -0.108737  -0.150973  0  2.614611  0
O  O136  1  0.81277918  0.35391956  0.08263278  1  0  -0.506661  0  2.092819  0  0  -0.453997  0  2.303636  0  0  -0.475407  0  2.294067  0  0  -0.329035  -0.438697  0  2.309506  0
O  O137  1  0.18722147  0.64607791  0.91736788  1  0  -0.506795  0  2.092684  0  0  -0.454058  0  2.303611  0  0  -0.475464  0  2.294035  0  0  -0.329076  -0.43877  0  2.309499  0
O  O138  1  0.20747028  0.51787759  0.79613370  1  0  -0.620679  0  2.028503  0  0  -0.570181  0  2.259172  0  0  -0.59658  0  2.252985  0  0  -0.292217  -0.551297  0  2.263138  0
O  O139  1  0.79252731  0.48212266  0.20386458  1  0  -0.62073  0  2.028519  0  0  -0.570267  0  2.259167  0  0  -0.596669  0  2.252985  0  0  -0.292246  -0.551382  0  2.263141  0
O  O140  1  0.29569600  0.54285889  0.63889688  1  0  -0.771498  0  1.986759  0  0  -0.718613  0  2.238576  0  0  -0.752574  0  2.221362  0  0  -0.433513  -0.700841  0  2.247678  0
O  O141  1  0.70430121  0.45714319  0.36110078  1  0  -0.771437  0  1.986855  0  0  -0.718563  0  2.238656  0  0  -0.752524  0  2.22144  0  0  -0.433481  -0.700793  0  2.247764  0
O  O142  1  0.08753370  0.16524873  0.39921151  1  0  -0.239216  0  2.373288  0  0  -0.163478  0  2.588919  0  0  -0.181658  0  2.588712  0  0  -0.113058  -0.151276  0  2.588648  0
O  O143  1  0.91246721  0.83475149  0.60078971  1  0  -0.239216  0  2.373311  0  0  -0.163485  0  2.588947  0  0  -0.181668  0  2.588744  0  0  -0.113055  -0.151289  0  2.588672  0
O  O144  1  0.25617435  0.80508471  0.43934874  1  0  -0.668883  0  2.021613  0  0  -0.619627  0  2.256418  0  0  -0.650771  0  2.250937  0  0  -0.358356  -0.602343  0  2.260102  0
O  O145  1  0.74382655  0.19491550  0.56065096  1  0  -0.668875  0  2.021638  0  0  -0.619626  0  2.25646  0  0  -0.650769  0  2.250974  0  0  -0.358362  -0.602349  0  2.260136  0
O  O146  1  0.40751899  0.68483567  0.40514952  1  0  -0.730486  0  2.02978  0  0  -0.671538  0  2.2663  0  0  -0.703298  0  2.256162  0  0  -0.371353  -0.65363  0  2.273051  0
O  O147  1  0.59248090  0.31516547  0.59485066  1  0  -0.730455  0  2.029815  0  0  -0.671505  0  2.266335  0  0  -0.703265  0  2.256196  0  0  -0.371332  -0.653602  0  2.273077  0
O  O148  1  0.42686499  0.46891505  0.39705379  1  0  -0.906755  0  1.831942  0  0  -0.864982  0  2.021281  0  0  -0.888568  0  1.984975  0  0  -0.623938  -0.853555  0  2.043609  0
O  O149  1  0.57313489  0.53108609  0.60294563  1  0  -0.906744  0  1.831956  0  0  -0.864972  0  2.0213  0  0  -0.888562  0  1.985  0  0  -0.623937  -0.853545  0  2.043625  0
