# generated using pymatgen
data_ScH3(CO2)3
_symmetry_space_group_name_H-M   'P 1'
_cell_length_a   6.58831834
_cell_length_b   9.00762934
_cell_length_c   10.40866378
_cell_angle_alpha   98.44684154
_cell_angle_beta   89.99936052
_cell_angle_gamma   89.99982610
_symmetry_Int_Tables_number   1
_chemical_formula_structural   ScH3(CO2)3
_chemical_formula_sum   'Sc4 H12 C12 O24'
_cell_volume   611.00300780
_cell_formula_units_Z   4
loop_
 _symmetry_equiv_pos_site_id
 _symmetry_equiv_pos_as_xyz
  1  'x, y, z'
loop_
 _atom_site_type_symbol
 _atom_site_label
 _atom_site_symmetry_multiplicity
 _atom_site_fract_x
 _atom_site_fract_y
 _atom_site_fract_z
 _atom_site_occupancy
 _atom_site_hle17_bader_spin_density
 _atom_site_hle17_ddec_charge
 _atom_site_hle17_ddec_spin_density
 _atom_site_hle17_ddec_sum_bond_order
 _atom_site_hle17_magmom
 _atom_site_hse06_10hf_bader_spin_density
 _atom_site_hse06_10hf_ddec_charge
 _atom_site_hse06_10hf_ddec_spin_density
 _atom_site_hse06_10hf_ddec_sum_bond_order
 _atom_site_hse06_10hf_magmom
 _atom_site_hse06_bader_spin_density
 _atom_site_hse06_ddec_charge
 _atom_site_hse06_ddec_spin_density
 _atom_site_hse06_ddec_sum_bond_order
 _atom_site_hse06_magmom
 _atom_site_pbe_bader_spin_density
 _atom_site_pbe_cm5_charge
 _atom_site_pbe_ddec_charge
 _atom_site_pbe_ddec_spin_density
 _atom_site_pbe_ddec_sum_bond_order
 _atom_site_pbe_magmom
Sc  Sc0  1  0.99997900  0.00000502  0.00000861  1  0  1.996594  0  1.706234  0  0  1.887896  0  2.154034  0  0  2.005309  0  2.036  0  0  1.244007  1.804132  0  2.233105  0
Sc  Sc1  1  0.49998726  0.49998594  0.99999354  1  0  1.996576  0  1.706224  0  0  1.887852  0  2.154056  0  0  2.005266  0  2.036014  0  0  1.244033  1.804085  0  2.233136  0
Sc  Sc2  1  0.50000428  0.99999435  0.49999496  1  0  1.98279  0  1.707013  0  0  1.877418  0  2.14565  0  0  1.99251  0  2.031928  0  0  1.252407  1.795394  0  2.221577  0
Sc  Sc3  1  0.00001126  0.49999775  0.49999661  1  0  1.982746  0  1.707145  0  0  1.877442  0  2.145694  0  0  1.992542  0  2.031955  0  0  1.252363  1.795384  0  2.221684  0
H  H4  1  0.05122214  0.36202477  0.12539642  1  0  0.024441  0  0.927415  0  0  0.029455  0  0.999182  0  0  0.030477  0  0.992748  0  0  0.127961  0.028485  0  1.003954  0
H  H5  1  0.55121463  0.13797222  0.87459910  1  0  0.024444  0  0.927325  0  0  0.029434  0  0.999123  0  0  0.030454  0  0.99269  0  0  0.127961  0.028464  0  1.003897  0
H  H6  1  0.94878091  0.63799257  0.87460175  1  0  0.024409  0  0.927228  0  0  0.029332  0  0.999091  0  0  0.03035  0  0.992662  0  0  0.12791  0.028361  0  1.003866  0
H  H7  1  0.44876717  0.86198675  0.12539176  1  0  0.024411  0  0.927246  0  0  0.029314  0  0.99912  0  0  0.030335  0  0.992687  0  0  0.127884  0.028343  0  1.003897  0
H  H8  1  0.23980758  0.21624479  0.31734937  1  0  0.021673  0  0.936315  0  0  0.025151  0  1.011889  0  0  0.026203  0  1.005313  0  0  0.129482  0.024101  0  1.016802  0
H  H9  1  0.73983319  0.28374709  0.68265859  1  0  0.021721  0  0.93609  0  0  0.025111  0  1.011781  0  0  0.026231  0  1.005105  0  0  0.129448  0.024064  0  1.016693  0
H  H10  1  0.76019244  0.78375235  0.68265108  1  0  0.021664  0  0.936322  0  0  0.025135  0  1.011889  0  0  0.026187  0  1.005307  0  0  0.129479  0.024087  0  1.016804  0
H  H11  1  0.26021691  0.71624789  0.31736944  1  0  0.021566  0  0.93641  0  0  0.025094  0  1.011933  0  0  0.026121  0  1.005372  0  0  0.129486  0.024048  0  1.016851  0
H  H12  1  0.15566380  0.29839785  0.74738233  1  0  0.027919  0  0.897315  0  0  0.035682  0  0.96195  0  0  0.035926  0  0.956542  0  0  0.132386  0.0352  0  0.966085  0
H  H13  1  0.65563508  0.20161676  0.25262523  1  0  0.027998  0  0.897226  0  0  0.035805  0  0.961817  0  0  0.03605  0  0.956411  0  0  0.132365  0.035333  0  0.965925  0
H  H14  1  0.84437720  0.70161612  0.25261638  1  0  0.028068  0  0.897206  0  0  0.035886  0  0.961792  0  0  0.036116  0  0.956427  0  0  0.132396  0.035413  0  0.965901  0
H  H15  1  0.34434976  0.79839836  0.74738419  1  0  0.028036  0  0.897205  0  0  0.035805  0  0.961837  0  0  0.036047  0  0.956434  0  0  0.13243  0.035333  0  0.965951  0
C  C16  1  0.91524139  0.34608897  0.06321440  1  0  0.662447  0  3.828733  0  0  0.592674  0  4.143254  0  0  0.631853  0  4.131811  0  0  0.184495  0.565717  0  4.150501  0
C  C17  1  0.41524461  0.15391462  0.93678994  1  0  0.66264  0  3.828289  0  0  0.5929  0  4.142781  0  0  0.632077  0  4.13134  0  0  0.184536  0.565941  0  4.150035  0
C  C18  1  0.08474800  0.65392728  0.93679805  1  0  0.662555  0  3.828736  0  0  0.59285  0  4.143223  0  0  0.632034  0  4.131772  0  0  0.184574  0.565892  0  4.150478  0
C  C19  1  0.58474023  0.84605780  0.06319492  1  0  0.662724  0  3.828356  0  0  0.593064  0  4.142784  0  0  0.632241  0  4.131343  0  0  0.184814  0.566106  0  4.150038  0
C  C20  1  0.20536380  0.09618946  0.28703471  1  0  0.673053  0  3.804962  0  0  0.606674  0  4.10833  0  0  0.645775  0  4.09646  0  0  0.196513  0.579808  0  4.116032  0
C  C21  1  0.70536713  0.40380364  0.71296691  1  0  0.673027  0  3.804784  0  0  0.606717  0  4.108108  0  0  0.64579  0  4.096228  0  0  0.196553  0.579853  0  4.115809  0
C  C22  1  0.79463015  0.90380657  0.71296655  1  0  0.673031  0  3.80486  0  0  0.606697  0  4.108169  0  0  0.645801  0  4.096291  0  0  0.19649  0.579828  0  4.115879  0
C  C23  1  0.29464958  0.59619912  0.28703423  1  0  0.673107  0  3.804941  0  0  0.606698  0  4.108333  0  0  0.645823  0  4.096448  0  0  0.196544  0.579822  0  4.116043  0
C  C24  1  0.20523128  0.25036936  0.64838431  1  0  0.679073  0  3.802767  0  0  0.615053  0  4.104896  0  0  0.65431  0  4.093678  0  0  0.201785  0.587982  0  4.112175  0
C  C25  1  0.70520973  0.24963610  0.35162559  1  0  0.679111  0  3.80289  0  0  0.615068  0  4.105019  0  0  0.654324  0  4.093803  0  0  0.201905  0.587999  0  4.112298  0
C  C26  1  0.79480060  0.74964012  0.35161575  1  0  0.67876  0  3.803165  0  0  0.614686  0  4.105352  0  0  0.653933  0  4.094141  0  0  0.201633  0.587621  0  4.112631  0
C  C27  1  0.29478724  0.75036893  0.64838449  1  0  0.678917  0  3.802761  0  0  0.614872  0  4.104929  0  0  0.654131  0  4.093709  0  0  0.201665  0.587802  0  4.112213  0
O  O28  1  0.89081906  0.22063212  0.99168852  1  0  -0.689592  0  2.058425  0  0  -0.643387  0  2.334523  0  0  -0.682332  0  2.321773  0  0  -0.366162  -0.615867  0  2.342381  0
O  O29  1  0.39082442  0.27936484  0.00831803  1  0  -0.689628  0  2.058533  0  0  -0.643384  0  2.334554  0  0  -0.682325  0  2.3218  0  0  -0.366127  -0.615865  0  2.342417  0
O  O30  1  0.10916577  0.77937854  0.00833186  1  0  -0.689564  0  2.058712  0  0  -0.643299  0  2.334654  0  0  -0.682239  0  2.321902  0  0  -0.366099  -0.615777  0  2.342512  0
O  O31  1  0.60915434  0.72061876  0.99165189  1  0  -0.689578  0  2.058694  0  0  -0.643377  0  2.334726  0  0  -0.682318  0  2.321981  0  0  -0.366232  -0.615856  0  2.342583  0
O  O32  1  0.08874770  0.06225625  0.19086482  1  0  -0.683267  0  2.071631  0  0  -0.630724  0  2.345073  0  0  -0.671046  0  2.329727  0  0  -0.380473  -0.602377  0  2.354733  0
O  O33  1  0.58875072  0.43773500  0.80913260  1  0  -0.683204  0  2.071828  0  0  -0.63068  0  2.345279  0  0  -0.671005  0  2.329955  0  0  -0.380429  -0.602331  0  2.354939  0
O  O34  1  0.91122803  0.93774093  0.80914716  1  0  -0.683213  0  2.071615  0  0  -0.630672  0  2.345005  0  0  -0.670993  0  2.329657  0  0  -0.380431  -0.602324  0  2.354671  0
O  O35  1  0.41123260  0.56226884  0.19085331  1  0  -0.68315  0  2.07173  0  0  -0.630597  0  2.345163  0  0  -0.670913  0  2.329799  0  0  -0.380432  -0.60225  0  2.354832  0
O  O36  1  0.79331774  0.45575436  0.06778617  1  0  -0.677991  0  2.047468  0  0  -0.629968  0  2.31983  0  0  -0.669226  0  2.30693  0  0  -0.372389  -0.602267  0  2.327781  0
O  O37  1  0.29329114  0.04425413  0.93220908  1  0  -0.678111  0  2.047106  0  0  -0.630119  0  2.319472  0  0  -0.669384  0  2.306572  0  0  -0.372423  -0.602412  0  2.327425  0
O  O38  1  0.20667772  0.54426298  0.93221200  1  0  -0.678086  0  2.047372  0  0  -0.630058  0  2.319696  0  0  -0.66932  0  2.306787  0  0  -0.372499  -0.602352  0  2.327655  0
O  O39  1  0.70665878  0.95573290  0.06778434  1  0  -0.678323  0  2.046996  0  0  -0.630295  0  2.319278  0  0  -0.669556  0  2.306371  0  0  -0.372623  -0.602594  0  2.327237  0
O  O40  1  0.28238461  0.00023043  0.35055695  1  0  -0.667963  0  2.029958  0  0  -0.620802  0  2.295878  0  0  -0.658368  0  2.280418  0  0  -0.366097  -0.594424  0  2.305699  0
O  O41  1  0.78238714  0.49976800  0.64943711  1  0  -0.668009  0  2.029763  0  0  -0.620851  0  2.295621  0  0  -0.65843  0  2.280191  0  0  -0.366142  -0.594462  0  2.305435  0
O  O42  1  0.71761389  0.99977120  0.64944117  1  0  -0.66799  0  2.029884  0  0  -0.620835  0  2.295762  0  0  -0.658407  0  2.280313  0  0  -0.36611  -0.594452  0  2.305583  0
O  O43  1  0.21762198  0.50023025  0.35055482  1  0  -0.667988  0  2.029753  0  0  -0.620836  0  2.295665  0  0  -0.658402  0  2.280196  0  0  -0.366135  -0.594447  0  2.305489  0
O  O44  1  0.32210210  0.13802951  0.63807850  1  0  -0.666957  0  2.050329  0  0  -0.618643  0  2.314154  0  0  -0.658149  0  2.301908  0  0  -0.363883  -0.590934  0  2.321658  0
O  O45  1  0.82210267  0.36197553  0.36192187  1  0  -0.667179  0  2.050131  0  0  -0.618901  0  2.313979  0  0  -0.658409  0  2.301724  0  0  -0.364061  -0.591191  0  2.321494  0
O  O46  1  0.67791765  0.86196987  0.36191742  1  0  -0.666797  0  2.050457  0  0  -0.618489  0  2.314326  0  0  -0.657994  0  2.302093  0  0  -0.363771  -0.590767  0  2.321796  0
O  O47  1  0.17789583  0.63803173  0.63808272  1  0  -0.666944  0  2.050116  0  0  -0.618636  0  2.313948  0  0  -0.658146  0  2.301701  0  0  -0.363882  -0.590912  0  2.321433  0
O  O48  1  0.14289439  0.31119087  0.55323055  1  0  -0.692569  0  2.071582  0  0  -0.643868  0  2.34058  0  0  -0.68439  0  2.327994  0  0  -0.371841  -0.615243  0  2.34833  0
O  O49  1  0.64288660  0.18882378  0.44677614  1  0  -0.692476  0  2.07186  0  0  -0.643771  0  2.340887  0  0  -0.684278  0  2.328295  0  0  -0.37178  -0.615157  0  2.348632  0
O  O50  1  0.85713902  0.68882199  0.44676994  1  0  -0.692458  0  2.071665  0  0  -0.643779  0  2.340763  0  0  -0.68429  0  2.328174  0  0  -0.371749  -0.615161  0  2.34851  0
O  O51  1  0.35713770  0.81117562  0.55323131  1  0  -0.692465  0  2.07167  0  0  -0.643796  0  2.3408  0  0  -0.684297  0  2.328186  0  0  -0.371735  -0.615178  0  2.348548  0
