# generated using pymatgen
data_CuPH19C21IN
_symmetry_space_group_name_H-M   'P 1'
_cell_length_a   8.21864297
_cell_length_b   9.17730233
_cell_length_c   14.20041138
_cell_angle_alpha   79.07030661
_cell_angle_beta   76.91669862
_cell_angle_gamma   63.77122083
_symmetry_Int_Tables_number   1
_chemical_formula_structural   CuPH19C21IN
_chemical_formula_sum   'Cu2 P2 H38 C42 I2 N2'
_cell_volume   930.91575490
_cell_formula_units_Z   2
loop_
 _symmetry_equiv_pos_site_id
 _symmetry_equiv_pos_as_xyz
  1  'x, y, z'
loop_
 _atom_site_type_symbol
 _atom_site_label
 _atom_site_symmetry_multiplicity
 _atom_site_fract_x
 _atom_site_fract_y
 _atom_site_fract_z
 _atom_site_occupancy
 _atom_site_pbe_bader_spin_density
 _atom_site_pbe_cm5_charge
 _atom_site_pbe_ddec_charge
 _atom_site_pbe_ddec_spin_density
 _atom_site_pbe_ddec_sum_bond_order
 _atom_site_pbe_magmom
Cu  Cu0  1  0.48467489  0.33614201  0.58086420  1  0  0.354813  0.130479  0  2.679688  0
Cu  Cu1  1  0.51532574  0.66385542  0.41913563  1  0  0.354809  0.130474  0  2.679718  0
P  P2  1  0.51319077  0.33731666  0.73227462  1  0  -0.035058  0.219048  0  4.232401  0
P  P3  1  0.48680927  0.66268199  0.26772444  1  0  -0.035005  0.219077  0  4.232516  0
H  H4  1  0.24940800  0.91607308  0.54897731  1  0  0.1038  0.094616  0  1.041013  0
H  H5  1  0.75059339  0.08392802  0.45102058  1  0  0.103781  0.094596  0  1.04101  0
H  H6  1  0.21818212  0.18759892  0.69656835  1  0  0.091526  0.140158  0  1.018589  0
H  H7  1  0.78182361  0.81240094  0.30343334  1  0  0.091532  0.140169  0  1.018648  0
H  H8  1  0.07386760  0.15095318  0.63625481  1  0  0.088404  0.142619  0  1.025624  0
H  H9  1  0.92613063  0.84904667  0.36374716  1  0  0.0884  0.142601  0  1.025667  0
H  H10  1  0.12763051  0.32344582  0.59609872  1  0  0.081806  0.138857  0  1.037221  0
H  H11  1  0.87237329  0.67655283  0.40390125  1  0  0.081793  0.138849  0  1.037145  0
H  H12  1  0.50101553  0.12460905  0.92144396  1  0  0.093926  0.089662  0  1.045325  0
H  H13  1  0.49898452  0.87538959  0.07855721  1  0  0.093929  0.089669  0  1.045329  0
H  H14  1  0.23562548  0.12024498  0.04719064  1  0  0.093663  0.087591  0  1.051797  0
H  H15  1  0.76437332  0.87975365  0.95281070  1  0  0.093677  0.087584  0  1.051784  0
H  H16  1  0.91828532  0.31160499  0.02453264  1  0  0.097464  0.091091  0  1.029996  0
H  H17  1  0.08171474  0.68839365  0.97546853  1  0  0.097451  0.091105  0  1.03  0
H  H18  1  0.86157993  0.50610605  0.87361198  1  0  0.096463  0.094102  0  1.032088  0
H  H19  1  0.13842081  0.49389380  0.12639037  1  0  0.096487  0.094149  0  1.032091  0
H  H20  1  0.12468782  0.50645398  0.74695832  1  0  0.092273  0.094345  0  1.043587  0
H  H21  1  0.87531291  0.49354587  0.25304332  1  0  0.092269  0.094353  0  1.043615  0
H  H22  1  0.40917456  0.48433967  0.91963126  1  0  0.097058  0.094314  0  1.04073  0
H  H23  1  0.59082788  0.51565654  0.08036708  1  0  0.097065  0.094337  0  1.04069  0
H  H24  1  0.43195466  0.72408063  0.96243258  1  0  0.095786  0.089769  0  1.03284  0
H  H25  1  0.56804961  0.27591436  0.03756636  1  0  0.095797  0.089759  0  1.032892  0
H  H26  1  0.55697656  0.89206783  0.83492870  1  0  0.094933  0.089926  0  1.041092  0
H  H27  1  0.44302406  0.10792960  0.16506902  1  0  0.09492  0.089861  0  1.04114  0
H  H28  1  0.66197836  0.81643667  0.66495899  1  0  0.097173  0.096344  0  1.024911  0
H  H29  1  0.33801803  0.18356443  0.33503885  1  0  0.097143  0.096335  0  1.024855  0
H  H30  1  0.63758373  0.57830734  0.62206533  1  0  0.080485  0.084402  0  1.096793  0
H  H31  1  0.36241505  0.42169132  0.37793108  1  0  0.080476  0.084389  0  1.096777  0
H  H32  1  0.77242918  0.27769501  0.87123170  1  0  0.094301  0.088373  0  1.05669  0
H  H33  1  0.22757222  0.72230608  0.12876759  1  0  0.094302  0.088373  0  1.056687  0
H  H34  1  0.06288360  0.04066348  0.90146712  1  0  0.094863  0.090128  0  1.034641  0
H  H35  1  0.93711597  0.95933883  0.09853297  1  0  0.094859  0.090126  0  1.034612  0
H  H36  1  0.18054921  0.79603355  0.81126596  1  0  0.093128  0.088912  0  1.059277  0
H  H37  1  0.81945161  0.20396876  0.18873396  1  0  0.093113  0.088901  0  1.059299  0
H  H38  1  0.00535307  0.78937887  0.69191129  1  0  0.080781  0.087418  0  1.078683  0
H  H39  1  0.99464900  0.21062344  0.30808847  1  0  0.080779  0.087407  0  1.078699  0
H  H40  1  0.71764356  0.03078056  0.65924923  1  0  0.09099  0.080928  0  1.069648  0
H  H41  1  0.28235784  0.96922053  0.34075007  1  0  0.091016  0.080924  0  1.069691  0
C  C42  1  0.34769435  0.09484151  0.55927198  1  0  0.116051  0.261417  0  3.932481  0
C  C43  1  0.65230273  0.90516079  0.44072914  1  0  0.116028  0.26139  0  3.932405  0
C  C44  1  0.36162246  0.95481111  0.52674901  1  0  0.036951  -0.023409  0  3.888578  0
C  C45  1  0.63837769  0.04518997  0.47325186  1  0  0.036979  -0.02335  0  3.88846  0
C  C46  1  0.18213853  0.19409595  0.62541448  1  0  -0.250306  -0.457665  0  3.949966  0
C  C47  1  0.81785855  0.80590635  0.37458805  1  0  -0.250293  -0.457657  0  3.949949  0
C  C48  1  0.32985728  0.31640852  0.82638352  1  0  -0.028261  -0.047368  0  3.981839  0
C  C49  1  0.67014297  0.68359501  0.17361703  1  0  -0.028332  -0.047409  0  3.981984  0
C  C50  1  0.36065726  0.20679890  0.91065102  1  0  -0.094169  -0.111967  0  3.999452  0
C  C51  1  0.63933857  0.79320340  0.08934885  1  0  -0.094149  -0.111961  0  3.999331  0
C  C52  1  0.21233404  0.20476309  0.98131654  1  0  -0.094578  -0.086419  0  4.010893  0
C  C53  1  0.78766545  0.79523676  0.01868526  1  0  -0.094621  -0.086384  0  4.010671  0
C  C54  1  0.03304263  0.31242945  0.96842761  1  0  -0.088182  -0.07634  0  3.993291  0
C  C55  1  0.96695790  0.68756552  0.03157395  1  0  -0.088187  -0.076439  0  3.993234  0
C  C56  1  0.00119813  0.42144725  0.88426511  1  0  -0.087578  -0.067061  0  3.977805  0
C  C57  1  0.99880069  0.57855138  0.11573834  1  0  -0.087564  -0.067047  0  3.977825  0
C  C58  1  0.14863512  0.42281618  0.81336959  1  0  -0.084201  -0.088337  0  3.950557  0
C  C59  1  0.85136312  0.57718367  0.18663308  1  0  -0.084152  -0.088325  0  3.950672  0
C  C60  1  0.52363744  0.51455171  0.76790406  1  0  -0.023717  -0.034337  0  3.940875  0
C  C61  1  0.47636317  0.48544574  0.23209225  1  0  -0.023794  -0.034483  0  3.940937  0
C  C62  1  0.46633783  0.55624566  0.86391487  1  0  -0.090469  -0.112451  0  3.994249  0
C  C63  1  0.53366153  0.44375178  0.13608231  1  0  -0.090405  -0.112283  0  3.99411  0
C  C64  1  0.47866537  0.69138507  0.88797156  1  0  -0.095859  -0.093827  0  4.019222  0
C  C65  1  0.52133717  0.30861359  0.11202577  1  0  -0.095903  -0.093957  0  4.019309  0
C  C66  1  0.54851917  0.78591798  0.81655379  1  0  -0.088625  -0.074471  0  3.987022  0
C  C67  1  0.45148212  0.21408067  0.18344581  1  0  -0.088567  -0.07424  0  3.987088  0
C  C68  1  0.60640505  0.74425590  0.72123090  1  0  -0.089648  -0.070799  0  3.971368  0
C  C69  1  0.39359201  0.25574642  0.27876599  1  0  -0.08967  -0.07092  0  3.971598  0
C  C70  1  0.59346489  0.60999155  0.69675250  1  0  -0.085049  -0.080794  0  3.946532  0
C  C71  1  0.40653457  0.39000833  0.30324508  1  0  -0.085  -0.08072  0  3.946504  0
C  C72  1  0.72353062  0.16778152  0.76470295  1  0  -0.029373  -0.047894  0  3.981709  0
C  C73  1  0.27646828  0.83221956  0.23529738  1  0  -0.029334  -0.047854  0  3.981745  0
C  C74  1  0.82159283  0.16989442  0.83305030  1  0  -0.089827  -0.102436  0  3.98036  0
C  C75  1  0.17840664  0.83010544  0.16695009  1  0  -0.089803  -0.102394  0  3.980363  0
C  C76  1  0.98540956  0.03616441  0.84990536  1  0  -0.090814  -0.079128  0  3.996398  0
C  C77  1  0.01459251  0.96383790  0.15009369  1  0  -0.090869  -0.079218  0  3.996487  0
C  C78  1  0.05124312  0.89909750  0.79953591  1  0  -0.087863  -0.068124  0  3.970157  0
C  C79  1  0.94875953  0.10090358  0.20046462  1  0  -0.087805  -0.068072  0  3.97017  0
C  C80  1  0.95294957  0.89500228  0.73258886  1  0  -0.096005  -0.080595  0  3.992021  0
C  C81  1  0.04705299  0.10499636  0.26741269  1  0  -0.096019  -0.0806  0  3.992101  0
C  C82  1  0.79151189  0.02963385  0.71440484  1  0  -0.090286  -0.101817  0  3.999708  0
C  C83  1  0.20849066  0.97036480  0.28559460  1  0  -0.090338  -0.101814  0  3.999905  0
I  I84  1  0.21583393  0.62018092  0.52900591  1  0  -0.202188  -0.374446  0  1.771942  0
I  I85  1  0.78416556  0.37981894  0.47099589  1  0  -0.202192  -0.374451  0  1.771972  0
N  N86  1  0.48948964  0.14092711  0.53170254  1  0  -0.34457  -0.194794  0  3.577308  0
N  N87  1  0.51050743  0.85907520  0.46829646  1  0  -0.344614  -0.194869  0  3.577469  0
