# generated using pymatgen
data_ZnH12C18NO4
_symmetry_space_group_name_H-M   'P 1'
_cell_length_a   9.81369521
_cell_length_b   11.01810241
_cell_length_c   11.05408693
_cell_angle_alpha   91.41905626
_cell_angle_beta   97.50411859
_cell_angle_gamma   106.92990641
_symmetry_Int_Tables_number   1
_chemical_formula_structural   ZnH12C18NO4
_chemical_formula_sum   'Zn2 H24 C36 N2 O8'
_cell_volume   1131.17859812
_cell_formula_units_Z   2
loop_
 _symmetry_equiv_pos_site_id
 _symmetry_equiv_pos_as_xyz
  1  'x, y, z'
loop_
 _atom_site_type_symbol
 _atom_site_label
 _atom_site_symmetry_multiplicity
 _atom_site_fract_x
 _atom_site_fract_y
 _atom_site_fract_z
 _atom_site_occupancy
 _atom_site_pbe_bader_charge
 _atom_site_pbe_bader_spin_density
 _atom_site_pbe_cm5_charge
 _atom_site_pbe_ddec_charge
 _atom_site_pbe_ddec_spin_density
 _atom_site_pbe_ddec_sum_bond_order
 _atom_site_pbe_magmom
Zn  Zn0  1  0.34060222  0.45152739  0.50358958  1  1.302158  0  0.67444  0.836913  0  2.4057  0
Zn  Zn1  1  0.64374197  0.53450579  0.49280916  1  1.290734  0  0.67439  0.835281  0  2.408631  0
H  H2  1  0.58514276  0.12094084  0.09801569  1  0.066571  0  0.0975  0.093661  0  1.009108  0
H  H3  1  0.37399045  0.46004697  0.87914007  1  0.111717  0  0.104241  0.105475  0  1.011293  0
H  H4  1  0.27342830  0.44098480  0.08135476  1  0.063984  0  0.101841  0.118683  0  1.019003  0
H  H5  1  0.70552015  0.52790238  0.91517051  1  0.11279  0  0.103908  0.119838  0  0.995367  0
H  H6  1  0.11150863  0.54605290  0.41613662  1  0.174429  0  0.133488  0.112185  0  0.981897  0
H  H7  1  0.85820682  0.41697960  0.55599484  1  0.158914  0  0.131943  0.112912  0  0.99591  0
H  H8  1  0.18876620  0.22472234  0.62863836  1  0.132818  0  0.111341  0.125655  0  1.015872  0
H  H9  1  0.13696283  0.12650618  0.82423510  1  0.079988  0  0.106773  0.104058  0  0.995367  0
H  H10  1  0.03126579  0.23116791  0.97513293  1  0.068719  0  0.108161  0.104389  0  0.983775  0
H  H11  1  0.97742074  0.43416315  0.92873790  1  0.032114  0  0.107643  0.1053  0  0.984965  0
H  H12  1  0.03014457  0.53265139  0.73462803  1  0.059657  0  0.110433  0.117249  0  0.995994  0
H  H13  1  0.39656139  0.86337572  0.89519889  1  0.057722  0  0.098037  0.094847  0  1.007614  0
H  H14  1  0.74137120  0.66037440  0.27100657  1  0.122834  0  0.105196  0.114789  0  1.039075  0
H  H15  1  0.85138619  0.86201029  0.17467170  1  0.063315  0  0.102863  0.098258  0  0.999998  0
H  H16  1  0.09244852  0.00489093  0.26754500  1  0.070102  0  0.107583  0.105023  0  0.983239  0
H  H17  1  0.22308345  0.94492534  0.45277520  1  0.085178  0  0.100527  0.096851  0  1.045075  0
H  H18  1  0.11596941  0.74300645  0.54625840  1  0.077048  0  0.10719  0.112777  0  1.007176  0
H  H19  1  0.44505116  0.21188335  0.71418068  1  0.064152  0  0.101434  0.109175  0  1.02077  0
H  H20  1  0.54243373  0.77411244  0.28119485  1  0.094579  0  0.101297  0.107573  0  1.018276  0
H  H21  1  0.40148732  0.09176849  0.89701247  1  0.052031  0  0.097976  0.091492  0  1.013113  0
H  H22  1  0.58156734  0.89317091  0.09657211  1  0.077816  0  0.097748  0.091194  0  1.009368  0
H  H23  1  0.44074887  0.75736935  0.71178878  1  0.067943  0  0.101944  0.113276  0  1.010474  0
H  H24  1  0.54503811  0.22814727  0.28242668  1  0.081058  0  0.101022  0.111428  0  1.014095  0
H  H25  1  0.60359504  0.49988297  0.11338818  1  0.083808  0  0.105288  0.102988  0  0.997127  0
C  C26  1  0.57529590  0.50972803  0.73398479  1  1.591367  0  0.201781  0.625013  0  4.202786  0
C  C27  1  0.49677648  0.73008028  0.49787010  1  1.580058  0  0.218624  0.605097  0  4.193368  0
C  C28  1  0.44424777  0.11274321  0.71269087  1  0.042111  0  -0.092462  -0.128561  0  3.971351  0
C  C29  1  0.54236740  0.87302336  0.28192805  1  -0.076533  0  -0.089163  -0.120508  0  3.964827  0
C  C30  1  0.41961345  0.04553596  0.81466498  1  -0.110008  0  -0.099808  -0.093713  0  4.054691  0
C  C31  1  0.56449937  0.93952825  0.17927366  1  -0.059247  0  -0.098826  -0.093147  0  4.054659  0
C  C32  1  0.41767764  0.91588543  0.81384228  1  -0.02607  0  -0.10001  -0.095764  0  4.053672  0
C  C33  1  0.56583390  0.06894613  0.17985435  1  -0.050464  0  -0.09914  -0.092741  0  4.055142  0
C  C34  1  0.44247869  0.85676597  0.71163516  1  -0.058362  0  -0.091982  -0.127012  0  3.968437  0
C  C35  1  0.54328750  0.12875764  0.28258465  1  -0.063967  0  -0.093687  -0.129107  0  3.972151  0
C  C36  1  0.46922207  0.92348013  0.60363121  1  -0.010878  0  -0.004847  0.053544  0  3.981154  0
C  C37  1  0.40732137  0.46818079  0.26179173  1  1.556647  0  0.201841  0.622282  0  4.199063  0
C  C38  1  0.51929893  0.06281353  0.39131692  1  -0.00676  0  -0.003799  0.056189  0  3.982152  0
C  C39  1  0.46863790  0.05444939  0.60378944  1  -0.019724  0  -0.005385  0.051567  0  3.990702  0
C  C40  1  0.51994652  0.93189122  0.39126620  1  0.048165  0  -0.00265  0.056185  0  3.976959  0
C  C41  1  0.49576693  0.86580769  0.49762902  1  -0.048165  0  -0.004875  -0.108099  0  3.904323  0
C  C42  1  0.49310661  0.12066704  0.49745217  1  -0.039023  0  -0.010039  -0.121114  0  3.919271  0
C  C43  1  0.10610189  0.38106767  0.66651769  1  0.300678  0  0.094115  0.204634  0  4.017031  0
C  C44  1  0.13996873  0.26828037  0.69413802  1  0.018837  0  -0.076297  -0.140617  0  3.910885  0
C  C45  1  0.11114496  0.21430294  0.80400443  1  -0.084163  0  -0.082459  -0.067359  0  4.003272  0
C  C46  1  0.05167649  0.27302058  0.88838639  1  -0.023979  0  -0.082311  -0.081262  0  4.002996  0
C  C47  1  0.02129190  0.38673518  0.86239943  1  0.012816  0  -0.086575  -0.075118  0  4.027306  0
C  C48  1  0.59512878  0.50669910  0.86877738  1  -0.163722  0  -0.092018  -0.229401  0  3.887417  0
C  C49  1  0.04874229  0.44136626  0.75225585  1  -0.020332  0  -0.080333  -0.156571  0  3.946802  0
C  C50  1  0.92434651  0.68673084  0.41045845  1  0.304125  0  0.090023  0.197429  0  4.020864  0
C  C51  1  0.84819062  0.72251562  0.30754201  1  -0.009793  0  -0.084476  -0.149728  0  3.936003  0
C  C52  1  0.91018310  0.83501190  0.25497522  1  -0.099268  0  -0.086615  -0.072203  0  4.023922  0
C  C53  1  0.04547891  0.91491648  0.30671436  1  -0.011683  0  -0.07947  -0.068989  0  3.974236  0
C  C54  1  0.11954808  0.88115492  0.41083099  1  0.005029  0  -0.084512  -0.058979  0  3.986302  0
C  C55  1  0.06015413  0.76714444  0.46267457  1  -0.020234  0  -0.080392  -0.151007  0  3.933692  0
C  C56  1  0.38408257  0.46154802  0.12650957  1  -0.053649  0  -0.093057  -0.228732  0  3.887493  0
C  C57  1  0.48161552  0.48034708  0.93136859  1  -0.00994  0  -0.078178  -0.03009  0  4.016687  0
C  C58  1  0.49559298  0.48081875  0.06213576  1  -0.01809  0  -0.079052  -0.032706  0  4.028047  0
C  C59  1  0.92162940  0.49606827  0.50962929  1  0.613091  0  0.086377  0.082236  0  3.88099  0
C  C60  1  0.06577124  0.49696805  0.49303167  1  0.567009  0  0.090204  0.091585  0  3.874601  0
C  C61  1  0.48982015  0.25574546  0.49668361  1  1.58516  0  0.220419  0.609084  0  4.185717  0
N  N62  1  0.85503655  0.57366528  0.46246066  1  -1.208166  0  -0.29959  -0.211184  0  3.481366  0
N  N63  1  0.14114933  0.43442389  0.55581613  1  -1.218798  0  -0.300991  -0.217654  0  3.474516  0
O  O64  1  0.44590749  0.48337883  0.67984730  1  -1.193428  0  -0.323657  -0.577798  0  2.37037  0
O  O65  1  0.53777393  0.50218556  0.31471887  1  -1.186438  0  -0.322532  -0.579509  0  2.362634  0
O  O66  1  0.68814506  0.53856421  0.68210625  1  -1.163721  0  -0.324241  -0.544076  0  2.242865  0
O  O67  1  0.29571250  0.43988523  0.31555184  1  -1.169251  0  -0.325103  -0.53982  0  2.24366  0
O  O68  1  0.36737663  0.27395322  0.49565560  1  -1.156419  0  -0.310742  -0.541877  0  2.320507  0
O  O69  1  0.61864998  0.71059859  0.50160718  1  -1.154583  0  -0.309957  -0.529657  0  2.316196  0
O  O70  1  0.60945144  0.34037171  0.49674788  1  -1.171171  0  -0.307923  -0.546088  0  2.351272  0
O  O71  1  0.37577813  0.64648207  0.49473783  1  -1.171244  0  -0.310434  -0.555925  0  2.353958  0
