# generated using pymatgen
data_AlH9C16O5
_symmetry_space_group_name_H-M   'P 1'
_cell_length_a   6.68211664
_cell_length_b   17.82908887
_cell_length_c   17.82891323
_cell_angle_alpha   91.76239683
_cell_angle_beta   79.19928947
_cell_angle_gamma   79.19653993
_symmetry_Int_Tables_number   1
_chemical_formula_structural   AlH9C16O5
_chemical_formula_sum   'Al2 H18 C32 O10'
_cell_volume   2044.67538138
_cell_formula_units_Z   2
loop_
 _symmetry_equiv_pos_site_id
 _symmetry_equiv_pos_as_xyz
  1  'x, y, z'
loop_
 _atom_site_type_symbol
 _atom_site_label
 _atom_site_symmetry_multiplicity
 _atom_site_fract_x
 _atom_site_fract_y
 _atom_site_fract_z
 _atom_site_occupancy
 _atom_site_pbe_bader_charge
 _atom_site_pbe_bader_spin_density
 _atom_site_pbe_cm5_charge
 _atom_site_pbe_ddec_charge
 _atom_site_pbe_ddec_spin_density
 _atom_site_pbe_ddec_sum_bond_order
 _atom_site_pbe_magmom
Al  Al0  1  0.00003931  0.50000238  0.50000781  1  2.483476  0  0.402133  1.6552  0  2.57393  0
Al  Al1  1  0.50005235  0.49999518  0.49999748  1  2.491298  0  0.401225  1.65314  0  2.578053  0
H  H2  1  0.32419260  0.42590188  0.42592276  1  0.598339  0  0.356709  0.435785  0  0.844794  0
H  H3  1  0.67583825  0.57409299  0.57409376  1  0.598141  0  0.356633  0.435612  0  0.844956  0
H  H4  1  0.81438384  0.73173413  0.49785810  1  0.108684  0  0.109072  0.111788  0  1.008956  0
H  H5  1  0.74015567  0.87473869  0.49952258  1  0.067795  0  0.103752  0.103448  0  1.0103  0
H  H6  1  0.38581457  0.87474370  0.49925714  1  0.045116  0  0.10278  0.102845  0  1.012383  0
H  H7  1  0.45634216  0.73173179  0.49757046  1  0.104459  0  0.109088  0.111952  0  1.007833  0
H  H8  1  0.61417344  0.12527815  0.50078788  1  0.045523  0  0.102794  0.102977  0  1.012361  0
H  H9  1  0.54372991  0.26829201  0.50243660  1  0.10524  0  0.109056  0.112003  0  1.00786  0
H  H10  1  0.18577745  0.26822298  0.50208489  1  0.107288  0  0.10901  0.111861  0  1.008726  0
H  H11  1  0.25987859  0.12523421  0.50043576  1  0.067539  0  0.103745  0.103454  0  1.010478  0
H  H12  1  0.18573682  0.50213460  0.26823762  1  0.107838  0  0.109023  0.111743  0  1.009063  0
H  H13  1  0.25984489  0.50051599  0.12524531  1  0.068316  0  0.10378  0.103295  0  1.010497  0
H  H14  1  0.61415619  0.50077748  0.12527912  1  0.045459  0  0.102759  0.102829  0  1.012181  0
H  H15  1  0.54377099  0.50240147  0.26828306  1  0.105054  0  0.109059  0.112097  0  1.007925  0
H  H16  1  0.38582346  0.49925135  0.87474690  1  0.044983  0  0.102719  0.102756  0  1.012388  0
H  H17  1  0.45636818  0.49754962  0.73174281  1  0.104426  0  0.109091  0.111993  0  1.007726  0
H  H18  1  0.81435903  0.49793375  0.73174449  1  0.107716  0  0.109089  0.111788  0  1.009172  0
H  H19  1  0.74011870  0.49961593  0.87474164  1  0.067255  0  0.103709  0.103467  0  1.010357  0
C  C20  1  0.81837354  0.50186137  0.36153978  1  1.532253  0  0.268639  0.642032  0  4.099745  0
C  C21  1  0.81834453  0.36153954  0.50188601  1  1.532478  0  0.268844  0.64248  0  4.098862  0
C  C22  1  0.18175343  0.49813310  0.63845979  1  1.532447  0  0.268999  0.642454  0  4.099399  0
C  C23  1  0.18178643  0.63845600  0.49811047  1  1.534026  0  0.269081  0.642649  0  4.09902  0
C  C24  1  0.13941464  0.72354452  0.49772500  1  -0.013652  0  -0.016714  -0.049305  0  3.970965  0
C  C25  1  0.93762395  0.76393944  0.49821791  1  -0.079087  0  -0.078813  -0.08377  0  3.985082  0
C  C26  1  0.89681773  0.84324697  0.49906165  1  0.039203  0  -0.081624  -0.125667  0  3.943693  0
C  C27  1  0.05815049  0.88433947  0.49936270  1  0.102758  0  0.003919  0.146774  0  4.107112  0
C  C28  1  0.26111643  0.84323718  0.49891092  1  -0.033196  0  -0.081237  -0.126197  0  3.9447  0
C  C29  1  0.30048725  0.76395183  0.49806200  1  0.022152  0  -0.077188  -0.082246  0  3.981495  0
C  C30  1  0.01744550  0.96510856  0.49989988  1  0.098016  0  -0.041212  -0.104395  0  4.111274  0
C  C31  1  0.98250696  0.03487867  0.50010759  1  -0.551172  0  -0.040627  -0.103523  0  4.110601  0
C  C32  1  0.94181858  0.11565665  0.50063411  1  0.099649  0  0.00377  0.146454  0  4.107513  0
C  C33  1  0.73891354  0.15675935  0.50110287  1  -0.033094  0  -0.081121  -0.126114  0  3.944691  0
C  C34  1  0.69960915  0.23606620  0.50194271  1  0.021407  0  -0.077352  -0.082668  0  3.982313  0
C  C35  1  0.86064805  0.27645028  0.50226456  1  -0.012588  0  -0.016373  -0.048692  0  3.970776  0
C  C36  1  0.06249038  0.23602620  0.50174701  1  -0.078468  0  -0.078815  -0.083872  0  3.984692  0
C  C37  1  0.10326200  0.15673535  0.50090809  1  0.041994  0  -0.08166  -0.125826  0  3.944508  0
C  C38  1  0.86069294  0.50226135  0.27644687  1  -0.014182  0  -0.016452  -0.048577  0  3.970754  0
C  C39  1  0.06245764  0.50178515  0.23604654  1  -0.077786  0  -0.078798  -0.083878  0  3.985068  0
C  C40  1  0.10320422  0.50096729  0.15674451  1  0.040045  0  -0.081536  -0.125341  0  3.944078  0
C  C41  1  0.94182572  0.50068738  0.11565339  1  0.101138  0  0.003527  0.145945  0  4.107398  0
C  C42  1  0.73889846  0.50111420  0.15677385  1  -0.033083  0  -0.081033  -0.125796  0  3.944411  0
C  C43  1  0.69959704  0.50192882  0.23606085  1  0.021802  0  -0.077293  -0.082741  0  3.982437  0
C  C44  1  0.98249945  0.50018541  0.03489167  1  0.098487  0  -0.04071  -0.10317  0  4.110355  0
C  C45  1  0.01746522  0.49997396  0.96512008  1  -0.552174  0  -0.040951  -0.104481  0  4.11106  0
C  C46  1  0.05815791  0.49941514  0.88434706  1  0.103848  0  0.00369  0.146297  0  4.107705  0
C  C47  1  0.26112099  0.49892287  0.84323818  1  -0.034072  0  -0.081252  -0.126087  0  3.944933  0
C  C48  1  0.30050081  0.49805739  0.76395196  1  0.022355  0  -0.077146  -0.082162  0  3.981135  0
C  C49  1  0.13939571  0.49774230  0.72355381  1  -0.012475  0  -0.016608  -0.04922  0  3.971071  0
C  C50  1  0.93760878  0.49827256  0.76394433  1  -0.078807  0  -0.078737  -0.083479  0  3.985398  0
C  C51  1  0.89678909  0.49912835  0.84325521  1  0.039417  0  -0.081588  -0.125718  0  3.943678  0
O  O52  1  0.97199046  0.50119297  0.39465538  1  -1.25767  0  -0.239081  -0.597448  0  2.345834  0
O  O53  1  0.63230733  0.39463587  0.50115145  1  -1.255813  0  -0.237712  -0.596225  0  2.3471  0
O  O54  1  0.36769092  0.49895651  0.60536281  1  -1.257835  0  -0.237638  -0.595993  0  2.347975  0
O  O55  1  0.02813239  0.60534773  0.49888150  1  -1.25965  0  -0.238957  -0.597527  0  2.345496  0
O  O56  1  0.02810976  0.49881194  0.60535066  1  -1.257431  0  -0.239213  -0.597558  0  2.345434  0
O  O57  1  0.36780015  0.60535483  0.49883433  1  -1.256316  0  -0.237925  -0.596088  0  2.347769  0
O  O58  1  0.63241854  0.50102777  0.39464073  1  -1.257453  0  -0.237444  -0.595874  0  2.347722  0
O  O59  1  0.97194671  0.39465103  0.50112992  1  -1.258442  0  -0.239  -0.59744  0  2.346167  0
O  O60  1  0.28368067  0.46636265  0.46637570  1  -1.396796  0  -0.446986  -0.999164  0  2.217398  0
O  O61  1  0.71639571  0.53363833  0.53363313  1  -1.396177  0  -0.446901  -0.998875  0  2.217325  0
