# generated using pymatgen
data_Ca2CuH6(CO2)6
_symmetry_space_group_name_H-M   'P 1'
_cell_length_a   6.37096978
_cell_length_b   8.74042542
_cell_length_c   12.11964643
_cell_angle_alpha   111.14497601
_cell_angle_beta   100.12531642
_cell_angle_gamma   90.00910791
_symmetry_Int_Tables_number   1
_chemical_formula_structural   Ca2CuH6(CO2)6
_chemical_formula_sum   'Ca4 Cu2 H12 C12 O24'
_cell_volume   618.15248601
_cell_formula_units_Z   2
loop_
 _symmetry_equiv_pos_site_id
 _symmetry_equiv_pos_as_xyz
  1  'x, y, z'
loop_
 _atom_site_type_symbol
 _atom_site_label
 _atom_site_symmetry_multiplicity
 _atom_site_fract_x
 _atom_site_fract_y
 _atom_site_fract_z
 _atom_site_occupancy
 _atom_site_hle17_ddec_charge
 _atom_site_hle17_ddec_spin_density
 _atom_site_hle17_ddec_sum_bond_order
 _atom_site_hle17_magmom
 _atom_site_hse06_10hf_ddec_charge
 _atom_site_hse06_10hf_ddec_spin_density
 _atom_site_hse06_10hf_ddec_sum_bond_order
 _atom_site_hse06_10hf_magmom
 _atom_site_hse06_ddec_charge
 _atom_site_hse06_ddec_spin_density
 _atom_site_hse06_ddec_sum_bond_order
 _atom_site_hse06_magmom
 _atom_site_pbe_cm5_charge
 _atom_site_pbe_ddec_charge
 _atom_site_pbe_ddec_spin_density
 _atom_site_pbe_ddec_sum_bond_order
 _atom_site_pbe_magmom
Ca  Ca0  1  0.43304563  0.52443502  0.31579919  1  1.559496  0.000416  1.122575  0.0  1.422819  0.000482  1.486765  0.0  1.470327  0.000342  1.437111  0.0  0.905033  1.387507  0.000593  1.521344  0.0
Ca  Ca1  1  0.06682818  0.20855044  0.68418954  1  1.560163  0.000415  1.12185  0.0  1.424112  0.000485  1.485049  0.0  1.471141  0.000333  1.43624  0.0  0.905448  1.388713  0.0006  1.519823  0.0
Ca  Ca2  1  0.56695555  0.47556068  0.68419853  1  1.559493  -0.000416  1.122578  0.0  1.42282  -0.000484  1.486759  0.0  1.470311  -0.000337  1.437142  0.0  0.905033  1.387508  -0.000593  1.521338  0.0
Ca  Ca3  1  0.93317517  0.79145140  0.31580918  1  1.560167  -0.000414  1.121855  0.0  1.424134  -0.000483  1.485  0.0  1.471161  -0.000325  1.436193  0.0  0.905424  1.388736  -0.0006  1.519774  0.0
Cu  Cu4  1  0.24997342  0.09271102  0.99992369  1  1.018989  0.730958  1.67226  0.526  1.031053  0.827868  2.053821  0.658  1.117721  0.899427  1.997534  0.747  0.718264  0.96493  0.768191  2.108972  0.593
Cu  Cu5  1  0.75002842  0.90729204  0.00007851  1  1.018994  -0.730956  1.67221  -0.526  1.031042  -0.827884  2.053787  -0.658  1.117732  -0.899437  1.99748  -0.747  0.71826  0.964934  -0.768192  2.108926  -0.593
H  H6  1  0.11744547  0.86022519  0.75987332  1  0.012278  0.000603  0.952797  0.001  0.019113  0.000273  1.026447  0.001  0.018824  8.6e-05  1.02229  0.0  0.12026  0.019097  0.000426  1.029419  0.001
H  H7  1  0.38279367  0.10022657  0.24001285  1  0.012387  0.000614  0.952528  0.001  0.018594  0.000276  1.027038  0.001  0.018288  8.6e-05  1.022902  0.0  0.120266  0.018588  0.000435  1.030065  0.001
H  H8  1  0.88255402  0.13977046  0.24013330  1  0.012375  -0.000604  0.952846  -0.001  0.019144  -0.000273  1.026533  -0.001  0.018852  -8.6e-05  1.022387  0.0  0.120267  0.019133  -0.000427  1.029506  -0.001
H  H9  1  0.61721435  0.89977404  0.75998598  1  0.012386  -0.000613  0.952472  -0.001  0.018595  -0.000276  1.026985  -0.001  0.018291  -8.6e-05  1.022847  0.0  0.120255  0.018594  -0.000435  1.030001  -0.001
H  H10  1  0.93045062  0.35190752  0.03124463  1  0.026514  0.0001  0.912484  0.0  0.03493  5.3e-05  0.980613  0.0  0.035344  -7e-06  0.975516  0.0  0.123959  0.034288  8.9e-05  0.984407  0.0
H  H11  1  0.56957958  0.32016492  0.96837007  1  0.026927  0.000101  0.912897  0.0  0.03558  5.2e-05  0.980586  0.0  0.035972  -8e-06  0.975506  0.0  0.124082  0.034945  8.8e-05  0.98436  0.0
H  H12  1  0.06955054  0.64808817  0.96875391  1  0.026501  -0.0001  0.91249  0.0  0.034939  -5.3e-05  0.980602  0.0  0.035346  8e-06  0.975499  0.0  0.123978  0.034299  -8.8e-05  0.984391  0.0
H  H13  1  0.43040950  0.67983816  0.03163175  1  0.026969  -0.000101  0.912887  0.0  0.035593  -5.2e-05  0.980602  0.0  0.035983  8e-06  0.975521  0.0  0.124098  0.034956  -8.8e-05  0.984379  0.0
H  H14  1  0.01568874  0.68338771  0.56528892  1  0.010342  0.000102  0.945619  0.0  0.018507  8.8e-05  1.019296  0.0  0.018882  4.3e-05  1.01458  0.0  0.12438  0.018032  0.000145  1.022765  0.0
H  H15  1  0.48419282  0.11806474  0.43449318  1  0.010652  0.000126  0.945232  0.0  0.01884  0.000104  1.018757  0.0  0.019201  5.1e-05  1.014037  0.0  0.124408  0.018355  0.000174  1.022274  0.0
H  H16  1  0.98431334  0.31661781  0.43471312  1  0.010377  -0.000102  0.945597  0.0  0.018543  -8.7e-05  1.019247  0.0  0.018924  -4.4e-05  1.014544  0.0  0.124389  0.018066  -0.000145  1.022722  0.0
H  H17  1  0.51580588  0.88193836  0.56550377  1  0.010651  -0.000126  0.945233  0.0  0.018824  -0.000104  1.018783  0.0  0.019179  -5.1e-05  1.014063  0.0  0.124414  0.018339  -0.000174  1.022295  0.0
C  C18  1  0.26058081  0.80668305  0.79318285  1  0.598355  -0.005216  3.871776  -0.008  0.534793  -0.00072  4.187131  -0.003  0.572459  -0.000712  4.177293  -0.002  0.159173  0.509029  -0.000535  4.191935  -0.003
C  C19  1  0.23939165  0.01357435  0.20672997  1  0.597766  -0.005201  3.872101  -0.008  0.534384  -0.000709  4.187749  -0.003  0.572035  -0.000707  4.177914  -0.002  0.159181  0.508592  -0.00052  4.192576  -0.003
C  C20  1  0.73942361  0.19331384  0.20682127  1  0.598016  0.005217  3.871837  0.008  0.534492  0.000718  4.18721  0.003  0.572158  0.000713  4.177371  0.002  0.158988  0.508724  0.000535  4.192021  0.003
C  C21  1  0.76061058  0.98643242  0.79326911  1  0.597742  0.0052  3.872253  0.008  0.534361  0.000709  4.187889  0.003  0.572011  0.000705  4.178052  0.002  0.15916  0.50857  0.00052  4.192716  0.003
C  C22  1  0.06218577  0.40315082  0.10985862  1  0.605618  -0.003352  3.862559  -0.005  0.539659  -0.000507  4.164732  -0.002  0.576628  -0.000526  4.15501  -0.002  0.172084  0.51457  -0.000406  4.170005  -0.002
C  C23  1  0.43781484  0.29278784  0.88977273  1  0.605316  -0.003356  3.863698  -0.005  0.539223  -0.000507  4.165869  -0.002  0.576226  -0.000529  4.156105  -0.002  0.171522  0.514135  -0.000402  4.171126  -0.002
C  C24  1  0.93781405  0.59684735  0.89013880  1  0.605562  0.003352  3.862575  0.005  0.539571  0.000507  4.16478  0.002  0.57655  0.000525  4.155049  0.002  0.172065  0.514481  0.000406  4.170049  0.002
C  C25  1  0.56217723  0.70721279  0.11022542  1  0.605266  0.003355  3.863653  0.005  0.539187  0.000507  4.165843  0.002  0.576196  0.000528  4.156076  0.002  0.1715  0.514102  0.000402  4.171097  0.002
C  C26  1  0.84226457  0.65488831  0.52895466  1  0.639847  0.000125  3.881541  0.0  0.565732  7.7e-05  4.194864  0.0  0.600626  3.6e-05  4.1842  0.0  0.18172  0.541856  0.000129  4.201549  0.0
C  C27  1  0.65758408  0.12582005  0.47090523  1  0.638975  0.000119  3.881361  0.0  0.565149  8.8e-05  4.194203  0.0  0.600059  4.4e-05  4.183543  0.0  0.181445  0.54127  0.000142  4.200848  0.0
C  C28  1  0.15773841  0.34510984  0.47104552  1  0.639762  -0.000125  3.881748  0.0  0.565666  -7.9e-05  4.195037  0.0  0.600544  -3.6e-05  4.18439  0.0  0.181705  0.54179  -0.000129  4.201727  0.0
C  C29  1  0.34241426  0.87417935  0.52909237  1  0.638981  -0.000119  3.881294  0.0  0.565158  -8.8e-05  4.194146  0.0  0.600073  -4.4e-05  4.183483  0.0  0.181464  0.541278  -0.000142  4.200793  0.0
O  O30  1  0.32295621  0.67919361  0.72296770  1  -0.615078  0.013298  2.013105  0.017  -0.559075  0.006641  2.265787  0.009  -0.587405  0.003451  2.255573  0.005  -0.349797  -0.53874  0.009909  2.271959  0.013
O  O31  1  0.17699277  0.95631546  0.27693336  1  -0.615277  0.013194  2.013544  0.017  -0.559384  0.006608  2.266348  0.009  -0.587567  0.003443  2.256105  0.005  -0.349814  -0.539115  0.00981  2.272622  0.013
O  O32  1  0.67704839  0.32080570  0.27704285  1  -0.614927  -0.013302  2.012918  -0.017  -0.558929  -0.006641  2.265577  -0.009  -0.587264  -0.003451  2.255366  -0.005  -0.349677  -0.538589  -0.009909  2.27175  -0.013
O  O33  1  0.82300476  0.04369254  0.72306807  1  -0.615242  -0.013192  2.013661  -0.017  -0.559365  -0.006607  2.266521  -0.009  -0.587548  -0.003442  2.256276  -0.005  -0.349809  -0.539099  -0.00981  2.272794  -0.013
O  O34  1  0.35352092  0.88274927  0.90357025  1  -0.615016  0.094497  2.155879  0.124  -0.601931  0.058309  2.478845  0.083  -0.645957  0.043729  2.466046  0.066  -0.328548  -0.569194  0.067579  2.48599  0.093
O  O35  1  0.14622878  0.97948290  0.09642585  1  -0.614499  0.094272  2.156888  0.123  -0.601148  0.05817  2.479648  0.083  -0.64516  0.043623  2.466859  0.066  -0.328861  -0.568453  0.067433  2.486903  0.093
O  O36  1  0.64648725  0.11725375  0.09643666  1  -0.614895  -0.094487  2.155967  -0.124  -0.601791  -0.058301  2.478885  -0.083  -0.645815  -0.043725  2.466078  -0.066  -0.328495  -0.569054  -0.067571  2.486035  -0.093
O  O37  1  0.85377206  0.02052633  0.90357539  1  -0.614483  -0.094277  2.156857  -0.123  -0.601165  -0.058166  2.479686  -0.083  -0.645179  -0.043622  2.466899  -0.066  -0.328834  -0.568469  -0.067436  2.486936  -0.093
O  O38  1  0.21699365  0.31250851  0.12034913  1  -0.643923  0.058798  2.174864  0.078  -0.599508  0.042077  2.469418  0.061  -0.639343  0.033239  2.457207  0.051  -0.336418  -0.571171  0.047124  2.477042  0.066
O  O39  1  0.28305829  0.19155676  0.87927087  1  -0.644235  0.058818  2.175705  0.078  -0.600125  0.042118  2.47079  0.061  -0.639952  0.033274  2.458638  0.051  -0.336374  -0.571735  0.047165  2.478333  0.066
O  O40  1  0.78300637  0.68749209  0.87965143  1  -0.643939  -0.058799  2.174688  -0.078  -0.599533  -0.042075  2.469308  -0.061  -0.639375  -0.033238  2.457102  -0.051  -0.336466  -0.571199  -0.047126  2.476928  -0.066
O  O41  1  0.71693354  0.80844141  0.12072744  1  -0.644167  -0.05882  2.175637  -0.078  -0.60005  -0.042117  2.470689  -0.061  -0.639872  -0.033275  2.458513  -0.051  -0.336325  -0.571663  -0.047165  2.478234  -0.066
O  O42  1  0.06013051  0.54588542  0.18588131  1  -0.660424  0.007948  2.01987  0.01  -0.595383  0.004674  2.27015  0.006  -0.624222  0.002652  2.259867  0.004  -0.348099  -0.575139  0.006533  2.276667  0.009
O  O43  1  0.43974824  0.35958910  0.81382183  1  -0.660106  0.007899  2.020324  0.01  -0.595083  0.004661  2.271025  0.006  -0.62392  0.002655  2.260631  0.004  -0.348225  -0.574888  0.006486  2.277579  0.008
O  O44  1  0.93986810  0.45411645  0.81411367  1  -0.660337  -0.007947  2.019959  -0.01  -0.595297  -0.004673  2.270284  -0.006  -0.624134  -0.002653  2.260003  -0.004  -0.348056  -0.575054  -0.006533  2.276796  -0.009
O  O45  1  0.56024530  0.64041029  0.18617696  1  -0.660124  -0.007902  2.020316  -0.01  -0.595107  -0.004661  2.271015  -0.006  -0.623952  -0.002655  2.260616  -0.004  -0.34826  -0.574911  -0.006487  2.277569  -0.008
O  O46  1  0.77061444  0.67168887  0.42889582  1  -0.74077  -3e-06  2.059195  0.0  -0.669305  1.3e-05  2.327663  0.0  -0.70042  5e-06  2.31589  0.0  -0.406066  -0.64692  3.4e-05  2.334904  0.0
O  O47  1  0.72913005  0.24251107  0.57111488  1  -0.740109  -2.4e-05  2.057329  0.0  -0.668982  -1e-05  2.326137  0.0  -0.700115  -1e-05  2.31428  0.0  -0.405946  -0.646588  8e-06  2.333424  0.0
O  O48  1  0.22938822  0.32830560  0.57110089  1  -0.740731  4e-06  2.059327  0.0  -0.669264  -1.3e-05  2.327797  0.0  -0.700375  -8e-06  2.316033  0.0  -0.406019  -0.646876  -3.4e-05  2.335038  0.0
O  O49  1  0.27086780  0.75748339  0.42888467  1  -0.740144  2.5e-05  2.057295  0.0  -0.669002  1.1e-05  2.326075  0.0  -0.700135  8e-06  2.314212  0.0  -0.405946  -0.646609  -8e-06  2.333361  0.0
O  O50  1  0.72893488  0.60732403  0.58715272  1  -0.687201  -4.1e-05  2.009991  0.0  -0.626326  -4.3e-05  2.278157  0.0  -0.654922  -2.1e-05  2.265894  0.0  -0.376606  -0.606048  -6.1e-05  2.286061  0.0
O  O51  1  0.77098716  0.02015860  0.41268736  1  -0.687047  0.000106  2.012055  0.0  -0.626249  3.7e-05  2.27996  0.0  -0.654753  1e-05  2.267687  0.0  -0.376455  -0.60594  8.7e-05  2.287887  0.0
O  O52  1  0.27106935  0.39267042  0.41284661  1  -0.687188  4.1e-05  2.010075  0.0  -0.626334  4.4e-05  2.278255  0.0  -0.654933  2.1e-05  2.265995  0.0  -0.376655  -0.606054  6.1e-05  2.28616  0.0
O  O53  1  0.22900789  0.97983958  0.58730878  1  -0.687008  -0.000106  2.01202  0.0  -0.626219  -3.6e-05  2.279941  0.0  -0.654723  -1.1e-05  2.267665  0.0  -0.376475  -0.605911  -8.7e-05  2.287867  0.0
