# generated using pymatgen
data_Zn8H39C62N13(Cl5O13)2
_symmetry_space_group_name_H-M   'P 1'
_cell_length_a   18.30100724
_cell_length_b   18.41419666
_cell_length_c   18.45988988
_cell_angle_alpha   119.89258745
_cell_angle_beta   89.93654179
_cell_angle_gamma   119.81122793
_symmetry_Int_Tables_number   1
_chemical_formula_structural   Zn8H39C62N13(Cl5O13)2
_chemical_formula_sum   'Zn8 H39 C62 N13 Cl10 O26'
_cell_volume   4420.89264135
_cell_formula_units_Z   1
loop_
 _symmetry_equiv_pos_site_id
 _symmetry_equiv_pos_as_xyz
  1  'x, y, z'
loop_
 _atom_site_type_symbol
 _atom_site_label
 _atom_site_symmetry_multiplicity
 _atom_site_fract_x
 _atom_site_fract_y
 _atom_site_fract_z
 _atom_site_occupancy
 _atom_site_pbe_bader_charge
 _atom_site_pbe_bader_spin_density
 _atom_site_pbe_cm5_charge
 _atom_site_pbe_ddec_charge
 _atom_site_pbe_ddec_spin_density
 _atom_site_pbe_ddec_sum_bond_order
 _atom_site_pbe_magmom
Zn  Zn0  1  0.45731974  0.40567691  0.54348954  1  1.314981  0  0.679549  0.975796  0  2.359856  0
Zn  Zn1  1  0.44746571  0.57464739  0.54045316  1  1.301284  0  0.668916  0.947764  0  2.389763  0
Zn  Zn2  1  0.45321727  0.40553966  0.37116632  1  1.308759  0  0.673485  0.963015  0  2.406092  0
Zn  Zn3  1  0.62610469  0.58478512  0.54313608  1  1.31485  0  0.674785  0.951917  0  2.382693  0
Zn  Zn4  1  0.04348515  0.58233616  0.95662989  1  1.312738  0  0.67623  0.969038  0  2.343082  0
Zn  Zn5  1  0.03745475  0.58274797  0.12909557  1  1.3126  0  0.675438  0.955543  0  2.385515  0
Zn  Zn6  1  0.03483998  0.40191529  0.95720003  1  1.320365  0  0.677816  0.972749  0  2.36542  0
Zn  Zn7  1  0.86721656  0.40811103  0.95326703  1  1.309871  0  0.670055  0.955049  0  2.387914  0
H  H8  1  0.62087727  0.48949126  0.76689657  1  0.119347  0  0.110289  0.131676  0  0.990715  0
H  H9  1  0.94792400  0.49439695  0.75128585  1  0.088372  0  0.100403  0.122105  0  1.028071  0
H  H10  1  0.29861762  0.09435641  0.18515227  1  0.088509  0  0.10838  0.114656  0  0.992409  0
H  H11  1  0.20819030  0.90438496  0.08561355  1  0.057102  0  0.108448  0.114902  0  0.990992  0
H  H12  1  0.14764622  0.89140367  0.36373768  1  0.132793  0  0.105632  0.095655  0  0.987609  0
H  H13  1  0.69608271  0.33910174  0.02753839  1  0.512145  0  0.302465  0.317589  0  0.982591  0
H  H14  1  0.59507300  0.28689260  0.04859497  1  0.466675  0  0.315991  0.31102  0  0.935066  0
H  H15  1  0.96340397  0.74031985  0.28970602  1  0.396599  0  0.274043  0.26418  0  0.990365  0
H  H16  1  0.94346616  0.80329424  0.38126302  1  0.403425  0  0.262013  0.248162  0  1.043797  0
H  H17  1  0.83940835  0.66523475  0.52153240  1  0.39315  0  0.27979  0.278036  0  0.973639  0
H  H18  1  0.90682741  0.63504595  0.47851480  1  0.387189  0  0.264482  0.249664  0  1.035261  0
H  H19  1  0.25064622  0.08402359  0.46774079  1  0.071783  0  0.101505  0.125068  0  0.973915  0
H  H20  1  0.79468328  0.74066274  0.41110921  1  0.390943  0  0.283568  0.272863  0  0.968125  0
H  H21  1  0.84951561  0.79441474  0.51361794  1  0.444831  0  0.274824  0.275891  0  1.029067  0
H  H22  1  0.53865690  0.94211392  0.67866190  1  0.432997  0  0.31432  0.310285  0  0.930036  0
H  H23  1  0.51697927  0.82103248  0.62744299  1  0.483143  0  0.296244  0.307551  0  0.995942  0
H  H24  1  0.03945529  0.10744553  0.79801225  1  0.387  0  0.287455  0.274785  0  0.959553  0
H  H25  1  0.99590487  0.16717463  0.79829690  1  0.40924  0  0.272994  0.270476  0  1.009184  0
H  H26  1  0.91111123  0.86188581  0.66561588  1  0.403613  0  0.282149  0.274133  0  0.968771  0
H  H27  1  0.90819710  0.94051659  0.64937630  1  0.41256  0  0.276063  0.268047  0  0.995097  0
H  H28  1  0.83987638  0.90782986  0.83897588  1  0.389916  0  0.282825  0.272382  0  0.97462  0
H  H29  1  0.79086637  0.79904160  0.74074783  1  0.407037  0  0.280304  0.286024  0  0.975432  0
H  H30  1  0.34429409  0.07622016  0.46074015  1  0.08988  0  0.104094  0.128319  0  0.972892  0
H  H31  1  0.13457231  0.66442125  0.43128647  1  0.459258  0  0.313551  0.320351  0  0.913646  0
H  H32  1  0.13705067  0.65071995  0.33242587  1  0.460539  0  0.301342  0.316721  0  0.951817  0
H  H33  1  0.11058623  0.42009193  0.37992455  1  0.42513  0  0.273204  0.28514  0  1.003794  0
H  H34  1  0.20967155  0.46530872  0.44301785  1  0.433933  0  0.291469  0.305218  0  0.943082  0
H  H35  1  0.36184473  0.71056381  0.96156380  1  0.409253  0  0.278641  0.274131  0  0.98123  0
H  H36  1  0.33638150  0.79189325  0.98222860  1  0.404738  0  0.291092  0.280717  0  0.956028  0
H  H37  1  0.37566841  0.78576602  0.77913017  1  0.411131  0  0.30163  0.304147  0  0.933458  0
H  H38  1  0.35998671  0.68133739  0.68773108  1  0.445903  0  0.290001  0.300789  0  0.9729  0
H  H39  1  0.02486758  0.49739945  0.57117704  1  0.474274  0  0.296411  0.295116  0  0.983471  0
H  H40  1  0.04592311  0.50084852  0.66421443  1  0.449749  0  0.313899  0.315863  0  0.92926  0
H  H41  1  0.58345583  0.35947164  0.19030126  1  0.098674  0  0.10413  0.118904  0  1.006592  0
H  H42  1  0.96532778  0.65596394  0.37281215  1  0.028462  0  0.093396  0.055914  0  0.963273  0
H  H43  1  0.76604770  0.49047220  0.54779511  1  0.113919  0  0.105316  0.128884  0  1.017935  0
H  H44  1  0.67703284  0.09333134  0.77782828  1  0.073568  0  0.105602  0.120169  0  1.001334  0
H  H45  1  0.93582062  0.07168847  0.87247866  1  0.028418  0  0.094222  0.045803  0  0.973427  0
H  H46  1  0.23914891  0.69185107  0.84082058  1  0.058117  0  0.114622  0.084162  0  0.946933  0
C  C47  1  0.62421854  0.76826351  0.63660437  1  1.555007  0  0.223534  0.617385  0  4.144409  0
C  C48  1  0.30374410  0.10321637  0.30590705  1  0.017035  0  -0.010909  -0.076106  0  3.96466  0
C  C49  1  0.27781518  0.04988371  0.21294114  1  -0.075757  0  -0.078128  -0.089893  0  3.967362  0
C  C50  1  0.35833026  0.21670019  0.36368086  1  1.569585  0  0.228472  0.609467  0  4.17849  0
C  C51  1  0.22718952  0.94347306  0.15716144  1  0.071016  0  -0.080311  -0.098138  0  3.972756  0
C  C52  1  0.19796517  0.88383406  0.19110994  1  0.053318  0  -0.006687  -0.053434  0  3.963942  0
C  C53  1  0.22370716  0.93719731  0.28299730  1  0.002373  0  -0.006552  0.008842  0  3.880693  0
C  C54  1  0.21505734  0.92628235  0.35921400  1  0.10442  0  -0.038375  0.064043  0  3.78932  0
C  C55  1  0.27868434  0.04676461  0.42265154  1  -0.025743  0  -0.148557  -0.246116  0  3.847512  0
C  C56  1  0.78271264  0.57766293  0.33816904  1  -0.010317  0  -0.033194  -0.119691  0  3.940105  0
C  C57  1  0.69168765  0.49955909  0.30623548  1  0.024093  0  -0.017131  -0.029752  0  4.03047  0
C  C58  1  0.90711606  0.49311400  0.70717265  1  0.000792  0  -0.115378  -0.266232  0  3.938027  0
C  C59  1  0.65419646  0.42091434  0.21619853  1  -0.088267  0  -0.099684  -0.226529  0  3.924493  0
C  C60  1  0.70420608  0.41779914  0.15743844  1  0.507591  0  0.114616  0.315238  0  4.063283  0
C  C61  1  0.79797089  0.49716000  0.19140075  1  0.031416  0  -0.030932  -0.200188  0  3.935218  0
C  C62  1  0.34671741  0.47880092  0.62634187  1  1.601547  0  0.231184  0.625966  0  4.159729  0
C  C63  1  0.83336492  0.57484932  0.28235621  1  -0.073702  0  -0.010129  0.019543  0  3.946823  0
C  C64  1  0.92049069  0.67309499  0.35615333  1  0.362209  0  0.009145  0.077687  0  3.818579  0
C  C65  1  0.86008847  0.68031679  0.42027947  1  0.742016  0  0.172204  0.391641  0  3.852585  0
C  C66  1  0.77273953  0.93535830  0.72791683  1  -0.007202  0  -0.005898  -0.028085  0  3.87037  0
C  C67  1  0.68011450  0.88038460  0.69013620  1  -0.033338  0  -0.028099  -0.18204  0  3.914961  0
C  C68  1  0.64539286  0.94047846  0.70856312  1  0.424477  0  0.115189  0.310358  0  4.049079  0
C  C69  1  0.83311452  0.49552142  0.72533548  1  0.017917  0  0.000594  0.091428  0  3.986266  0
C  C70  1  0.70424367  0.04862686  0.76426069  1  0.027933  0  -0.096769  -0.221705  0  3.917381  0
C  C71  1  0.79553307  0.10056544  0.80285749  1  -0.004704  0  -0.012254  -0.0387  0  4.011225  0
C  C72  1  0.82857824  0.04099177  0.78340836  1  -0.050972  0  -0.023942  -0.030059  0  3.955867  0
C  C73  1  0.91209917  0.04663408  0.80382737  1  0.34323  0  0.006261  0.064312  0  3.863237  0
C  C74  1  0.63535236  0.49790177  0.36392061  1  1.557052  0  0.22768  0.608459  0  4.158021  0
C  C75  1  0.84943335  0.92306761  0.73661677  1  0.744993  0  0.170523  0.37749  0  3.857575  0
C  C76  1  0.25744811  0.53379053  0.33318572  1  0.012628  0  -0.009203  -0.030309  0  3.918576  0
C  C77  1  0.31931556  0.51183725  0.30589498  1  0.04003  0  -0.009796  -0.085613  0  3.910862  0
C  C78  1  0.32965704  0.50015981  0.22532389  1  0.15121  0  0.024187  0.079305  0  3.964045  0
C  C79  1  0.27453739  0.50198381  0.17295404  1  0.085191  0  0.02197  0.073033  0  3.974355  0
C  C80  1  0.77984735  0.49449712  0.66687748  1  0.000871  0  -0.007166  0.054454  0  3.968827  0
C  C81  1  0.20673486  0.51480596  0.19863803  1  0.105078  0  -0.002876  -0.073614  0  3.905944  0
C  C82  1  0.20327019  0.53421541  0.28113965  1  -0.036069  0  -0.006878  -0.01317  0  3.948495  0
C  C83  1  0.15277337  0.55519645  0.34435146  1  0.615048  0  0.142356  0.290273  0  3.819176  0
C  C84  1  0.21435075  0.55356816  0.40595270  1  0.602211  0  0.134439  0.279112  0  3.82966  0
C  C85  1  0.28794489  0.55511332  0.74178524  1  0.005799  0  -0.01041  -0.025342  0  3.945288  0
C  C86  1  0.36528306  0.49762949  0.35936045  1  1.590109  0  0.226772  0.617401  0  4.163395  0
C  C87  1  0.28003695  0.46792422  0.67392183  1  0.035386  0  -0.010459  -0.089497  0  3.93256  0
C  C88  1  0.21008600  0.37459719  0.65868571  1  0.141303  0  0.019609  0.071631  0  3.984195  0
C  C89  1  0.15432853  0.37220390  0.71223426  1  0.090944  0  0.017936  0.064189  0  3.998336  0
C  C90  1  0.16632152  0.46295493  0.78245863  1  0.079952  0  -0.009619  -0.097171  0  3.941694  0
C  C91  1  0.70305822  0.49273321  0.68406167  1  0.018342  0  -0.009933  -0.056299  0  3.94521  0
C  C92  1  0.23358835  0.55306119  0.79400358  1  -0.026739  0  -0.006835  0.016415  0  3.917298  0
C  C93  1  0.27968770  0.66836577  0.85339387  1  0.42807  0  0.017692  0.080795  0  3.879491  0
C  C94  1  0.34338353  0.67013247  0.79109507  1  0.523732  0  0.123829  0.290593  0  3.830813  0
C  C95  1  0.85541365  0.49815047  0.13588240  1  1.491898  0  0.222233  0.614714  0  4.162751  0
C  C96  1  0.11442003  0.46877175  0.84538333  1  1.59147  0  0.231448  0.631568  0  4.164302  0
C  C97  1  0.14096224  0.77037446  0.13225363  1  1.539301  0  0.230237  0.610386  0  4.168046  0
C  C98  1  0.64385939  0.49386545  0.62950416  1  1.522282  0  0.233968  0.620368  0  4.137226  0
C  C99  1  0.85357721  0.21421619  0.86113219  1  1.500647  0  0.232516  0.61463  0  4.149592  0
C  C100  1  0.13933313  0.50479476  0.14187630  1  1.609144  0  0.233039  0.627312  0  4.154447  0
C  C101  1  0.86335047  0.49873328  0.86139593  1  1.576763  0  0.228068  0.630658  0  4.161258  0
C  C102  1  0.67987647  0.49149455  0.75509035  1  0.001373  0  -0.095803  -0.177096  0  3.992481  0
C  C103  1  0.80468290  0.49095475  0.59291048  1  0.058097  0  -0.098202  -0.189809  0  3.991901  0
C  C104  1  0.87715896  0.48848858  0.57734791  1  0.005504  0  0.007311  0.054199  0  4.012838  0
C  C105  1  0.93118381  0.48978399  0.63451968  1  0.45844  0  0.097042  0.261684  0  4.139607  0
C  C106  1  0.73302253  0.49469357  0.81290352  1  0.063532  0  0.016062  0.138067  0  4.05727  0
C  C107  1  0.80840044  0.49667000  0.79950671  1  0.043893  0  -0.01651  -0.137539  0  3.900479  0
C  C108  1  0.27630463  0.04373508  0.33905061  1  -0.091236  0  0.003534  0.082941  0  3.879412  0
N  N109  1  0.66185940  0.33759500  0.07061695  1  -1.319921  0  -0.590475  -0.616672  0  3.357111  0
N  N110  1  0.16996569  0.48336461  0.42854393  1  -1.145222  0  -0.627216  -0.658666  0  3.253816  0
N  N111  1  0.31225375  0.71644303  0.94631651  1  -1.118114  0  -0.629999  -0.618765  0  3.25313  0
N  N112  1  0.34213310  0.70840668  0.74258283  1  -1.163094  0  -0.611163  -0.651855  0  3.302688  0
N  N113  1  0.00161788  0.48450932  0.61629722  1  -1.251293  0  -0.589482  -0.604588  0  3.346427  0
N  N114  1  0.96994718  0.76181108  0.35329778  1  -1.115556  0  -0.641234  -0.631837  0  3.220592  0
N  N115  1  0.89029280  0.68565909  0.49649269  1  -1.09157  0  -0.632468  -0.678273  0  3.179951  0
N  N116  1  0.85182482  0.76462231  0.45030202  1  -1.13601  0  -0.62396  -0.670635  0  3.186559  0
N  N117  1  0.55671362  0.89721357  0.67574779  1  -1.230754  0  -0.590559  -0.615571  0  3.344795  0
N  N118  1  0.98212749  0.09685548  0.77445072  1  -1.115919  0  -0.63051  -0.638391  0  3.266665  0
N  N119  1  0.87034842  0.88144225  0.65591310  1  -1.116423  0  -0.622208  -0.658855  0  3.165762  0
N  N120  1  0.84626732  0.87279642  0.77815387  1  -1.10486  0  -0.631733  -0.688356  0  3.165423  0
N  N121  1  0.15480570  0.64148908  0.37779707  1  -1.205634  0  -0.594703  -0.62569  0  3.378044  0
Cl  Cl122  1  0.25703335  0.86080786  0.36890241  1  -0.260412  0  -0.073339  -0.151102  0  1.338117  0
Cl  Cl123  1  0.70253936  0.50060606  0.90366413  1  -0.207323  0  -0.025272  -0.091555  0  1.437545  0
Cl  Cl124  1  0.41179830  0.48728682  0.18965956  1  -0.146381  0  0.004327  -0.041268  0  1.57915  0
Cl  Cl125  1  0.29357452  0.49209937  0.07837496  1  -0.1603  0  0.004435  -0.043186  0  1.56718  0
Cl  Cl126  1  0.03192339  0.43064348  0.29043478  1  -0.356777  0  -0.151345  -0.280532  0  1.122988  0
Cl  Cl127  1  0.29262837  0.68098566  0.50734084  1  -0.261406  0  -0.081447  -0.169307  0  1.302803  0
Cl  Cl128  1  0.90500104  0.48296133  0.48550786  1  -0.232541  0  -0.001415  -0.079426  0  1.503961  0
Cl  Cl129  1  0.18904108  0.26088580  0.57186629  1  -0.165829  0  0.000459  -0.050732  0  1.561415  0
Cl  Cl130  1  0.06919410  0.25622260  0.68915041  1  -0.154304  0  0.009962  -0.03981  0  1.584355  0
Cl  Cl131  1  0.45893448  0.72661880  0.85669279  1  -0.334685  0  -0.144332  -0.27688  0  1.166968  0
O  O132  1  0.49521720  0.49275659  0.50060959  1  -1.208776  0  -0.575861  -1.027981  0  2.556963  0
O  O133  1  0.93787104  0.25633989  0.88471632  1  -1.148739  0  -0.307858  -0.541962  0  2.341045  0
O  O134  1  0.11750430  0.56695097  0.18246253  1  -1.150808  0  -0.299006  -0.529915  0  2.33447  0
O  O135  1  0.66233920  0.72414113  0.63112081  1  -1.176414  0  -0.310914  -0.545899  0  2.379183  0
O  O136  1  0.82358497  0.42466100  0.86931762  1  -1.157758  0  -0.313895  -0.546866  0  2.350742  0
O  O137  1  0.10807005  0.43382281  0.06008314  1  -1.167898  0  -0.307897  -0.538707  0  2.376998  0
O  O138  1  0.94526515  0.57360280  0.90011859  1  -1.170993  0  -0.311988  -0.543402  0  2.315592  0
O  O139  1  0.13041950  0.72722923  0.04960195  1  -1.17111  0  -0.312311  -0.541122  0  2.325094  0
O  O140  1  0.81592100  0.26100055  0.88320033  1  -1.157635  0  -0.313363  -0.541547  0  2.337938  0
O  O141  1  0.93941390  0.56533695  0.17593173  1  -1.180327  0  -0.311648  -0.53635  0  2.355967  0
O  O142  1  0.10745007  0.42356363  0.88172370  1  -1.157243  0  -0.308244  -0.541255  0  2.353377  0
O  O143  1  0.37678596  0.42542353  0.60995180  1  -1.159077  0  -0.305169  -0.535855  0  2.373281  0
O  O144  1  0.38771614  0.25951955  0.44666003  1  -1.171708  0  -0.30808  -0.535687  0  2.318576  0
O  O145  1  0.36947606  0.54541277  0.60964241  1  -1.171458  0  -0.30597  -0.536008  0  2.333977  0
O  O146  1  0.55364965  0.42180974  0.32781745  1  -1.185412  0  -0.31897  -0.550146  0  2.351814  0
O  O147  1  0.36458329  0.53592295  0.43900217  1  -1.171272  0  -0.312586  -0.549923  0  2.374454  0
O  O148  1  0.68006668  0.54831173  0.59979564  1  -1.162566  0  -0.309981  -0.541056  0  2.338807  0
O  O149  1  0.39714318  0.44611227  0.32214288  1  -1.164037  0  -0.308543  -0.53441  0  2.393087  0
O  O150  1  0.56085766  0.44148227  0.61906996  1  -1.171893  0  -0.314293  -0.545325  0  2.329782  0
O  O151  1  0.67351089  0.57309427  0.44567338  1  -1.175523  0  -0.30804  -0.537871  0  2.348134  0
O  O152  1  0.53993562  0.72024981  0.59915046  1  -1.178218  0  -0.317965  -0.558358  0  2.355633  0
O  O153  1  0.37114905  0.26164449  0.32532111  1  -1.174599  0  -0.316458  -0.547832  0  2.345931  0
O  O154  1  0.99786624  0.49481833  0.99967557  1  -1.225458  0  -0.573992  -1.026464  0  2.541195  0
O  O155  1  0.81871632  0.43252633  0.05122495  1  -1.193321  0  -0.315977  -0.559827  0  2.373251  0
O  O156  1  0.08524858  0.52298066  0.85854954  1  -1.152068  0  -0.308976  -0.544183  0  2.315571  0
O  O157  1  0.10679745  0.72617705  0.17060948  1  -1.162344  0  -0.308451  -0.539924  0  2.37978  0
