# generated using pymatgen
data_CdH13C18N5O7
_symmetry_space_group_name_H-M   'P 1'
_cell_length_a   10.36593599
_cell_length_b   10.88647729
_cell_length_c   11.06054316
_cell_angle_alpha   102.53121476
_cell_angle_beta   104.67697441
_cell_angle_gamma   111.71916338
_symmetry_Int_Tables_number   1
_chemical_formula_structural   CdH13C18N5O7
_chemical_formula_sum   'Cd2 H26 C36 N10 O14'
_cell_volume   1052.53619543
_cell_formula_units_Z   2
loop_
 _symmetry_equiv_pos_site_id
 _symmetry_equiv_pos_as_xyz
  1  'x, y, z'
loop_
 _atom_site_type_symbol
 _atom_site_label
 _atom_site_symmetry_multiplicity
 _atom_site_fract_x
 _atom_site_fract_y
 _atom_site_fract_z
 _atom_site_occupancy
 _atom_site_hle17_bader_spin_density
 _atom_site_hle17_ddec_charge
 _atom_site_hle17_ddec_spin_density
 _atom_site_hle17_ddec_sum_bond_order
 _atom_site_hle17_magmom
 _atom_site_hse06_10hf_bader_spin_density
 _atom_site_hse06_10hf_ddec_charge
 _atom_site_hse06_10hf_ddec_spin_density
 _atom_site_hse06_10hf_ddec_sum_bond_order
 _atom_site_hse06_10hf_magmom
 _atom_site_hse06_bader_spin_density
 _atom_site_hse06_ddec_charge
 _atom_site_hse06_ddec_spin_density
 _atom_site_hse06_ddec_sum_bond_order
 _atom_site_hse06_magmom
 _atom_site_pbe_bader_spin_density
 _atom_site_pbe_cm5_charge
 _atom_site_pbe_ddec_charge
 _atom_site_pbe_ddec_spin_density
 _atom_site_pbe_ddec_sum_bond_order
 _atom_site_pbe_magmom
Cd  Cd0  1  0.34725845  0.41255315  0.65747946  1  0  1.098505  0  1.664603  0  0  0.899398  0  2.106574  0  0  0.959185  0  2.054894  0  0  0.766218  0.853396  0  2.144116  0
Cd  Cd1  1  0.65274144  0.58744649  0.34252034  1  0  1.098469  0  1.664642  0  0  0.899364  0  2.106622  0  0  0.959156  0  2.054935  0  0  0.766216  0.853366  0  2.144169  0
H  H2  1  0.84342562  0.42218383  0.65218096  1  0  0.109726  0  0.95216  0  0  0.117899  0  1.017275  0  0  0.12253  0  1.012412  0  0  0.111783  0.114514  0  1.020955  0
H  H3  1  0.15657173  0.57781465  0.34781883  1  0  0.109724  0  0.952179  0  0  0.117906  0  1.017281  0  0  0.122536  0  1.012419  0  0  0.111769  0.114517  0  1.020963  0
H  H4  1  0.83902260  0.67741098  0.00755115  1  0  0.125885  0  0.947526  0  0  0.128471  0  1.019986  0  0  0.132891  0  1.015844  0  0  0.115878  0.125202  0  1.023019  0
H  H5  1  0.16098175  0.32259408  0.99244831  1  0  0.125866  0  0.947415  0  0  0.128451  0  1.01988  0  0  0.132873  0  1.015736  0  0  0.1159  0.125183  0  1.022917  0
H  H6  1  0.37649595  0.39170483  0.92973737  1  0  0.098427  0  0.947058  0  0  0.104437  0  1.013522  0  0  0.107543  0  1.010204  0  0  0.121131  0.101985  0  1.016257  0
H  H7  1  0.62350884  0.60829914  0.07026468  1  0  0.098406  0  0.947107  0  0  0.104441  0  1.013544  0  0  0.107547  0  1.010226  0  0  0.121138  0.101993  0  1.016276  0
H  H8  1  0.24817813  0.66723025  0.99593439  1  0  0.128568  0  0.94105  0  0  0.132578  0  1.008291  0  0  0.13665  0  1.005317  0  0  0.115013  0.129376  0  1.01086  0
H  H9  1  0.75182037  0.33276623  0.00406435  1  0  0.128604  0  0.941002  0  0  0.132611  0  1.008234  0  0  0.136688  0  1.005264  0  0  0.115043  0.129406  0  1.010803  0
H  H10  1  0.44818196  0.27149420  0.08430529  1  0  0.137846  0  0.949452  0  0  0.144343  0  1.012823  0  0  0.148341  0  1.010832  0  0  0.117094  0.141243  0  1.014946  0
H  H11  1  0.55181793  0.72850544  0.91569452  1  0  0.137856  0  0.949465  0  0  0.14435  0  1.012831  0  0  0.148348  0  1.010841  0  0  0.117104  0.141251  0  1.014953  0
H  H12  1  0.90895260  0.10311825  0.17424577  1  0  0.11633  0  0.954781  0  0  0.119536  0  1.024118  0  0  0.122433  0  1.024353  0  0  0.110429  0.117409  0  1.024177  0
H  H13  1  0.09104467  0.89688229  0.82575445  1  0  0.116363  0  0.954741  0  0  0.119579  0  1.024063  0  0  0.122476  0  1.024297  0  0  0.110445  0.117454  0  1.024118  0
H  H14  1  0.03058059  0.25757791  0.41756606  1  0  0.10007  0  0.936179  0  0  0.10941  0  0.994972  0  0  0.11241  0  0.992256  0  0  0.121343  0.107143  0  0.996952  0
H  H15  1  0.96941920  0.74242380  0.58243418  1  0  0.100083  0  0.936186  0  0  0.109426  0  0.994977  0  0  0.112438  0  0.992247  0  0  0.121363  0.107163  0  0.996958  0
H  H16  1  0.32069890  0.07923721  0.60140727  1  0  0.082731  0  0.919187  0  0  0.093275  0  0.975849  0  0  0.095624  0  0.974142  0  0  0.121081  0.091652  0  0.976984  0
H  H17  1  0.67929945  0.92076343  0.39859145  1  0  0.082728  0  0.919182  0  0  0.093281  0  0.975832  0  0  0.09563  0  0.974125  0  0  0.121088  0.091659  0  0.976963  0
H  H18  1  0.39266775  0.94576869  0.74322753  1  0  0.127763  0  0.930307  0  0  0.136296  0  0.987347  0  0  0.140266  0  0.98531  0  0  0.11821  0.133584  0  0.988846  0
H  H19  1  0.60732918  0.05422876  0.25677102  1  0  0.127758  0  0.93032  0  0  0.136285  0  0.987362  0  0  0.140257  0  0.985325  0  0  0.118212  0.133575  0  0.988854  0
H  H20  1  0.32862974  0.09430874  0.20277631  1  0  0.124532  0  0.942601  0  0  0.126032  0  1.016426  0  0  0.13015  0  1.01372  0  0  0.115739  0.123047  0  1.018618  0
H  H21  1  0.67136467  0.90568544  0.79722357  1  0  0.124524  0  0.942548  0  0  0.125996  0  1.016429  0  0  0.130111  0  1.013727  0  0  0.115735  0.123018  0  1.01862  0
H  H22  1  0.43145369  0.24600235  0.44411424  1  0  0.097435  0  0.956645  0  0  0.10787  0  1.014351  0  0  0.110385  0  1.012077  0  0  0.123217  0.105978  0  1.015983  0
H  H23  1  0.56854329  0.75399302  0.55588476  1  0  0.097457  0  0.956612  0  0  0.107886  0  1.014332  0  0  0.110401  0  1.012058  0  0  0.123221  0.105996  0  1.015961  0
H  H24  1  0.22187688  0.55841106  0.56151322  1  0  0.417677  0  0.863774  0  0  0.392221  0  0.929737  0  0  0.401734  0  0.915802  0  0  0.293801  0.385247  0  0.939933  0
H  H25  1  0.77811959  0.44158534  0.43848498  1  0  0.417679  0  0.863682  0  0  0.392223  0  0.929708  0  0  0.401737  0  0.915771  0  0  0.293782  0.385248  0  0.939907  0
H  H26  1  0.34280763  0.58429609  0.49115378  1  0  0.41727  0  0.895477  0  0  0.383208  0  0.96569  0  0  0.394804  0  0.948891  0  0  0.279233  0.374783  0  0.977857  0
H  H27  1  0.65719069  0.41570452  0.50884582  1  0  0.417286  0  0.895457  0  0  0.383228  0  0.965664  0  0  0.394823  0  0.948866  0  0  0.279214  0.374803  0  0.977827  0
C  C28  1  0.82289083  0.54710857  0.82093980  1  0  -0.062037  0  3.742946  0  0  -0.035301  0  3.982293  0  0  -0.045783  0  4.005443  0  0  -0.01596  -0.028856  0  3.966865  0
C  C29  1  0.17711201  0.45289537  0.17905992  1  0  -0.06204  0  3.742992  0  0  -0.035341  0  3.982394  0  0  -0.045825  0  4.005546  0  0  -0.015937  -0.028907  0  3.96698  0
C  C30  1  0.05350410  0.54081278  0.81490497  1  0  -0.048176  0  3.728421  0  0  -0.020342  0  3.962783  0  0  -0.030941  0  3.98658  0  0  -0.012048  -0.014056  0  3.947444  0
C  C31  1  0.94649731  0.45918797  0.18509458  1  0  -0.048116  0  3.728329  0  0  -0.020328  0  3.962755  0  0  -0.030929  0  3.98655  0  0  -0.012023  -0.014045  0  3.947404  0
C  C32  1  0.05046668  0.68203620  0.01259796  1  0  0.049822  0  3.726975  0  0  0.045291  0  3.991445  0  0  0.039905  0  4.014486  0  0  0.072414  0.048465  0  3.975173  0
C  C33  1  0.94953536  0.31796359  0.98739973  1  0  0.049698  0  3.727088  0  0  0.045152  0  3.991576  0  0  0.039764  0  4.014625  0  0  0.072362  0.048335  0  3.975289  0
C  C34  1  0.90095417  0.49762434  0.75338183  1  0  -0.041551  0  3.658439  0  0  -0.086735  0  3.912263  0  0  -0.082463  0  3.929923  0  0  -0.066028  -0.089265  0  3.900976  0
C  C35  1  0.09904668  0.50237743  0.24661779  1  0  -0.041566  0  3.658374  0  0  -0.086732  0  3.912225  0  0  -0.082456  0  3.929882  0  0  -0.066039  -0.089252  0  3.90093  0
C  C36  1  0.65968872  0.50214402  0.75345364  1  0  0.640571  0  3.923446  0  0  0.588797  0  4.211745  0  0  0.623202  0  4.20703  0  0  0.199811  0.565381  0  4.213868  0
C  C37  1  0.34031254  0.49786089  0.24654588  1  0  0.6406  0  3.923491  0  0  0.588829  0  4.211793  0  0  0.623236  0  4.207077  0  0  0.199825  0.565415  0  4.213914  0
C  C38  1  0.42821539  0.10104538  0.92523512  1  0  0.190367  0  3.800418  0  0  0.191761  0  4.054357  0  0  0.196024  0  4.076676  0  0  0.103428  0.189302  0  4.039256  0
C  C39  1  0.57178200  0.89895313  0.07476378  1  0  0.190407  0  3.800171  0  0  0.19174  0  4.054184  0  0  0.196003  0  4.076501  0  0  0.103368  0.189285  0  4.039086  0
C  C40  1  0.89825949  0.63974573  0.95267443  1  0  -0.074348  0  3.67198  0  0  -0.116393  0  3.93428  0  0  -0.111814  0  3.950436  0  0  -0.065184  -0.118207  0  3.92244  0
C  C41  1  0.10174376  0.36025924  0.04732653  1  0  -0.074234  0  3.672002  0  0  -0.116274  0  3.934365  0  0  -0.111699  0  3.950532  0  0  -0.065182  -0.118098  0  3.922534  0
C  C42  1  0.38129617  0.29298255  0.89228805  1  0  0.148575  0  3.67195  0  0  0.119065  0  3.922035  0  0  0.126732  0  3.939175  0  0  0.052394  0.113869  0  3.910753  0
C  C43  1  0.61870625  0.70701825  0.10771177  1  0  0.148564  0  3.672034  0  0  0.119039  0  3.922134  0  0  0.126708  0  3.93927  0  0  0.052372  0.113843  0  3.910856  0
C  C44  1  0.12990471  0.63446924  0.94631452  1  0  -0.080095  0  3.671188  0  0  -0.117623  0  3.923574  0  0  -0.113179  0  3.939944  0  0  -0.066494  -0.119462  0  3.912173  0
C  C45  1  0.87009574  0.36552939  0.05368522  1  0  -0.080142  0  3.671165  0  0  -0.117637  0  3.923552  0  0  -0.113199  0  3.93993  0  0  -0.066545  -0.119478  0  3.91214  0
C  C46  1  0.42044926  0.22563132  0.97809449  1  0  -0.149942  0  3.644767  0  0  -0.173643  0  3.895937  0  0  -0.180932  0  3.915078  0  0  -0.068774  -0.168742  0  3.883681  0
C  C47  1  0.57955119  0.77436731  0.02190524  1  0  -0.149956  0  3.644704  0  0  -0.17362  0  3.895875  0  0  -0.180908  0  3.915011  0  0  -0.068729  -0.168722  0  3.883632  0
C  C48  1  0.02507703  0.13406534  0.23147940  1  0  -0.16171  0  3.684884  0  0  -0.179969  0  3.93037  0  0  -0.188174  0  3.953886  0  0  -0.072956  -0.17456  0  3.914486  0
C  C49  1  0.97492027  0.86593523  0.76851993  1  0  -0.161746  0  3.684923  0  0  -0.180017  0  3.930405  0  0  -0.18822  0  3.953918  0  0  -0.072959  -0.174603  0  3.914518  0
C  C50  1  0.09100724  0.21773737  0.36513549  1  0  0.126401  0  3.699703  0  0  0.09853  0  3.945589  0  0  0.104535  0  3.965763  0  0  0.048927  0.094517  0  3.931705  0
C  C51  1  0.90899108  0.78226324  0.63486411  1  0  0.126422  0  3.699765  0  0  0.098542  0  3.945655  0  0  0.104536  0  3.965828  0  0  0.048918  0.094521  0  3.931782  0
C  C52  1  0.35039687  0.11816910  0.70905946  1  0  0.138223  0  3.714317  0  0  0.10976  0  3.964493  0  0  0.116193  0  3.984422  0  0  0.050636  0.105636  0  3.950952  0
C  C53  1  0.64960352  0.88183162  0.29093981  1  0  0.138164  0  3.714317  0  0  0.109719  0  3.964491  0  0  0.116152  0  3.984421  0  0  0.050627  0.105599  0  3.950946  0
C  C54  1  0.39021047  0.04422613  0.78718808  1  0  -0.167492  0  3.67873  0  0  -0.184892  0  3.920958  0  0  -0.192499  0  3.9423  0  0  -0.07248  -0.180735  0  3.907272  0
C  C55  1  0.60978693  0.95577238  0.21281083  1  0  -0.167457  0  3.678705  0  0  -0.184838  0  3.920933  0  0  -0.192445  0  3.942275  0  0  -0.072439  -0.180682  0  3.907244  0
C  C56  1  0.11195159  0.09000006  0.17122671  1  0  0.199032  0  3.786508  0  0  0.200508  0  4.036906  0  0  0.204939  0  4.05919  0  0  0.104916  0.197862  0  4.021301  0
C  C57  1  0.88804728  0.90999954  0.82877282  1  0  0.198984  0  3.786587  0  0  0.200499  0  4.036943  0  0  0.204931  0  4.059223  0  0  0.104904  0.19785  0  4.02135  0
C  C58  1  0.13390537  0.48475295  0.73979600  1  0  0.636469  0  3.946732  0  0  0.587883  0  4.234158  0  0  0.621942  0  4.229532  0  0  0.193215  0.564853  0  4.236057  0
C  C59  1  0.86609498  0.51524775  0.26020416  1  0  0.636457  0  3.94667  0  0  0.587885  0  4.234104  0  0  0.621945  0  4.229476  0  0  0.193205  0.564862  0  4.235993  0
C  C60  1  0.25997340  0.12893898  0.24742218  1  0  -0.140165  0  3.645387  0  0  -0.163082  0  3.898027  0  0  -0.170738  0  3.918396  0  0  -0.064368  -0.158433  0  3.88458  0
C  C61  1  0.74002401  0.87105741  0.75257807  1  0  -0.140208  0  3.6454  0  0  -0.163138  0  3.898126  0  0  -0.170791  0  3.918493  0  0  -0.064437  -0.158487  0  3.884664  0
C  C62  1  0.31687237  0.21250863  0.38076556  1  0  0.142805  0  3.674519  0  0  0.112904  0  3.921511  0  0  0.120235  0  3.940111  0  0  0.053436  0.108183  0  3.908718  0
C  C63  1  0.68312554  0.78748884  0.61923415  1  0  0.142847  0  3.674514  0  0  0.112943  0  3.921526  0  0  0.120276  0  3.940125  0  0  0.053488  0.108235  0  3.908728  0
N  N64  1  0.23471632  0.25674648  0.43854880  1  0  -0.337453  0  3.258499  0  0  -0.257891  0  3.525548  0  0  -0.279423  0  3.545692  0  0  -0.323851  -0.242685  0  3.510795  0
N  N65  1  0.76528306  0.74325419  0.56145019  1  0  -0.337504  0  3.258512  0  0  -0.257925  0  3.525563  0  0  -0.279455  0  3.545708  0  0  -0.323868  -0.242719  0  3.510814  0
N  N66  1  0.34745070  0.24092981  0.76029153  1  0  -0.334091  0  3.227651  0  0  -0.261096  0  3.491826  0  0  -0.281227  0  3.511222  0  0  -0.322231  -0.247222  0  3.478187  0
N  N67  1  0.65255121  0.75907203  0.23970748  1  0  -0.333991  0  3.227583  0  0  -0.261047  0  3.491806  0  0  -0.281182  0  3.511205  0  0  -0.322223  -0.247172  0  3.478171  0
N  N68  1  0.12901792  0.77719258  0.15224339  1  0  0.494899  0  3.915661  0  0  0.521991  0  4.219377  0  0  0.542621  0  4.228271  0  0  0.054173  0.508199  0  4.213229  0
N  N69  1  0.87098359  0.22280400  0.84775707  1  0  0.495055  0  3.915598  0  0  0.522167  0  4.219293  0  0  0.542798  0  4.228176  0  0  0.054222  0.508368  0  4.213151  0
N  N70  1  0.47264449  0.04015238  0.01894810  1  0  -0.125845  0  2.9603  0  0  -0.104287  0  3.241194  0  0  -0.104468  0  3.247664  0  0  -0.123927  -0.104271  0  3.236903  0
N  N71  1  0.52735041  0.95984499  0.98104990  1  0  -0.125791  0  2.960173  0  0  -0.1042  0  3.241067  0  0  -0.104381  0  3.247537  0  0  -0.123862  -0.104191  0  3.236782  0
N  N72  1  0.05984368  0.00351660  0.03655495  1  0  -0.125283  0  2.964573  0  0  -0.103677  0  3.247082  0  0  -0.103506  0  3.254975  0  0  -0.126818  -0.103977  0  3.241554  0
N  N73  1  0.94015169  0.99648182  0.96344340  1  0  -0.125116  0  2.964529  0  0  -0.103494  0  3.246995  0  0  -0.103324  0  3.254888  0  0  -0.126735  -0.103802  0  3.241472  0
O  O74  1  0.59341377  0.42237831  0.63119076  1  0  -0.657474  0  2.009533  0  0  -0.593546  0  2.242703  0  0  -0.622138  0  2.232732  0  0  -0.323203  -0.572307  0  2.248143  0
O  O75  1  0.40658699  0.57762552  0.36880929  1  0  -0.657492  0  2.009544  0  0  -0.593562  0  2.242741  0  0  -0.62215  0  2.232747  0  0  -0.323217  -0.572321  0  2.248174  0
O  O76  1  0.59223573  0.54468214  0.82074494  1  0  -0.616205  0  1.996244  0  0  -0.550271  0  2.236991  0  0  -0.580056  0  2.231047  0  0  -0.31303  -0.527996  0  2.241423  0
O  O77  1  0.40776410  0.45531959  0.17925441  1  0  -0.616227  0  1.996275  0  0  -0.55028  0  2.237018  0  0  -0.58006  0  2.231048  0  0  -0.31304  -0.528003  0  2.241446  0
O  O78  1  0.26160990  0.50024751  0.80991200  1  0  -0.630188  0  1.989416  0  0  -0.562376  0  2.232103  0  0  -0.592896  0  2.22429  0  0  -0.329562  -0.539956  0  2.237759  0
O  O79  1  0.73838935  0.49975310  0.19008966  1  0  -0.630169  0  1.989402  0  0  -0.562363  0  2.232098  0  0  -0.592885  0  2.224281  0  0  -0.329559  -0.539954  0  2.237757  0
O  O80  1  0.07323017  0.42887440  0.61425978  1  0  -0.647976  0  1.913931  0  0  -0.598028  0  2.131167  0  0  -0.622571  0  2.120373  0  0  -0.335958  -0.579824  0  2.137352  0
O  O81  1  0.92677268  0.57112743  0.38574129  1  0  -0.647985  0  1.913911  0  0  -0.598046  0  2.131161  0  0  -0.622591  0  2.120372  0  0  -0.33595  -0.579848  0  2.137347  0
O  O82  1  0.05335808  0.80643719  0.21384039  1  0  -0.354926  0  1.736062  0  0  -0.340314  0  1.939038  0  0  -0.351915  0  1.936506  0  0  -0.131272  -0.332415  0  1.940465  0
O  O83  1  0.94664825  0.19357004  0.78615917  1  0  -0.355018  0  1.736074  0  0  -0.340405  0  1.939037  0  0  -0.352007  0  1.9365  0  0  -0.131316  -0.332505  0  1.940465  0
O  O84  1  0.26667168  0.82252919  0.20103767  1  0  -0.367112  0  1.735467  0  0  -0.354345  0  1.94278  0  0  -0.366551  0  1.940197  0  0  -0.136619  -0.345947  0  1.944528  0
O  O85  1  0.73333010  0.17745484  0.79896643  1  0  -0.367122  0  1.735332  0  0  -0.354386  0  1.942682  0  0  -0.366591  0  1.940089  0  0  -0.136603  -0.345993  0  1.944437  0
O  O86  1  0.32956071  0.59637518  0.57904688  1  0  -0.827987  0  1.833941  0  0  -0.767779  0  2.014841  0  0  -0.790132  0  1.982375  0  0  -0.592826  -0.752034  0  2.038159  0
O  O87  1  0.67043571  0.40362331  0.42095085  1  0  -0.827996  0  1.833846  0  0  -0.767785  0  2.014791  0  0  -0.79014  0  1.982326  0  0  -0.592786  -0.752037  0  2.038107  0
