# generated using pymatgen
data_CoH11C17SN3O5
_symmetry_space_group_name_H-M   'P 1'
_cell_length_a   7.75325984
_cell_length_b   10.34169703
_cell_length_c   11.71813232
_cell_angle_alpha   63.60252928
_cell_angle_beta   74.05369786
_cell_angle_gamma   83.29382919
_symmetry_Int_Tables_number   1
_chemical_formula_structural   CoH11C17SN3O5
_chemical_formula_sum   'Co2 H22 C34 S2 N6 O10'
_cell_volume   809.21149661
_cell_formula_units_Z   2
loop_
 _symmetry_equiv_pos_site_id
 _symmetry_equiv_pos_as_xyz
  1  'x, y, z'
loop_
 _atom_site_type_symbol
 _atom_site_label
 _atom_site_symmetry_multiplicity
 _atom_site_fract_x
 _atom_site_fract_y
 _atom_site_fract_z
 _atom_site_occupancy
 _atom_site_pbe_cm5_charge
 _atom_site_pbe_ddec_charge
 _atom_site_pbe_ddec_spin_density
 _atom_site_pbe_ddec_sum_bond_order
 _atom_site_pbe_magmom
Co  Co0  1  0.35288460  0.91095117  0.45014408  1  0.687337  0.897337  -2.828124  2.508218  -2.561
Co  Co1  1  0.64710843  0.08904441  0.54986170  1  0.687378  0.897357  -2.828125  2.508479  -2.561
H  H2  1  0.08158837  0.99427433  0.65659923  1  0.121959  0.112552  -0.000424  1.033147  -0.001
H  H3  1  0.91840447  0.00571485  0.34339115  1  0.121933  0.112524  -0.000424  1.033231  -0.001
H  H4  1  0.61309295  0.80757854  0.26757478  1  0.119687  0.095563  -0.000113  1.01467  -0.001
H  H5  1  0.38692165  0.19244625  0.73243011  1  0.119648  0.095413  -0.000113  1.014778  -0.001
H  H6  1  0.99708404  0.62300505  0.25062353  1  0.105772  0.130407  -5e-05  1.042088  0.0
H  H7  1  0.00288099  0.37696871  0.74940621  1  0.105684  0.130256  -5e-05  1.042106  0.0
H  H8  1  0.05538200  0.34967440  0.28920670  1  0.103767  0.117866  -8.2e-05  1.029441  0.0
H  H9  1  0.94461637  0.65030288  0.71079924  1  0.103795  0.117979  -8.2e-05  1.029401  0.0
H  H10  1  0.36551466  0.20403418  0.19276674  1  0.115322  0.089063  -0.000181  1.013959  -0.001
H  H11  1  0.63448361  0.79598413  0.80722238  1  0.115353  0.089113  -0.000181  1.013999  -0.001
H  H12  1  0.90576048  0.00556743  0.83618202  1  0.30764  0.285971  8.7e-05  1.008196  0.0
H  H13  1  0.09424331  0.99443684  0.16382179  1  0.307659  0.286032  8.7e-05  1.008096  0.0
H  H14  1  0.54973293  0.31099902  0.95812762  1  0.109749  0.116911  -0.000412  0.986086  0.0
H  H15  1  0.45026397  0.68901282  0.04186001  1  0.109768  0.11691  -0.000412  0.985948  0.0
H  H16  1  0.25115965  0.49570391  0.90998733  1  0.107103  0.116195  -0.000377  1.004465  0.0
H  H17  1  0.74883492  0.50429591  0.09003443  1  0.107098  0.116195  -0.000377  1.004433  0.0
H  H18  1  0.37199057  0.62689150  0.66710410  1  0.107957  0.075906  -0.000131  1.055935  -0.001
H  H19  1  0.62797832  0.37307911  0.33291164  1  0.108026  0.07599  -0.000131  1.056043  -0.001
H  H20  1  0.77198232  0.15655417  0.87859638  1  0.109327  0.109597  0.000295  1.059029  0.0
H  H21  1  0.22803081  0.84346095  0.12139974  1  0.109377  0.109633  0.000295  1.059128  0.0
H  H22  1  0.03855606  0.62338881  0.03064646  1  0.109183  0.123559  0.000161  1.04362  0.0
H  H23  1  0.96146940  0.37663816  0.96936666  1  0.109154  0.123477  0.000161  1.043741  0.0
C  C24  1  0.29774140  0.18692870  0.45173903  1  0.212516  0.587595  0.004542  4.211101  0.0
C  C25  1  0.70225001  0.81305080  0.54824601  1  0.21234  0.587526  0.004538  4.210949  0.0
C  C26  1  0.11882901  0.88447293  0.71554656  1  0.048361  0.006662  0.004721  3.871072  0.003
C  C27  1  0.88116665  0.11552052  0.28445443  1  0.048437  0.006731  0.004727  3.871069  0.003
C  C28  1  0.70503386  0.96678256  0.06664431  1  -0.014343  -0.081043  -0.002234  3.971755  -0.004
C  C29  1  0.29498607  0.03323580  0.93335697  1  -0.014316  -0.080954  -0.002234  3.971516  -0.004
C  C30  1  0.60058998  0.91845728  0.19660217  1  0.0583  0.094027  0.008528  3.871234  0.005
C  C31  1  0.39942592  0.08156322  0.80339988  1  0.058229  0.094042  0.00853  3.871356  0.005
C  C32  1  0.08759649  0.54998208  0.30705769  1  -0.100487  -0.1229  -0.000382  3.993313  -0.002
C  C33  1  0.91238449  0.44999722  0.69295582  1  -0.100402  -0.122629  -0.000386  3.99286  -0.002
C  C34  1  0.11760090  0.40489578  0.32808051  1  -0.098958  -0.0989  0.003313  3.970458  0.001
C  C35  1  0.88238807  0.59508577  0.67192552  1  -0.099028  -0.099223  0.003313  3.970558  0.001
C  C36  1  0.46492234  0.14052064  0.15396096  1  0.046957  0.095132  0.005358  3.936767  0.003
C  C37  1  0.53508543  0.85949769  0.84603492  1  0.046823  0.095001  0.005363  3.936872  0.003
C  C38  1  0.56669697  0.19856315  0.02414792  1  -0.085006  -0.125952  -0.002249  3.991115  -0.004
C  C39  1  0.43330407  0.80145299  0.97584751  1  -0.084933  -0.125839  -0.002249  3.990952  -0.004
C  C40  1  0.04239519  0.81879014  0.85227784  1  0.104399  0.208593  -0.002129  3.992042  -0.004
C  C41  1  0.95761265  0.18122061  0.14772610  1  0.104382  0.208482  -0.002131  3.991848  -0.004
C  C42  1  0.18443527  0.73270142  0.37140434  1  0.203441  0.583279  0.003562  4.260447  0.001
C  C43  1  0.81555614  0.26729534  0.62857653  1  0.203592  0.58334  0.003554  4.2603  0.001
C  C44  1  0.18330589  0.59030619  0.37051979  1  -0.025296  -0.128386  -0.001199  3.977579  -0.003
C  C45  1  0.81668443  0.40967536  0.62948684  1  -0.025274  -0.128415  -0.001197  3.97756  -0.003
C  C46  1  0.23439047  0.33622472  0.40823737  1  -0.026864  -0.135859  -0.004246  3.989061  -0.007
C  C47  1  0.76561984  0.66376348  0.59175270  1  -0.026913  -0.135851  -0.00425  3.989407  -0.007
C  C48  1  0.82205969  0.85643320  0.03244822  1  0.240469  0.470837  -0.000502  4.123866  -0.001
C  C49  1  0.17796838  0.14358195  0.96756132  1  0.24033  0.470625  -0.000502  4.123727  -0.001
C  C50  1  0.21292652  0.60736343  0.85785178  1  -0.087821  -0.114631  -0.002177  4.009908  -0.003
C  C51  1  0.78706663  0.39263534  0.14216383  1  -0.087727  -0.114553  -0.002179  4.009717  -0.003
C  C52  1  0.28137560  0.67922685  0.72271966  1  0.032492  0.070138  0.005624  3.955458  0.003
C  C53  1  0.71860674  0.32075570  0.27729404  1  0.032318  0.069845  0.005633  3.955636  0.003
C  C54  1  0.69004012  0.11141939  0.97964957  1  -0.068225  -0.056393  0.009286  3.920646  0.005
C  C55  1  0.30996904  0.88859354  0.02035157  1  -0.068397  -0.056601  0.009292  3.920875  0.005
C  C56  1  0.09309141  0.67677875  0.92498330  1  -0.081029  -0.148761  0.007275  3.939237  0.004
C  C57  1  0.90692187  0.32323739  0.07502520  1  -0.081022  -0.14853  0.007284  3.938977  0.004
S  S58  1  0.30761325  0.45017078  0.45696220  1  0.117288  0.193364  0.001811  2.954629  0.001
S  S59  1  0.69240108  0.54982067  0.54302670  1  0.117362  0.193472  0.001806  2.954663  0.001
N  N60  1  0.23614225  0.81698403  0.65290722  1  -0.329746  -0.24565  -0.030224  3.635024  -0.049
N  N61  1  0.76384000  0.18299640  0.34709879  1  -0.329725  -0.245554  -0.030229  3.634924  -0.049
N  N62  1  0.48367478  0.00295277  0.24010907  1  -0.316382  -0.247027  -0.025709  3.543003  -0.049
N  N63  1  0.51633433  0.99707097  0.75988531  1  -0.316143  -0.246729  -0.025712  3.542825  -0.049
N  N64  1  0.92353337  0.90245589  0.90524828  1  -0.392766  -0.378822  -0.000404  3.577355  -0.001
N  N65  1  0.07648521  0.09756031  0.09475323  1  -0.392748  -0.378757  -0.000404  3.577594  -0.001
O  O66  1  0.24131905  0.10440949  0.41414360  1  -0.302598  -0.525115  -0.049225  2.357263  -0.074
O  O67  1  0.75864023  0.89558380  0.58584973  1  -0.302679  -0.525359  -0.049255  2.357069  -0.074
O  O68  1  0.28488507  0.74151058  0.43897660  1  -0.319966  -0.559449  -0.055694  2.445356  -0.088
O  O69  1  0.71515569  0.25851141  0.56096477  1  -0.32013  -0.559466  -0.055706  2.445514  -0.088
O  O70  1  0.40523086  0.14590040  0.52676521  1  -0.315267  -0.578802  -0.049249  2.518353  -0.077
O  O71  1  0.59478983  0.85405780  0.47319876  1  -0.315012  -0.578578  -0.049191  2.518091  -0.077
O  O72  1  0.09141963  0.83365083  0.30833877  1  -0.319141  -0.555551  0.001252  2.218857  0.0
O  O73  1  0.90851958  0.16631859  0.69166846  1  -0.319168  -0.555527  0.001237  2.218547  0.0
O  O74  1  0.82187939  0.72984495  0.11725782  1  -0.285118  -0.477348  -0.000303  2.166508  0.0
O  O75  1  0.17815807  0.27018320  0.88274662  1  -0.285086  -0.477344  -0.000303  2.166109  0.0
