# generated using pymatgen
data_ZnH11C18NO6
_symmetry_space_group_name_H-M   'P 1'
_cell_length_a   10.99966934
_cell_length_b   13.96008419
_cell_length_c   15.37797130
_cell_angle_alpha   89.75130398
_cell_angle_beta   88.36459548
_cell_angle_gamma   90.17879379
_symmetry_Int_Tables_number   1
_chemical_formula_structural   ZnH11C18NO6
_chemical_formula_sum   'Zn2 H22 C36 N2 O12'
_cell_volume   2360.38799891
_cell_formula_units_Z   2
loop_
 _symmetry_equiv_pos_site_id
 _symmetry_equiv_pos_as_xyz
  1  'x, y, z'
loop_
 _atom_site_type_symbol
 _atom_site_label
 _atom_site_symmetry_multiplicity
 _atom_site_fract_x
 _atom_site_fract_y
 _atom_site_fract_z
 _atom_site_occupancy
 _atom_site_pbe_bader_charge
 _atom_site_pbe_bader_spin_density
 _atom_site_pbe_cm5_charge
 _atom_site_pbe_ddec_charge
 _atom_site_pbe_ddec_spin_density
 _atom_site_pbe_ddec_sum_bond_order
 _atom_site_pbe_magmom
Zn  Zn0  1  0.48721005  0.60162886  0.49666666  1  1.274373  0  0.673334  0.836462  0  2.381455  0
Zn  Zn1  1  0.49030720  0.39708108  0.49766232  1  1.287827  0  0.672356  0.823369  0  2.414322  0
H  H2  1  0.86477045  0.43553360  0.61016149  1  0.0751  0  0.104702  0.108546  0  0.991992  0
H  H3  1  0.09141749  0.43892350  0.61886214  1  0.064334  0  0.105399  0.109761  0  0.986331  0
H  H4  1  0.39381711  0.93257079  0.62027863  1  0.093113  0  0.112297  0.141378  0  0.995022  0
H  H5  1  0.63481406  0.92918162  0.39122630  1  0.090364  0  0.114462  0.144648  0  0.991653  0
H  H6  1  0.78145038  0.55389094  0.32347332  1  0.034126  0  0.100564  0.108089  0  1.010673  0
H  H7  1  0.23265598  0.56750013  0.34463152  1  0.085738  0  0.099287  0.106162  0  1.033306  0
H  H8  1  0.90861951  0.60718760  0.19833069  1  0.048998  0  0.102553  0.09896  0  0.990713  0
H  H9  1  0.13530401  0.61509663  0.20904561  1  0.072428  0  0.100792  0.098819  0  0.997762  0
H  H10  1  0.44537710  0.65293461  0.05546266  1  0.05565  0  0.104967  0.123964  0  0.997049  0
H  H11  1  0.33729725  0.59498123  0.94121107  1  0.062573  0  0.102384  0.111792  0  1.017581  0
H  H12  1  0.53968600  0.35794931  0.22159104  1  0.081893  0  0.104442  0.109365  0  0.99354  0
H  H13  1  0.63345183  0.39585917  0.77385704  1  0.099753  0  0.106605  0.109442  0  0.985305  0
H  H14  1  0.54098023  0.35271705  0.05949435  1  0.04075  0  0.098235  0.102407  0  1.014489  0
H  H15  1  0.64325406  0.40256905  0.93515516  1  0.053962  0  0.100899  0.104514  0  1.008984  0
H  H16  1  0.68815060  0.07198049  0.44982790  1  0.088484  0  0.117002  0.123515  0  0.987539  0
H  H17  1  0.31463717  0.06133410  0.54462549  1  0.06219  0  0.117213  0.124846  0  0.985904  0
H  H18  1  0.67109358  0.25054389  0.44772005  1  0.122846  0  0.129108  0.106671  0  0.975306  0
H  H19  1  0.31340857  0.24062916  0.53801867  1  0.117719  0  0.129699  0.10539  0  0.971665  0
H  H20  1  0.42809827  0.68176279  0.64451493  1  0.688522  0  0.309132  0.369871  0  0.958354  0
H  H21  1  0.67798521  0.68002092  0.42038400  1  0.67187  0  0.311262  0.370723  0  0.959353  0
H  H22  1  0.44245474  0.66112025  0.28446186  1  0.650041  0  0.302998  0.354722  0  0.968526  0
H  H23  1  0.26737628  0.63877122  0.80877833  1  0.608033  0  0.343858  0.37009  0  0.862215  0
C  C24  1  0.48990789  0.50581224  0.32555382  1  1.524015  0  0.211057  0.595792  0  4.172124  0
C  C25  1  0.48690477  0.49307167  0.66906346  1  1.557595  0  0.226131  0.637903  0  4.122571  0
C  C26  1  0.49145052  0.50611421  0.22946210  1  -0.045004  0  -0.043892  -0.199336  0  3.996216  0
C  C27  1  0.48563403  0.49497995  0.76621036  1  -0.012462  0  -0.028963  -0.145712  0  3.95344  0
C  C28  1  0.51986497  0.42183782  0.18361910  1  0.02243  0  -0.08562  -0.056565  0  4.02797  0
C  C29  1  0.56965254  0.44014301  0.81134197  1  -0.019759  0  -0.085401  -0.075267  0  4.025798  0
C  C30  1  0.52136331  0.41937442  0.09359547  1  -0.079801  0  -0.11064  -0.180062  0  4.026426  0
C  C31  1  0.57408940  0.44303866  0.90161349  1  -0.066311  0  -0.104267  -0.165794  0  4.012795  0
C  C32  1  0.49288069  0.50252548  0.04577761  1  -0.013262  0  -0.003394  0.101129  0  4.022213  0
C  C33  1  0.49135502  0.49986000  0.94978222  1  0.033514  0  -0.003396  0.103689  0  4.016619  0
C  C34  1  0.60264255  0.10601041  0.46902292  1  -0.066335  0  -0.074714  -0.171068  0  3.937236  0
C  C35  1  0.39608109  0.10027865  0.52312561  1  -0.027268  0  -0.074568  -0.172264  0  3.936457  0
C  C36  1  0.59429813  0.20517251  0.46766197  1  0.502663  0  0.060198  0.103894  0  3.92216  0
C  C37  1  0.39426543  0.19965163  0.51950216  1  0.543659  0  0.061466  0.106141  0  3.922313  0
C  C38  1  0.50228121  0.05098930  0.49784782  1  0.017874  0  0.022639  0.121196  0  3.960817  0
C  C39  1  0.44599649  0.89602989  0.56939413  1  -0.031362  0  -0.114559  -0.337487  0  3.931455  0
C  C40  1  0.58252660  0.89448638  0.44357057  1  0.03605  0  -0.113315  -0.335538  0  3.930815  0
C  C41  1  0.45628749  0.79630670  0.57367050  1  1.118281  0  0.21765  0.514555  0  4.072172  0
C  C42  1  0.58891366  0.79492810  0.45205901  1  1.068423  0  0.216874  0.508819  0  4.077275  0
C  C43  1  0.50896545  0.94540941  0.50277359  1  0.001821  0  0.005389  0.137456  0  4.066894  0
C  C44  1  0.72780695  0.49480650  0.48505199  1  1.499495  0  0.228225  0.621257  0  4.136578  0
C  C45  1  0.25385306  0.50176637  0.49842567  1  1.548532  0  0.22313  0.611103  0  4.167352  0
C  C46  1  0.87988832  0.55743604  0.32915140  1  -0.006863  0  -0.094375  -0.134209  0  3.98222  0
C  C47  1  0.13399731  0.56426315  0.34045619  1  -0.120518  0  -0.090959  -0.12556  0  3.970131  0
C  C48  1  0.95130532  0.58698544  0.25884632  1  -0.041844  0  -0.092742  -0.082465  0  4.047321  0
C  C49  1  0.07928836  0.59108342  0.26465980  1  0.012369  0  -0.094295  -0.084969  0  4.043866  0
C  C50  1  0.06340450  0.53231710  0.41381433  1  -0.023903  0  -0.000835  0.055362  0  3.95459  0
C  C51  1  0.93310452  0.52998248  0.40861820  1  0.052451  0  -0.002629  0.061138  0  3.963077  0
C  C52  1  0.86348540  0.49599832  0.48226545  1  0.035007  0  -0.017415  -0.085532  0  3.966717  0
C  C53  1  0.11811858  0.49974346  0.49151479  1  -0.026543  0  -0.00582  -0.051165  0  3.938544  0
C  C54  1  0.92036033  0.46255311  0.55555008  1  -0.062113  0  -0.08926  -0.100857  0  4.025499  0
C  C55  1  0.04781261  0.46450137  0.56038034  1  0.034108  0  -0.093092  -0.115844  0  4.026337  0
C  C56  1  0.46462868  0.58686301  0.09045833  1  0.07031  0  -0.109152  -0.265085  0  3.937563  0
C  C57  1  0.40537817  0.55336215  0.90479471  1  0.016002  0  -0.112264  -0.287337  0  3.99475  0
C  C58  1  0.46359717  0.59014879  0.18158333  1  0.477846  0  0.090652  0.323104  0  4.069229  0
C  C59  1  0.40260965  0.55165512  0.81416514  1  0.418778  0  0.081542  0.295846  0  4.091802  0
N  N60  1  0.49198657  0.25132559  0.49274662  1  -1.248001  0  -0.322381  -0.203778  0  3.528917  0
N  N61  1  0.52136859  0.74616189  0.51296450  1  -1.251835  0  -0.357531  -0.471529  0  3.404895  0
O  O62  1  0.46646803  0.58678505  0.36373604  1  -1.167314  0  -0.314846  -0.560716  0  2.368949  0
O  O63  1  0.49643295  0.57406969  0.62910944  1  -1.173914  0  -0.313722  -0.572893  0  2.367059  0
O  O64  1  0.51083099  0.42849362  0.36588496  1  -1.171186  0  -0.314503  -0.541275  0  2.328203  0
O  O65  1  0.48281821  0.41237464  0.63250147  1  -1.1527  0  -0.306972  -0.529367  0  2.279879  0
O  O66  1  0.67111755  0.57310299  0.46937310  1  -1.191673  0  -0.3106  -0.5781  0  2.401048  0
O  O67  1  0.30356861  0.58323059  0.50742283  1  -1.147028  0  -0.312435  -0.531422  0  2.303045  0
O  O68  1  0.67578897  0.41684800  0.50638966  1  -1.163282  0  -0.304631  -0.53333  0  2.323787  0
O  O69  1  0.30761329  0.42114856  0.49442992  1  -1.156777  0  -0.314909  -0.55101  0  2.316218  0
O  O70  1  0.40065011  0.75014428  0.63957882  1  -1.190378  0  -0.340679  -0.464573  0  2.27392  0
O  O71  1  0.66378208  0.74677717  0.39838143  1  -1.179397  0  -0.340336  -0.462334  0  2.252138  0
O  O72  1  0.43569481  0.67412412  0.22032715  1  -1.163828  0  -0.363513  -0.453317  0  2.243699  0
O  O73  1  0.31756253  0.60109009  0.76865295  1  -1.121245  0  -0.345876  -0.436129  0  2.285326  0
