# generated using pymatgen
data_AlH7C16Cl2O5
_symmetry_space_group_name_H-M   'P 1'
_cell_length_a   6.63142388
_cell_length_b   24.30231828
_cell_length_c   25.25869492
_cell_angle_alpha   89.99040179
_cell_angle_beta   89.72999260
_cell_angle_gamma   88.04180609
_symmetry_Int_Tables_number   1
_chemical_formula_structural   AlH7C16Cl2O5
_chemical_formula_sum   'Al4 H28 C64 Cl8 O20'
_cell_volume   4068.24301383
_cell_formula_units_Z   4
loop_
 _symmetry_equiv_pos_site_id
 _symmetry_equiv_pos_as_xyz
  1  'x, y, z'
loop_
 _atom_site_type_symbol
 _atom_site_label
 _atom_site_symmetry_multiplicity
 _atom_site_fract_x
 _atom_site_fract_y
 _atom_site_fract_z
 _atom_site_occupancy
 _atom_site_pbe_bader_charge
 _atom_site_pbe_bader_spin_density
 _atom_site_pbe_cm5_charge
 _atom_site_pbe_ddec_charge
 _atom_site_pbe_ddec_spin_density
 _atom_site_pbe_ddec_sum_bond_order
 _atom_site_pbe_magmom
Al  Al0  1  0.01177413  0.00137833  0.49826614  1  2.498102  0  0.393611  1.644746  0  2.568242  0
Al  Al1  1  0.51249749  0.99772288  0.49886110  1  2.501862  0  0.391138  1.648388  0  2.569051  0
Al  Al2  1  0.98702098  0.50241110  0.00114977  1  2.501346  0  0.391621  1.649162  0  2.566464  0
Al  Al3  1  0.48764537  0.49871756  0.00173329  1  2.498757  0  0.393588  1.645175  0  2.568304  0
H  H4  1  0.26300685  0.06765325  0.52019209  1  0.624111  0  0.333178  0.412732  0  0.898969  0
H  H5  1  0.78026773  0.93469481  0.52584150  1  0.605586  0  0.345798  0.421721  0  0.872837  0
H  H6  1  0.23619657  0.43233466  0.98010447  1  0.625818  0  0.332837  0.412944  0  0.899208  0
H  H7  1  0.71910576  0.56539962  0.97412163  1  0.603563  0  0.345856  0.421868  0  0.872324  0
H  H8  1  0.46531850  0.41488208  0.14051714  1  0.109422  0  0.112729  0.120424  0  0.988862  0
H  H9  1  0.45517918  0.34504601  0.21266089  1  0.108044  0  0.108528  0.11515  0  0.986905  0
H  H10  1  0.04614850  0.28323952  0.16400078  1  0.095425  0  0.109018  0.125779  0  0.991083  0
H  H11  1  0.45049059  0.21626180  0.33555742  1  0.091606  0  0.109025  0.125717  0  0.990968  0
H  H12  1  0.03394489  0.08563841  0.35960548  1  0.118754  0  0.112384  0.120079  0  0.989686  0
H  H13  1  0.04276636  0.15517564  0.28717120  1  0.090394  0  0.108564  0.115384  0  0.985666  0
H  H14  1  0.93977118  0.63712075  0.90071704  1  0.091293  0  0.108198  0.111086  0  1.002421  0
H  H15  1  0.94062097  0.71125693  0.83258506  1  0.077762  0  0.108855  0.115084  0  0.985915  0
H  H16  1  0.53458435  0.65315129  0.78267889  1  0.073971  0  0.109406  0.1255  0  0.991215  0
H  H17  1  0.96904296  0.84669503  0.71778752  1  0.090904  0  0.109477  0.125823  0  0.990332  0
H  H18  1  0.56049634  0.86278151  0.59860140  1  0.09831  0  0.10842  0.111807  0  1.001807  0
H  H19  1  0.56217627  0.78884845  0.66693564  1  0.067317  0  0.108804  0.115197  0  0.985707  0
H  H20  1  0.52824651  0.63123284  0.09516318  1  0.118933  0  0.111357  0.119494  0  0.994729  0
H  H21  1  0.54025771  0.70608593  0.16252035  1  0.075386  0  0.107702  0.114282  0  0.988618  0
H  H22  1  0.95742179  0.65916072  0.22116717  1  0.113126  0  0.109146  0.125673  0  0.991715  0
H  H23  1  0.54184119  0.84077647  0.27895433  1  0.120374  0  0.109117  0.125689  0  0.991656  0
H  H24  1  0.97108177  0.86894481  0.40489651  1  0.116032  0  0.111368  0.119342  0  0.994871  0
H  H25  1  0.95925602  0.79387356  0.33774075  1  0.076083  0  0.107594  0.114236  0  0.98865  0
H  H26  1  0.46727961  0.41560361  0.85889294  1  0.103016  0  0.109323  0.114892  0  1.001944  0
H  H27  1  0.46071639  0.34672850  0.78589862  1  0.08218  0  0.109292  0.116483  0  0.983796  0
H  H28  1  0.04341015  0.28221943  0.83664798  1  0.08917  0  0.109846  0.126465  0  0.989855  0
H  H29  1  0.46057465  0.21835507  0.66333116  1  0.096387  0  0.10969  0.126432  0  0.990597  0
H  H30  1  0.03220902  0.08359241  0.64141536  1  0.090993  0  0.109507  0.114576  0  1.001437  0
H  H31  1  0.04061772  0.15239849  0.71445286  1  0.087424  0  0.109553  0.117117  0  0.98327  0
C  C32  1  0.75478759  0.06809327  0.56946745  1  1.591631  0  0.261505  0.646783  0  4.103223  0
C  C33  1  0.74475152  0.06653114  0.42867331  1  1.601361  0  0.266387  0.649265  0  4.099032  0
C  C34  1  0.26340543  0.93529137  0.42650366  1  1.600844  0  0.268842  0.652823  0  4.093637  0
C  C35  1  0.26977585  0.93344034  0.57169170  1  1.60236  0  0.263431  0.651883  0  4.097716  0
C  C36  1  0.74490358  0.43185637  0.93063734  1  1.589084  0  0.261206  0.646185  0  4.104797  0
C  C37  1  0.75467950  0.43369698  0.07141374  1  1.593662  0  0.26654  0.649899  0  4.098952  0
C  C38  1  0.23597956  0.56494758  0.07340737  1  1.602874  0  0.268911  0.652339  0  4.095013  0
C  C39  1  0.23000240  0.56649688  0.92818868  1  1.602236  0  0.263569  0.651878  0  4.098495  0
C  C40  1  0.76154513  0.39042891  0.11337398  1  0.048673  0  -0.014666  -0.099676  0  3.931965  0
C  C41  1  0.59313484  0.38634075  0.14699558  1  -0.0367  0  -0.077571  -0.075321  0  3.996917  0
C  C42  1  0.58683748  0.34726228  0.18691431  1  -0.021531  0  -0.083981  -0.135814  0  3.950518  0
C  C43  1  0.75111622  0.30945271  0.19374036  1  0.116478  0  0.004819  0.162962  0  4.114392  0
C  C44  1  0.91982211  0.31270943  0.15991672  1  -0.001004  0  -0.088804  -0.201171  0  3.925925  0
C  C45  1  0.92561659  0.35275115  0.12053113  1  0.042084  0  0.022832  0.139594  0  4.03603  0
C  C46  1  0.74830696  0.26798272  0.23303862  1  -0.306287  0  -0.040557  -0.100546  0  4.101339  0
C  C47  1  0.74832490  0.23172254  0.26650745  1  -0.095969  0  -0.040659  -0.100713  0  4.101002  0
C  C48  1  0.74599638  0.19036144  0.30592537  1  0.129536  0  0.005009  0.162525  0  4.115265  0
C  C49  1  0.57733027  0.18697654  0.33974741  1  0.034374  0  -0.089409  -0.201339  0  3.926291  0
C  C50  1  0.57244210  0.14712446  0.37932877  1  -0.017397  0  0.023233  0.139896  0  4.037144  0
C  C51  1  0.73732114  0.10972528  0.38663426  1  0.037859  0  -0.014648  -0.100726  0  3.93261  0
C  C52  1  0.90562422  0.11395920  0.35300955  1  -0.027115  0  -0.077363  -0.074324  0  3.997105  0
C  C53  1  0.91108691  0.15285800  0.31291123  1  0.00173  0  -0.084205  -0.136096  0  3.949603  0
C  C54  1  0.23688313  0.60537057  0.88236745  1  0.026839  0  -0.01591  -0.100249  0  3.927962  0
C  C55  1  0.07009377  0.64173286  0.87489973  1  -0.009161  0  -0.078626  -0.07338  0  4.003774  0
C  C56  1  0.07003987  0.68282421  0.83685437  1  0.011468  0  -0.084525  -0.135506  0  3.949214  0
C  C57  1  0.24015083  0.68835558  0.80373757  1  0.013137  0  0.004876  0.161926  0  4.117764  0
C  C58  1  0.40474793  0.65054423  0.80900870  1  0.040851  0  -0.088142  -0.19898  0  3.92181  0
C  C59  1  0.40326474  0.60978547  0.84778428  1  0.053348  0  0.022747  0.138022  0  4.034115  0
C  C60  1  0.24768808  0.73125554  0.76602973  1  -0.290393  0  -0.039844  -0.09998  0  4.105394  0
C  C61  1  0.25652390  0.76873731  0.73400738  1  -0.05576  0  -0.040614  -0.1011  0  4.104832  0
C  C62  1  0.26318641  0.81164091  0.69627278  1  0.131058  0  0.005168  0.162605  0  4.116582  0
C  C63  1  0.09815629  0.84935259  0.69122284  1  -0.020793  0  -0.088086  -0.199977  0  3.921419  0
C  C64  1  0.09842114  0.89004580  0.65237242  1  0.056496  0  0.02222  0.138584  0  4.035385  0
C  C65  1  0.26389288  0.89448426  0.61749488  1  0.023366  0  -0.015704  -0.101094  0  3.928291  0
C  C66  1  0.43103428  0.85819527  0.62470503  1  -0.019707  0  -0.078815  -0.073662  0  4.005408  0
C  C67  1  0.43239275  0.81718800  0.66283587  1  0.01156  0  -0.084404  -0.135566  0  3.950299  0
C  C68  1  0.23439256  0.60550148  0.11782196  1  0.001454  0  -0.01483  -0.100304  0  3.932681  0
C  C69  1  0.40245070  0.63888291  0.12239442  1  0.000445  0  -0.079398  -0.079173  0  4.003735  0
C  C70  1  0.40974667  0.68023615  0.16003099  1  0.014472  0  -0.086029  -0.13733  0  3.957084  0
C  C71  1  0.24703675  0.68884235  0.19565898  1  0.084939  0  0.004537  0.16146  0  4.116304  0
C  C72  1  0.08115417  0.65419760  0.19288499  1  0.002212  0  -0.089502  -0.202313  0  3.924635  0
C  C73  1  0.07473565  0.61320416  0.15441051  1  0.04436  0  0.02323  0.139106  0  4.041862  0
C  C74  1  0.24934468  0.73141991  0.23381489  1  -0.097613  0  -0.041254  -0.100802  0  4.104962  0
C  C75  1  0.25013474  0.76841485  0.26649676  1  -0.321321  0  -0.041502  -0.101546  0  4.105228  0
C  C76  1  0.25238044  0.81108324  0.30455769  1  0.103825  0  0.004841  0.162598  0  4.115246  0
C  C77  1  0.41813653  0.84578785  0.30722287  1  -0.023316  0  -0.089663  -0.20293  0  3.924495  0
C  C78  1  0.42449401  0.88690669  0.34556238  1  0.04209  0  0.023015  0.139127  0  4.042683  0
C  C79  1  0.26487383  0.89467381  0.38214180  1  0.01336  0  -0.015125  -0.100854  0  3.933482  0
C  C80  1  0.09685270  0.86126587  0.37766710  1  -0.010503  0  -0.078816  -0.078017  0  4.003169  0
C  C81  1  0.08964959  0.81978708  0.34015005  1  0.016309  0  -0.08617  -0.138124  0  3.95671  0
C  C82  1  0.75679705  0.38909410  0.88809531  1  0.016124  0  -0.015866  -0.101295  0  3.918594  0
C  C83  1  0.59333420  0.38630083  0.85295342  1  -0.03143  0  -0.078871  -0.075605  0  4.003557  0
C  C84  1  0.58942028  0.34791049  0.81246006  1  0.007073  0  -0.083891  -0.134928  0  3.949144  0
C  C85  1  0.75212623  0.30945799  0.80613520  1  0.103053  0  0.00624  0.164426  0  4.116338  0
C  C86  1  0.91728553  0.31179981  0.84077364  1  0.070696  0  -0.088917  -0.20057  0  3.923324  0
C  C87  1  0.92010255  0.35094795  0.88101824  1  0.02731  0  0.025759  0.147559  0  4.010025  0
C  C88  1  0.75094400  0.26814122  0.76673694  1  -0.297184  0  -0.038925  -0.0989  0  4.098805  0
C  C89  1  0.75240481  0.23166763  0.73349143  1  -0.102183  0  -0.038677  -0.098815  0  4.098546  0
C  C90  1  0.75046557  0.19037576  0.69407425  1  0.126306  0  0.005633  0.164118  0  4.115489  0
C  C91  1  0.58559564  0.18843840  0.65929624  1  0.046332  0  -0.08831  -0.200123  0  3.923168  0
C  C92  1  0.58165365  0.14933867  0.61903177  1  0.025403  0  0.02561  0.148043  0  4.011038  0
C  C93  1  0.74376949  0.11081610  0.61205168  1  0.037618  0  -0.016176  -0.102625  0  3.919124  0
C  C94  1  0.90705400  0.11319411  0.64730417  1  -0.025717  0  -0.078659  -0.074076  0  4.001566  0
C  C95  1  0.91198140  0.15153121  0.68784005  1  -0.018591  0  -0.084192  -0.136361  0  3.949221  0
Cl  Cl96  1  0.13609896  0.35150079  0.07987987  1  -0.187363  0  0.012863  -0.055377  0  1.562415  0
Cl  Cl97  1  0.36201042  0.14829332  0.42000084  1  -0.187564  0  0.01321  -0.054949  0  1.564594  0
Cl  Cl98  1  0.61024111  0.56444389  0.84961551  1  -0.188003  0  0.015248  -0.05313  0  1.533552  0
Cl  Cl99  1  0.89096555  0.93522431  0.65075783  1  -0.184189  0  0.014802  -0.053602  0  1.532283  0
Cl  Cl100  1  0.87017575  0.57106200  0.15552729  1  -0.182892  0  0.01567  -0.048451  0  1.526079  0
Cl  Cl101  1  0.62883542  0.92912783  0.34431524  1  -0.184702  0  0.015489  -0.048635  0  1.524894  0
Cl  Cl102  1  0.12913907  0.34662879  0.92199603  1  -0.198767  0  0.01678  -0.060006  0  1.560366  0
Cl  Cl103  1  0.37320841  0.15409281  0.57788872  1  -0.197033  0  0.015803  -0.060761  0  1.555913  0
O  O104  1  0.93091882  0.04982425  0.55658021  1  -1.252067  0  -0.240383  -0.600451  0  2.351878  0
O  O105  1  0.58232493  0.04344659  0.44078004  1  -1.257826  0  -0.230595  -0.586466  0  2.402088  0
O  O106  1  0.42909811  0.94383427  0.44968667  1  -1.252812  0  -0.233053  -0.589056  0  2.374463  0
O  O107  1  0.10373972  0.94502437  0.54861613  1  -1.255168  0  -0.238638  -0.604875  0  2.391562  0
O  O108  1  0.09207085  0.95652109  0.43931957  1  -1.251474  0  -0.230088  -0.574153  0  2.333706  0
O  O109  1  0.44266974  0.95004910  0.55802758  1  -1.255131  0  -0.237608  -0.589967  0  2.329557  0
O  O110  1  0.58997453  0.05309554  0.54959008  1  -1.260841  0  -0.238227  -0.603776  0  2.419738  0
O  O111  1  0.91673373  0.05588814  0.44934389  1  -1.254503  0  -0.232481  -0.583373  0  2.335321  0
O  O112  1  0.26032993  0.03300537  0.50109554  1  -1.428139  0  -0.45103  -0.988332  0  2.224505  0
O  O113  1  0.76886459  0.96514460  0.50104818  1  -1.408935  0  -0.44862  -0.981628  0  2.189479  0
O  O114  1  0.90950137  0.44693288  0.95058927  1  -1.259882  0  -0.23856  -0.604364  0  2.421178  0
O  O115  1  0.58278345  0.44434164  0.05070866  1  -1.252712  0  -0.232201  -0.583902  0  2.335373  0
O  O116  1  0.40726040  0.54367860  0.06063979  1  -1.249377  0  -0.230126  -0.573851  0  2.333608  0
O  O117  1  0.05698794  0.54992037  0.94178319  1  -1.256056  0  -0.2377  -0.589765  0  2.327107  0
O  O118  1  0.07034709  0.55646367  0.05015741  1  -1.254994  0  -0.233621  -0.589184  0  2.373691  0
O  O119  1  0.39577552  0.55495192  0.95139427  1  -1.254672  0  -0.238708  -0.60547  0  2.39512  0
O  O120  1  0.56863704  0.45008322  0.94343599  1  -1.250068  0  -0.240679  -0.600238  0  2.351558  0
O  O121  1  0.91718398  0.45680174  0.05939367  1  -1.255821  0  -0.23095  -0.586954  0  2.39991  0
O  O122  1  0.23912232  0.46707976  0.99901834  1  -1.429537  0  -0.451286  -0.989708  0  2.224412  0
O  O123  1  0.73058439  0.53494866  0.99891331  1  -1.407538  0  -0.448694  -0.981721  0  2.188479  0
