# generated using pymatgen
data_Zn2H5C5N13O
_symmetry_space_group_name_H-M   'P 1'
_cell_length_a   10.94402762
_cell_length_b   11.11543918
_cell_length_c   11.91741556
_cell_angle_alpha   103.97233328
_cell_angle_beta   90.00009748
_cell_angle_gamma   90.00023765
_symmetry_Int_Tables_number   1
_chemical_formula_structural   Zn2H5C5N13O
_chemical_formula_sum   'Zn8 H20 C20 N52 O4'
_cell_volume   1406.83201186
_cell_formula_units_Z   4
loop_
 _symmetry_equiv_pos_site_id
 _symmetry_equiv_pos_as_xyz
  1  'x, y, z'
loop_
 _atom_site_type_symbol
 _atom_site_label
 _atom_site_symmetry_multiplicity
 _atom_site_fract_x
 _atom_site_fract_y
 _atom_site_fract_z
 _atom_site_occupancy
 _atom_site_hle17_bader_spin_density
 _atom_site_hle17_ddec_charge
 _atom_site_hle17_ddec_spin_density
 _atom_site_hle17_ddec_sum_bond_order
 _atom_site_hle17_magmom
 _atom_site_hse06_10hf_bader_spin_density
 _atom_site_hse06_10hf_ddec_charge
 _atom_site_hse06_10hf_ddec_spin_density
 _atom_site_hse06_10hf_ddec_sum_bond_order
 _atom_site_hse06_10hf_magmom
 _atom_site_hse06_bader_spin_density
 _atom_site_hse06_ddec_charge
 _atom_site_hse06_ddec_spin_density
 _atom_site_hse06_ddec_sum_bond_order
 _atom_site_hse06_magmom
 _atom_site_pbe_bader_spin_density
 _atom_site_pbe_cm5_charge
 _atom_site_pbe_ddec_charge
 _atom_site_pbe_ddec_spin_density
 _atom_site_pbe_ddec_sum_bond_order
 _atom_site_pbe_magmom
Zn  Zn0  1  0.87770003  0.49885314  0.17148489  1  0  1.027369  0  1.989409  0  0  0.86444  0  2.475915  0  0  0.901267  0  2.430883  0  0  0.720366  0.839177  0  2.506545  0
Zn  Zn1  1  0.37770144  0.50114442  0.32851698  1  0  1.027353  0  1.989462  0  0  0.86442  0  2.476006  0  0  0.901245  0  2.430973  0  0  0.720364  0.839157  0  2.506637  0
Zn  Zn2  1  0.12229687  0.50114747  0.82851605  1  0  1.0274  0  1.989491  0  0  0.864431  0  2.475998  0  0  0.901256  0  2.430971  0  0  0.720345  0.839166  0  2.506626  0
Zn  Zn3  1  0.62229728  0.49885342  0.67148248  1  0  1.027322  0  1.989468  0  0  0.864387  0  2.475959  0  0  0.901214  0  2.430929  0  0  0.720327  0.839123  0  2.506588  0
Zn  Zn4  1  0.16961148  0.49046966  0.12937746  1  0  1.015287  0  1.984309  0  0  0.851826  0  2.468951  0  0  0.888091  0  2.425315  0  0  0.715631  0.827103  0  2.498525  0
Zn  Zn5  1  0.66961140  0.50953065  0.37062223  1  0  1.0152  0  1.984397  0  0  0.851725  0  2.469063  0  0  0.887996  0  2.425426  0  0  0.7156  0.827001  0  2.498637  0
Zn  Zn6  1  0.83038633  0.50953279  0.87062559  1  0  1.015163  0  1.984328  0  0  0.851699  0  2.468974  0  0  0.887964  0  2.425337  0  0  0.715613  0.826971  0  2.498545  0
Zn  Zn7  1  0.33038549  0.49046536  0.62937428  1  0  1.015159  0  1.984369  0  0  0.85171  0  2.468984  0  0  0.887978  0  2.425346  0  0  0.715596  0.826983  0  2.498557  0
H  H8  1  0.80821943  0.23768415  0.02173417  1  0  0.115281  0  0.934629  0  0  0.123047  0  0.998408  0  0  0.125812  0  0.997089  0  0  0.12954  0.121005  0  0.999479  0
H  H9  1  0.30821949  0.76231217  0.47826564  1  0  0.115346  0  0.934597  0  0  0.123077  0  0.998402  0  0  0.125844  0  0.997084  0  0  0.129569  0.121036  0  0.999472  0
H  H10  1  0.19178021  0.76232113  0.97826450  1  0  0.115331  0  0.934599  0  0  0.123058  0  0.998415  0  0  0.125823  0  0.997096  0  0  0.129547  0.121015  0  0.999488  0
H  H11  1  0.69178014  0.23768569  0.52173131  1  0  0.115293  0  0.934653  0  0  0.123027  0  0.99848  0  0  0.125794  0  0.997158  0  0  0.129534  0.120985  0  0.999552  0
H  H12  1  0.81011129  0.04218248  0.89186547  1  0  0.30671  0  0.848251  0  0  0.28988  0  0.904275  0  0  0.296782  0  0.898907  0  0  0.339103  0.285011  0  0.908098  0
H  H13  1  0.31011147  0.95781279  0.60813370  1  0  0.306712  0  0.84826  0  0  0.289882  0  0.904294  0  0  0.296785  0  0.898925  0  0  0.339111  0.285013  0  0.908116  0
H  H14  1  0.18988926  0.95781999  0.10813507  1  0  0.306706  0  0.848297  0  0  0.289974  0  0.904259  0  0  0.296879  0  0.898883  0  0  0.33912  0.285104  0  0.908083  0
H  H15  1  0.68989273  0.04218505  0.39186492  1  0  0.306675  0  0.848186  0  0  0.289858  0  0.904225  0  0  0.296762  0  0.898857  0  0  0.339101  0.284987  0  0.908048  0
H  H16  1  0.97635902  0.93740178  0.79937384  1  0  0.100137  0  0.97957  0  0  0.101128  0  1.054915  0  0  0.104095  0  1.052152  0  0  0.123107  0.098799  0  1.057189  0
H  H17  1  0.47636016  0.06259708  0.70062389  1  0  0.100156  0  0.979577  0  0  0.101137  0  1.054914  0  0  0.104105  0  1.05215  0  0  0.123116  0.098809  0  1.057185  0
H  H18  1  0.02364336  0.06259596  0.20063566  1  0  0.100072  0  0.979541  0  0  0.101183  0  1.054738  0  0  0.104155  0  1.051964  0  0  0.123121  0.098854  0  1.057012  0
H  H19  1  0.52364313  0.93740078  0.29937222  1  0  0.100035  0  0.979599  0  0  0.101118  0  1.054823  0  0  0.104086  0  1.052057  0  0  0.123114  0.09879  0  1.057095  0
H  H20  1  0.18416708  0.03797763  0.83655945  1  0  0.118824  0  0.947368  0  0  0.125368  0  1.008769  0  0  0.128437  0  1.007132  0  0  0.113484  0.123259  0  1.009847  0
H  H21  1  0.68416944  0.96202544  0.66343631  1  0  0.11875  0  0.947458  0  0  0.125301  0  1.008848  0  0  0.128368  0  1.007215  0  0  0.113458  0.123191  0  1.009926  0
H  H22  1  0.81583712  0.96201916  0.16345235  1  0  0.118708  0  0.947381  0  0  0.125308  0  1.008754  0  0  0.128376  0  1.007118  0  0  0.113482  0.123199  0  1.009832  0
H  H23  1  0.31583385  0.03797151  0.33655958  1  0  0.118663  0  0.947405  0  0  0.125238  0  1.00879  0  0  0.128305  0  1.007157  0  0  0.113445  0.123129  0  1.009867  0
H  H24  1  0.20025223  0.24948041  0.96923701  1  0  0.119792  0  0.929078  0  0  0.131738  0  0.985998  0  0  0.13491  0  0.984077  0  0  0.114853  0.129436  0  0.987441  0
H  H25  1  0.70025161  0.75051900  0.53076044  1  0  0.119791  0  0.929076  0  0  0.131722  0  0.986003  0  0  0.134894  0  0.984082  0  0  0.114859  0.12942  0  0.987447  0
H  H26  1  0.79974923  0.75051641  0.03077228  1  0  0.11972  0  0.929113  0  0  0.131631  0  0.986082  0  0  0.134804  0  0.98416  0  0  0.11483  0.129326  0  0.987529  0
H  H27  1  0.29974894  0.24947420  0.46923793  1  0  0.119805  0  0.929104  0  0  0.131738  0  0.986022  0  0  0.134909  0  0.984102  0  0  0.114883  0.129434  0  0.987468  0
C  C28  1  0.00710947  0.26365728  0.00933071  1  0  0.330368  0  3.898175  0  0  0.320684  0  4.156798  0  0  0.331769  0  4.175221  0  0  0.090146  0.312835  0  4.144195  0
C  C29  1  0.50711058  0.73634324  0.49066208  1  0  0.330237  0  3.898367  0  0  0.320587  0  4.156963  0  0  0.331666  0  4.175393  0  0  0.090036  0.312739  0  4.144364  0
C  C30  1  0.99288925  0.73634707  0.99066774  1  0  0.330498  0  3.898058  0  0  0.320701  0  4.156806  0  0  0.331782  0  4.175234  0  0  0.090184  0.312865  0  4.144203  0
C  C31  1  0.49289088  0.26365652  0.50933027  1  0  0.330341  0  3.898254  0  0  0.320672  0  4.156876  0  0  0.331768  0  4.17528  0  0  0.090145  0.312825  0  4.144281  0
C  C32  1  0.89486662  0.20009605  0.98441189  1  0  -0.004227  0  3.543683  0  0  -0.054394  0  3.807786  0  0  -0.052717  0  3.824931  0  0  0.037131  -0.055414  0  3.796238  0
C  C33  1  0.39486504  0.79990245  0.51558312  1  0  -0.004301  0  3.543886  0  0  -0.054432  0  3.807977  0  0  -0.052754  0  3.825127  0  0  0.03708  -0.055452  0  3.796431  0
C  C34  1  0.10513485  0.79990364  0.01558800  1  0  -0.004356  0  3.543628  0  0  -0.054419  0  3.807829  0  0  -0.05274  0  3.824974  0  0  0.037112  -0.055449  0  3.796287  0
C  C35  1  0.60513825  0.20009914  0.48441218  1  0  -0.004261  0  3.543759  0  0  -0.054403  0  3.807934  0  0  -0.052726  0  3.825074  0  0  0.037152  -0.05543  0  3.796392  0
C  C36  1  0.99112137  0.02747549  0.85769128  1  0  0.100736  0  3.647942  0  0  0.052131  0  3.915845  0  0  0.058553  0  3.932136  0  0  0.04368  0.048201  0  3.904739  0
C  C37  1  0.49111894  0.97252344  0.64230733  1  0  0.100666  0  3.648095  0  0  0.052135  0  3.915928  0  0  0.058556  0  3.932213  0  0  0.043662  0.0482  0  3.904819  0
C  C38  1  0.00888832  0.97252131  0.14231968  1  0  0.10066  0  3.647928  0  0  0.052071  0  3.915781  0  0  0.058493  0  3.932068  0  0  0.043686  0.048141  0  3.904676  0
C  C39  1  0.50888161  0.02747258  0.35768835  1  0  0.100672  0  3.647927  0  0  0.052064  0  3.915812  0  0  0.058482  0  3.932105  0  0  0.043635  0.048128  0  3.904705  0
C  C40  1  0.10398102  0.08534951  0.87959042  1  0  -0.084323  0  3.76424  0  0  -0.099115  0  4.026669  0  0  -0.10415  0  4.04846  0  0  -0.079349  -0.096056  0  4.011823  0
C  C41  1  0.60397944  0.91465504  0.62040473  1  0  -0.08433  0  3.764357  0  0  -0.099149  0  4.026801  0  0  -0.104183  0  4.048593  0  0  -0.079372  -0.09609  0  4.011954  0
C  C42  1  0.89602501  0.91465381  0.12041870  1  0  -0.084222  0  3.764102  0  0  -0.099111  0  4.026546  0  0  -0.104148  0  4.048346  0  0  -0.079393  -0.09605  0  4.0117  0
C  C43  1  0.39602385  0.08534470  0.37959014  1  0  -0.084118  0  3.764133  0  0  -0.098957  0  4.026594  0  0  -0.103992  0  4.048394  0  0  -0.079309  -0.095895  0  4.011745  0
C  C44  1  0.11229729  0.20215195  0.95340917  1  0  -0.123984  0  3.650604  0  0  -0.154551  0  3.908923  0  0  -0.155031  0  3.926206  0  0  -0.078732  -0.153885  0  3.89711  0
C  C45  1  0.61230056  0.79784892  0.54658681  1  0  -0.123842  0  3.650515  0  0  -0.154402  0  3.908831  0  0  -0.154879  0  3.926112  0  0  -0.078617  -0.153736  0  3.897018  0
C  C46  1  0.88770508  0.79784949  0.04660203  1  0  -0.123795  0  3.650465  0  0  -0.154285  0  3.908849  0  0  -0.154769  0  3.926135  0  0  -0.07866  -0.15363  0  3.89704  0
C  C47  1  0.38770091  0.20214988  0.45340951  1  0  -0.123968  0  3.650547  0  0  -0.154502  0  3.908863  0  0  -0.154986  0  3.926142  0  0  -0.078676  -0.153839  0  3.897054  0
N  N48  1  0.02844986  0.60451335  0.19869666  1  0  -0.660574  0  2.959454  0  0  -0.607095  0  3.317788  0  0  -0.633953  0  3.319109  0  0  -0.359705  -0.588886  0  3.317009  0
N  N49  1  0.52844826  0.39548629  0.30130267  1  0  -0.660584  0  2.959379  0  0  -0.607099  0  3.317715  0  0  -0.633961  0  3.319041  0  0  -0.359701  -0.588888  0  3.316935  0
N  N50  1  0.97154886  0.39548912  0.80130388  1  0  -0.660622  0  2.959407  0  0  -0.60714  0  3.317746  0  0  -0.634002  0  3.319072  0  0  -0.359717  -0.588933  0  3.316967  0
N  N51  1  0.47154955  0.60451157  0.69869427  1  0  -0.660661  0  2.959449  0  0  -0.607177  0  3.317781  0  0  -0.634034  0  3.319104  0  0  -0.359766  -0.588969  0  3.317002  0
N  N52  1  0.04122514  0.70532613  0.26595956  1  0  0.417085  0  4.192511  0  0  0.445398  0  4.474901  0  0  0.459409  0  4.506624  0  0  0.099167  0.435887  0  4.453594  0
N  N53  1  0.54122481  0.29466987  0.23403810  1  0  0.417094  0  4.192553  0  0  0.445399  0  4.474964  0  0  0.459411  0  4.506683  0  0  0.099141  0.435889  0  4.453658  0
N  N54  1  0.95877084  0.29467264  0.73404011  1  0  0.417166  0  4.192435  0  0  0.445482  0  4.474822  0  0  0.459493  0  4.506545  0  0  0.099204  0.435972  0  4.453517  0
N  N55  1  0.45877208  0.70532709  0.76595612  1  0  0.417167  0  4.192411  0  0  0.445479  0  4.474792  0  0  0.45949  0  4.506513  0  0  0.09929  0.43597  0  4.453487  0
N  N56  1  0.05546514  0.80124264  0.32843228  1  0  -0.295703  0  2.336595  0  0  -0.303754  0  2.54192  0  0  -0.307816  0  2.55404  0  0  -0.149063  -0.301113  0  2.534255  0
N  N57  1  0.55546611  0.19875619  0.17156775  1  0  -0.295687  0  2.336748  0  0  -0.303736  0  2.54209  0  0  -0.307795  0  2.554206  0  0  -0.149024  -0.301098  0  2.534427  0
N  N58  1  0.94452902  0.19875796  0.67157034  1  0  -0.295708  0  2.336623  0  0  -0.303752  0  2.541938  0  0  -0.307814  0  2.554057  0  0  -0.149054  -0.301117  0  2.534277  0
N  N59  1  0.44453536  0.80124355  0.82842712  1  0  -0.295675  0  2.336562  0  0  -0.303731  0  2.541889  0  0  -0.307793  0  2.554006  0  0  -0.149099  -0.301092  0  2.534226  0
N  N60  1  0.77155888  0.49401780  0.02817366  1  0  -0.661585  0  2.872662  0  0  -0.60853  0  3.223979  0  0  -0.634425  0  3.222574  0  0  -0.354299  -0.591206  0  3.225054  0
N  N61  1  0.27155603  0.50597928  0.47182460  1  0  -0.661702  0  2.872703  0  0  -0.608638  0  3.223999  0  0  -0.634534  0  3.222596  0  0  -0.354281  -0.591312  0  3.225075  0
N  N62  1  0.22843801  0.50598188  0.97182707  1  0  -0.661921  0  2.872023  0  0  -0.608785  0  3.223256  0  0  -0.63469  0  3.221851  0  0  -0.354404  -0.591453  0  3.224332  0
N  N63  1  0.72843813  0.49401858  0.52817235  1  0  -0.661816  0  2.872488  0  0  -0.608665  0  3.22371  0  0  -0.634568  0  3.222303  0  0  -0.354347  -0.591337  0  3.224788  0
N  N64  1  0.66783100  0.45406657  0.03534939  1  0  0.395861  0  4.156261  0  0  0.429154  0  4.436568  0  0  0.442923  0  4.464966  0  0  0.093817  0.419805  0  4.417627  0
N  N65  1  0.16782921  0.54593094  0.46464965  1  0  0.396187  0  4.156603  0  0  0.429483  0  4.436874  0  0  0.443252  0  4.465274  0  0  0.093944  0.420133  0  4.417935  0
N  N66  1  0.33217595  0.54593961  0.96465117  1  0  0.396202  0  4.156013  0  0  0.429483  0  4.436272  0  0  0.443251  0  4.464661  0  0  0.094033  0.420132  0  4.417339  0
N  N67  1  0.83217225  0.45406597  0.53534959  1  0  0.396103  0  4.156319  0  0  0.429376  0  4.436581  0  0  0.443145  0  4.464973  0  0  0.093913  0.420026  0  4.417647  0
N  N68  1  0.57133720  0.41570939  0.04333792  1  0  -0.255544  0  2.41167  0  0  -0.266227  0  2.638716  0  0  -0.268532  0  2.64915  0  0  -0.123764  -0.264549  0  2.63193  0
N  N69  1  0.07134013  0.58428862  0.45665774  1  0  -0.255752  0  2.412035  0  0  -0.266455  0  2.639106  0  0  -0.268762  0  2.64954  0  0  -0.123887  -0.264776  0  2.632319  0
N  N70  1  0.42865421  0.58429310  0.95666011  1  0  -0.255596  0  2.412277  0  0  -0.266313  0  2.639372  0  0  -0.268613  0  2.649806  0  0  -0.1238  -0.26464  0  2.63259  0
N  N71  1  0.92865585  0.41571291  0.54334342  1  0  -0.255603  0  2.412103  0  0  -0.266312  0  2.639196  0  0  -0.268613  0  2.64963  0  0  -0.123774  -0.264638  0  2.632414  0
N  N72  1  0.80684388  0.38661561  0.26699050  1  0  -0.642112  0  2.873835  0  0  -0.596052  0  3.211157  0  0  -0.620555  0  3.213318  0  0  -0.335478  -0.579448  0  3.209844  0
N  N73  1  0.30684468  0.61338348  0.23300995  1  0  -0.642117  0  2.873968  0  0  -0.596074  0  3.211318  0  0  -0.620575  0  3.213476  0  0  -0.335485  -0.579474  0  3.210008  0
N  N74  1  0.19315301  0.61338501  0.73300961  1  0  -0.642171  0  2.873863  0  0  -0.596123  0  3.2112  0  0  -0.620625  0  3.213363  0  0  -0.335507  -0.579521  0  3.209892  0
N  N75  1  0.69315404  0.38661621  0.76698994  1  0  -0.641957  0  2.873887  0  0  -0.596046  0  3.21118  0  0  -0.620547  0  3.21334  0  0  -0.335474  -0.579441  0  3.20987  0
N  N76  1  0.83212413  0.28456273  0.27902600  1  0  0.421518  0  4.208273  0  0  0.453004  0  4.488513  0  0  0.468405  0  4.518459  0  0  0.095479  0.442669  0  4.46828  0
N  N77  1  0.33212442  0.71543554  0.22097597  1  0  0.421508  0  4.208368  0  0  0.452996  0  4.488609  0  0  0.468397  0  4.518553  0  0  0.09547  0.442662  0  4.468376  0
N  N78  1  0.16787459  0.71543789  0.72097410  1  0  0.421531  0  4.208208  0  0  0.453015  0  4.488456  0  0  0.468416  0  4.518403  0  0  0.09558  0.44268  0  4.468229  0
N  N79  1  0.66787430  0.28456416  0.77902308  1  0  0.421329  0  4.208471  0  0  0.453044  0  4.48852  0  0  0.468446  0  4.518467  0  0  0.095515  0.44271  0  4.46829  0
N  N80  1  0.85253873  0.18689121  0.29353067  1  0  -0.35644  0  2.384324  0  0  -0.357733  0  2.604529  0  0  -0.364483  0  2.615012  0  0  -0.17079  -0.352847  0  2.597587  0
N  N81  1  0.35253575  0.81310902  0.20647096  1  0  -0.35646  0  2.384331  0  0  -0.357737  0  2.604515  0  0  -0.364487  0  2.614995  0  0  -0.170797  -0.352855  0  2.597577  0
N  N82  1  0.14746091  0.81311127  0.70646987  1  0  -0.356402  0  2.384198  0  0  -0.357682  0  2.604388  0  0  -0.36443  0  2.614867  0  0  -0.170854  -0.352801  0  2.59745  0
N  N83  1  0.64745840  0.18688975  0.79352788  1  0  -0.356328  0  2.384383  0  0  -0.357758  0  2.604507  0  0  -0.364508  0  2.614991  0  0  -0.170817  -0.352878  0  2.597567  0
N  N84  1  0.75741472  0.62828490  0.29053531  1  0  -0.620578  0  2.855809  0  0  -0.575159  0  3.185518  0  0  -0.598926  0  3.18707  0  0  -0.323439  -0.558973  0  3.184548  0
N  N85  1  0.25741536  0.37171307  0.20946061  1  0  -0.620622  0  2.855639  0  0  -0.57519  0  3.18537  0  0  -0.598954  0  3.186919  0  0  -0.323458  -0.559004  0  3.1844  0
N  N86  1  0.24258218  0.37171295  0.70946247  1  0  -0.620664  0  2.856004  0  0  -0.575104  0  3.185731  0  0  -0.598861  0  3.187279  0  0  -0.323473  -0.558925  0  3.184767  0
N  N87  1  0.74258154  0.62828942  0.79053825  1  0  -0.620641  0  2.856083  0  0  -0.575096  0  3.185823  0  0  -0.59885  0  3.18737  0  0  -0.323433  -0.558919  0  3.184859  0
N  N88  1  0.73401406  0.73524925  0.29437774  1  0  0.43397  0  4.200112  0  0  0.468234  0  4.474025  0  0  0.483942  0  4.503456  0  0  0.101965  0.457654  0  4.454216  0
N  N89  1  0.23401698  0.26474951  0.20562169  1  0  0.434047  0  4.199938  0  0  0.468267  0  4.473901  0  0  0.483976  0  4.503332  0  0  0.101969  0.45769  0  4.454092  0
N  N90  1  0.26598375  0.26475785  0.70562472  1  0  0.434002  0  4.199554  0  0  0.468032  0  4.473712  0  0  0.483742  0  4.503146  0  0  0.101876  0.457453  0  4.453904  0
N  N91  1  0.76598266  0.73524274  0.79437899  1  0  0.434019  0  4.199689  0  0  0.468046  0  4.473857  0  0  0.483754  0  4.503294  0  0  0.101849  0.457467  0  4.454049  0
N  N92  1  0.71331714  0.83863352  0.29795331  1  0  -0.372281  0  2.428607  0  0  -0.371581  0  2.653681  0  0  -0.379821  0  2.664028  0  0  -0.16966  -0.365637  0  2.64677  0
N  N93  1  0.21331871  0.16136606  0.20204628  1  0  -0.372345  0  2.428564  0  0  -0.371631  0  2.653683  0  0  -0.379876  0  2.66403  0  0  -0.169678  -0.365687  0  2.646772  0
N  N94  1  0.28668797  0.16136428  0.70204950  1  0  -0.372315  0  2.427943  0  0  -0.371467  0  2.65309  0  0  -0.379717  0  2.663444  0  0  -0.169597  -0.365516  0  2.646177  0
N  N95  1  0.78668641  0.83863735  0.79795363  1  0  -0.372381  0  2.428003  0  0  -0.371523  0  2.653141  0  0  -0.379775  0  2.663499  0  0  -0.169621  -0.365569  0  2.646228  0
N  N96  1  0.89219727  0.08695001  0.91065206  1  0  -0.18602  0  3.567164  0  0  -0.113202  0  3.794728  0  0  -0.126127  0  3.815377  0  0  -0.340904  -0.104668  0  3.780727  0
N  N97  1  0.39219631  0.91304756  0.58934189  1  0  -0.185978  0  3.567396  0  0  -0.113194  0  3.794951  0  0  -0.126119  0  3.8156  0  0  -0.340887  -0.10466  0  3.780951  0
N  N98  1  0.10780602  0.91305061  0.08934721  1  0  -0.185981  0  3.567252  0  0  -0.11339  0  3.794917  0  0  -0.126317  0  3.815566  0  0  -0.340973  -0.104854  0  3.780922  0
N  N99  1  0.60780423  0.08695311  0.41065319  1  0  -0.185905  0  3.56708  0  0  -0.113163  0  3.794745  0  0  -0.12609  0  3.815398  0  0  -0.340922  -0.104623  0  3.780745  0
O  O100  1  0.01379104  0.37399373  0.08006537  1  0  -0.63944  0  2.197968  0  0  -0.54853  0  2.472169  0  0  -0.577752  0  2.465142  0  0  -0.332278  -0.528061  0  2.476124  0
O  O101  1  0.51378881  0.62600398  0.41993349  1  0  -0.639309  0  2.198059  0  0  -0.548449  0  2.472315  0  0  -0.577667  0  2.465282  0  0  -0.332226  -0.527964  0  2.476221  0
O  O102  1  0.98621317  0.62600967  0.91993538  1  0  -0.639483  0  2.197935  0  0  -0.548507  0  2.47215  0  0  -0.577718  0  2.465116  0  0  -0.332251  -0.52799  0  2.475975  0
O  O103  1  0.48620991  0.37399298  0.58006073  1  0  -0.639339  0  2.197965  0  0  -0.548471  0  2.472235  0  0  -0.577699  0  2.465203  0  0  -0.332282  -0.527969  0  2.476101  0
