# generated using pymatgen
data_ZnH2C16I4(NO3)2
_symmetry_space_group_name_H-M   'P 1'
_cell_length_a   8.09239171
_cell_length_b   9.27657351
_cell_length_c   23.72346917
_cell_angle_alpha   90.00089233
_cell_angle_beta   89.99818639
_cell_angle_gamma   91.75720711
_symmetry_Int_Tables_number   1
_chemical_formula_structural   ZnH2C16I4(NO3)2
_chemical_formula_sum   'Zn2 H4 C32 I8 N4 O12'
_cell_volume   1780.07542892
_cell_formula_units_Z   2
loop_
 _symmetry_equiv_pos_site_id
 _symmetry_equiv_pos_as_xyz
  1  'x, y, z'
loop_
 _atom_site_type_symbol
 _atom_site_label
 _atom_site_symmetry_multiplicity
 _atom_site_fract_x
 _atom_site_fract_y
 _atom_site_fract_z
 _atom_site_occupancy
 _atom_site_pbe_bader_charge
 _atom_site_pbe_bader_spin_density
 _atom_site_pbe_cm5_charge
 _atom_site_pbe_ddec_charge
 _atom_site_pbe_ddec_spin_density
 _atom_site_pbe_ddec_sum_bond_order
 _atom_site_pbe_magmom
Zn  Zn0  1  0.66146443  0.50854704  0.50000004  1  1.291655  0  0.686107  0.847506  0  2.429479  0
Zn  Zn1  1  0.33856261  0.49141790  0.50000476  1  1.284025  0  0.686173  0.847521  0  2.429773  0
H  H2  1  0.88456322  0.64896384  0.94652519  1  0.127207  0  0.117899  0.125125  0  0.977777  0
H  H3  1  0.11544487  0.35105257  0.05347623  1  0.127386  0  0.117997  0.12516  0  0.977523  0
H  H4  1  0.11544225  0.35102636  0.94653744  1  0.127408  0  0.117902  0.125061  0  0.977746  0
H  H5  1  0.88456793  0.64896637  0.05347031  1  0.127268  0  0.117878  0.125101  0  0.977697  0
C  C6  1  0.50597985  0.77906919  0.49998927  1  1.660364  0  0.220238  0.652921  0  4.252592  0
C  C7  1  0.49405322  0.22088614  0.49998855  1  1.65899  0  0.21988  0.652283  0  4.252628  0
C  C8  1  0.49999906  0.50003816  0.20885295  1  0.458501  0  0.082077  0.147795  0  4.005939  0
C  C9  1  0.50001086  0.50001493  0.79115016  1  0.438139  0  0.082069  0.14773  0  4.005157  0
C  C10  1  0.50001597  0.49999160  0.39038711  1  1.531427  0  0.204424  0.595712  0  4.2045  0
C  C11  1  0.50000254  0.49998076  0.60962317  1  1.531379  0  0.204271  0.595479  0  4.204806  0
C  C12  1  0.55527584  0.37907828  0.29718133  1  -0.148689  0  -0.047885  0.016478  0  3.857324  0
C  C13  1  0.44471114  0.62093243  0.70281715  1  -0.149089  0  -0.047982  0.016173  0  3.857717  0
C  C14  1  0.44473851  0.62096649  0.29719097  1  -0.149475  0  -0.048093  0.01607  0  3.857626  0
C  C15  1  0.55529365  0.37908692  0.70281888  1  -0.148412  0  -0.047963  0.016169  0  3.8571  0
C  C16  1  0.50000824  0.50001746  0.32659416  1  0.140782  0  -0.016089  -0.050604  0  3.916781  0
C  C17  1  0.50000115  0.50000328  0.67341064  1  0.140548  0  -0.016189  -0.050763  0  3.917187  0
C  C18  1  0.35743175  0.44113346  0.87835222  1  1.348401  0  0.2357  0.430894  0  4.124847  0
C  C19  1  0.64254701  0.55890409  0.12164668  1  1.348455  0  0.235729  0.430972  0  4.124033  0
C  C20  1  0.64255024  0.55891144  0.87835135  1  1.348309  0  0.235567  0.430733  0  4.124697  0
C  C21  1  0.35744045  0.44117587  0.12165387  1  1.348166  0  0.235735  0.430827  0  4.123982  0
C  C22  1  0.64090373  0.55537820  0.94074905  1  -0.013364  0  -0.00266  -0.05319  0  3.975268  0
C  C23  1  0.35901320  0.44481046  0.05925617  1  -0.018822  0  -0.003074  -0.053501  0  3.975323  0
C  C24  1  0.35902144  0.44479716  0.94075035  1  -0.017039  0  -0.002999  -0.053419  0  3.975311  0
C  C25  1  0.64089899  0.55537861  0.05924854  1  -0.013653  0  -0.002594  -0.053041  0  3.975158  0
C  C26  1  0.49994392  0.50012344  0.96994273  1  -0.132469  0  0.005461  0.034161  0  3.979574  0
C  C27  1  0.49993325  0.50012933  0.03005869  1  0.031545  0  0.005497  0.034195  0  3.979697  0
C  C28  1  0.77814267  0.60766893  0.97039583  1  0.082628  0  -0.062506  -0.067649  0  3.924205  0
C  C29  1  0.22181983  0.39243306  0.02960391  1  0.085709  0  -0.062424  -0.0675  0  3.923014  0
C  C30  1  0.22182411  0.39241739  0.97040139  1  -0.08723  0  -0.062339  -0.067359  0  3.923155  0
C  C31  1  0.77814929  0.60767075  0.02959961  1  -0.088281  0  -0.062448  -0.067621  0  3.923885  0
C  C32  1  0.50029272  0.93459585  0.49996624  1  0.02961  0  -0.027637  -0.107198  0  3.924068  0
C  C33  1  0.49972567  0.06536896  0.49996647  1  -0.210838  0  -0.026972  -0.106274  0  3.924001  0
C  C34  1  0.55719076  0.37963563  0.23797034  1  -0.184341  0  -0.044795  -0.022476  0  3.847769  0
C  C35  1  0.44278185  0.62040291  0.76202603  1  -0.15364  0  -0.044751  -0.022325  0  3.847345  0
C  C36  1  0.44282060  0.62042776  0.23798083  1  -0.153947  0  -0.044729  -0.022529  0  3.847836  0
C  C37  1  0.55724350  0.37961318  0.76203281  1  -0.165363  0  -0.044851  -0.022322  0  3.847264  0
I  I38  1  0.64417090  0.20531526  0.19136875  1  0.169503  0  0.094234  0.016337  0  1.542179  0
I  I39  1  0.35575822  0.79470863  0.80862087  1  0.169286  0  0.094222  0.016287  0  1.541975  0
I  I40  1  0.35584068  0.79476288  0.19139285  1  0.169141  0  0.094212  0.016357  0  1.542231  0
I  I41  1  0.64428597  0.20532534  0.80862291  1  0.169484  0  0.094378  0.016442  0  1.54212  0
I  I42  1  0.62713688  0.19726565  0.34296886  1  0.173014  0  0.099236  0.027928  0  1.610341  0
I  I43  1  0.37278306  0.80272576  0.65702034  1  0.172912  0  0.099215  0.028008  0  1.610085  0
I  I44  1  0.37286002  0.80276195  0.34299670  1  0.172409  0  0.099238  0.028029  0  1.610148  0
I  I45  1  0.62715540  0.19724918  0.65702285  1  0.172302  0  0.099118  0.027832  0  1.609787  0
N  N46  1  0.49999462  0.50002209  0.85155364  1  -1.230431  0  -0.251167  -0.246738  0  3.690935  0
N  N47  1  0.49998972  0.50005435  0.14845622  1  -1.23134  0  -0.251243  -0.247003  0  3.691569  0
N  N48  1  0.06821520  0.49731968  0.50000393  1  0.134137  0  0.098547  0.149745  0  2.942229  0
N  N49  1  0.93180955  0.50265708  0.50000087  1  -0.055589  0  0.098425  0.149668  0  2.942193  0
O  O50  1  0.64931181  0.72662644  0.49999454  1  -1.116361  0  -0.304649  -0.512095  0  2.257404  0
O  O51  1  0.35072893  0.27334517  0.49999508  1  -1.1153  0  -0.304476  -0.511839  0  2.257279  0
O  O52  1  0.63280073  0.29019228  0.50000018  1  -1.137853  0  -0.312354  -0.553845  0  2.319977  0
O  O53  1  0.36723108  0.70976195  0.49999998  1  -1.137839  0  -0.312385  -0.554034  0  2.320421  0
O  O54  1  0.63980052  0.51590353  0.41435625  1  -1.138311  0  -0.312325  -0.534853  0  2.329102  0
O  O55  1  0.36022906  0.48406576  0.58564939  1  -1.137506  0  -0.312223  -0.534668  0  2.328998  0
O  O56  1  0.63977447  0.51591010  0.58564612  1  -1.138404  0  -0.312138  -0.534667  0  2.329134  0
O  O57  1  0.36022943  0.48407607  0.41435994  1  -1.137992  0  -0.312265  -0.534854  0  2.328914  0
O  O58  1  0.24167282  0.39085519  0.85053774  1  -1.089944  0  -0.269266  -0.417134  0  2.08223  0
O  O59  1  0.75837302  0.60912620  0.14946073  1  -1.089556  0  -0.269423  -0.417154  0  2.081156  0
O  O60  1  0.75836012  0.60913138  0.85053568  1  -1.089406  0  -0.269255  -0.417047  0  2.081904  0
O  O61  1  0.24165420  0.39088835  0.14946574  1  -1.0896  0  -0.269276  -0.416997  0  2.081418  0
