# generated using pymatgen
data_SmPH7C3O10
_symmetry_space_group_name_H-M   'P 1'
_cell_length_a   6.85270044
_cell_length_b   10.16645911
_cell_length_c   13.29218179
_cell_angle_alpha   90.00024274
_cell_angle_beta   89.99990768
_cell_angle_gamma   100.90271460
_symmetry_Int_Tables_number   1
_chemical_formula_structural   SmPH7C3O10
_chemical_formula_sum   'Sm4 P4 H28 C12 O40'
_cell_volume   909.32054488
_cell_formula_units_Z   4
loop_
 _symmetry_equiv_pos_site_id
 _symmetry_equiv_pos_as_xyz
  1  'x, y, z'
loop_
 _atom_site_type_symbol
 _atom_site_label
 _atom_site_symmetry_multiplicity
 _atom_site_fract_x
 _atom_site_fract_y
 _atom_site_fract_z
 _atom_site_occupancy
 _atom_site_hle17_bader_spin_density
 _atom_site_hle17_ddec_charge
 _atom_site_hle17_ddec_spin_density
 _atom_site_hle17_ddec_sum_bond_order
 _atom_site_hle17_magmom
 _atom_site_hse06_10hf_bader_spin_density
 _atom_site_hse06_10hf_ddec_charge
 _atom_site_hse06_10hf_ddec_spin_density
 _atom_site_hse06_10hf_ddec_sum_bond_order
 _atom_site_hse06_10hf_magmom
 _atom_site_hse06_bader_spin_density
 _atom_site_hse06_ddec_charge
 _atom_site_hse06_ddec_spin_density
 _atom_site_hse06_ddec_sum_bond_order
 _atom_site_hse06_magmom
 _atom_site_pbe_bader_spin_density
 _atom_site_pbe_cm5_charge
 _atom_site_pbe_ddec_charge
 _atom_site_pbe_ddec_spin_density
 _atom_site_pbe_ddec_sum_bond_order
 _atom_site_pbe_magmom
Sm  Sm0  1  0.15772595  0.27915619  0.89807717  1  0  2.319553  0  1.570435  0  0  2.221667  0  1.906673  0  0  2.261786  0  1.868687  0  0  1.488664  2.122234  0  2.066676  0
Sm  Sm1  1  0.84228816  0.22083734  0.39808060  1  0  2.319525  0  1.570397  0  0  2.221652  0  1.906613  0  0  2.261771  0  1.868632  0  0  1.488708  2.12217  0  2.066706  0
Sm  Sm2  1  0.84229249  0.72085128  0.10192160  1  0  2.319541  0  1.570288  0  0  2.221674  0  1.906502  0  0  2.261792  0  1.868518  0  0  1.488725  2.122181  0  2.066609  0
Sm  Sm3  1  0.15770949  0.77914699  0.60192269  1  0  2.319592  0  1.570309  0  0  2.221741  0  1.906509  0  0  2.26186  0  1.868526  0  0  1.488744  2.122231  0  2.066641  0
P  P4  1  0.78058883  0.07164957  0.05390288  1  0  1.527784  0  4.751243  0  0  1.366281  0  5.267606  0  0  1.417296  0  5.225332  0  0  0.38158  1.330087  0  5.29162  0
P  P5  1  0.21941445  0.42834905  0.55390515  1  0  1.527866  0  4.751008  0  0  1.366398  0  5.267339  0  0  1.417423  0  5.225064  0  0  0.381602  1.330174  0  5.291342  0
P  P6  1  0.21941191  0.92835179  0.94609515  1  0  1.527868  0  4.75079  0  0  1.366474  0  5.267067  0  0  1.417492  0  5.224789  0  0  0.381667  1.330275  0  5.291088  0
P  P7  1  0.78058403  0.57164930  0.44609363  1  0  1.527724  0  4.751197  0  0  1.366286  0  5.267526  0  0  1.417298  0  5.225247  0  0  0.381598  1.330092  0  5.291535  0
H  H8  1  0.54203573  0.19622629  0.05476610  1  0  0.44055  0  0.851414  0  0  0.406176  0  0.923778  0  0  0.418853  0  0.905393  0  0  0.317353  0.397197  0  0.936872  0
H  H9  1  0.45796263  0.30377030  0.55477226  1  0  0.440642  0  0.851227  0  0  0.406296  0  0.923598  0  0  0.418977  0  0.905206  0  0  0.317397  0.397314  0  0.936697  0
H  H10  1  0.45797074  0.80378011  0.94522966  1  0  0.440622  0  0.85116  0  0  0.406319  0  0.923535  0  0  0.418998  0  0.905146  0  0  0.317431  0.397338  0  0.936634  0
H  H11  1  0.54203251  0.69622102  0.44523027  1  0  0.440678  0  0.85125  0  0  0.406342  0  0.923547  0  0  0.419017  0  0.905166  0  0  0.317431  0.397362  0  0.936644  0
H  H12  1  0.90290053  0.98807833  0.25749692  1  0  0.403664  0  0.876966  0  0  0.377606  0  0.948374  0  0  0.3886  0  0.936098  0  0  0.317844  0.369874  0  0.956052  0
H  H13  1  0.09711756  0.51191088  0.75750096  1  0  0.403671  0  0.877094  0  0  0.377656  0  0.948415  0  0  0.388649  0  0.936144  0  0  0.317911  0.369921  0  0.9561  0
H  H14  1  0.09710231  0.01190904  0.74249358  1  0  0.403637  0  0.87712  0  0  0.377639  0  0.948404  0  0  0.388633  0  0.93613  0  0  0.317888  0.369905  0  0.956085  0
H  H15  1  0.90288331  0.48808548  0.24250158  1  0  0.403697  0  0.876873  0  0  0.377646  0  0.948253  0  0  0.388636  0  0.935991  0  0  0.317884  0.369916  0  0.95593  0
H  H16  1  0.79672274  0.35000454  0.95629618  1  0  0.420552  0  0.861249  0  0  0.392036  0  0.936159  0  0  0.401113  0  0.925682  0  0  0.313571  0.385883  0  0.941943  0
H  H17  1  0.20327468  0.14998721  0.45630598  1  0  0.420574  0  0.861327  0  0  0.392087  0  0.936239  0  0  0.401165  0  0.925757  0  0  0.313575  0.385934  0  0.942024  0
H  H18  1  0.20326751  0.64999576  0.04369808  1  0  0.42062  0  0.861199  0  0  0.392133  0  0.936092  0  0  0.40121  0  0.925612  0  0  0.313586  0.385981  0  0.941878  0
H  H19  1  0.79673842  0.85001123  0.54369355  1  0  0.420647  0  0.861132  0  0  0.392157  0  0.936037  0  0  0.401234  0  0.925556  0  0  0.313604  0.386004  0  0.941823  0
H  H20  1  0.87950369  0.48790504  0.90141448  1  0  0.432701  0  0.871312  0  0  0.400828  0  0.936525  0  0  0.412238  0  0.919966  0  0  0.300555  0.392653  0  0.948166  0
H  H21  1  0.12049767  0.01209543  0.40141413  1  0  0.432737  0  0.871222  0  0  0.400873  0  0.936427  0  0  0.412284  0  0.919867  0  0  0.300602  0.392698  0  0.948065  0
H  H22  1  0.12049162  0.51210328  0.09858880  1  0  0.432781  0  0.871185  0  0  0.400901  0  0.936414  0  0  0.412312  0  0.919855  0  0  0.300604  0.392723  0  0.948061  0
H  H23  1  0.87951170  0.98789998  0.59858841  1  0  0.43275  0  0.871244  0  0  0.400875  0  0.936466  0  0  0.412286  0  0.919906  0  0  0.300581  0.392699  0  0.948108  0
H  H24  1  0.60205716  0.32482022  0.82007330  1  0  0.446159  0  0.833504  0  0  0.422721  0  0.882641  0  0  0.43234  0  0.868541  0  0  0.3082  0.415278  0  0.893472  0
H  H25  1  0.39794124  0.17517379  0.32007397  1  0  0.446139  0  0.833529  0  0  0.422738  0  0.882611  0  0  0.432359  0  0.868506  0  0  0.308212  0.415293  0  0.893444  0
H  H26  1  0.39793893  0.67518011  0.17992924  1  0  0.446132  0  0.833538  0  0  0.422736  0  0.88262  0  0  0.432359  0  0.868512  0  0  0.308197  0.415291  0  0.893454  0
H  H27  1  0.60205670  0.82482255  0.67992405  1  0  0.446128  0  0.833552  0  0  0.422724  0  0.882639  0  0  0.432344  0  0.868535  0  0  0.308215  0.415278  0  0.893473  0
H  H28  1  0.46257548  0.34332430  0.72685468  1  0  0.444224  0  0.84161  0  0  0.415673  0  0.89958  0  0  0.425697  0  0.884737  0  0  0.306995  0.408317  0  0.910324  0
H  H29  1  0.53742119  0.15667320  0.22685818  1  0  0.444184  0  0.841654  0  0  0.415583  0  0.899717  0  0  0.425609  0  0.884875  0  0  0.306934  0.408227  0  0.910463  0
H  H30  1  0.53741996  0.65667903  0.27314334  1  0  0.444245  0  0.841584  0  0  0.415651  0  0.899633  0  0  0.425678  0  0.884789  0  0  0.306974  0.408295  0  0.910379  0
H  H31  1  0.46258233  0.84332217  0.77314210  1  0  0.444189  0  0.841628  0  0  0.415584  0  0.899705  0  0  0.425611  0  0.884861  0  0  0.306939  0.408227  0  0.910452  0
H  H32  1  0.09837688  0.09575831  0.13820391  1  0  0.136174  0  0.902279  0  0  0.142681  0  0.957489  0  0  0.146563  0  0.954919  0  0  0.14099  0.139895  0  0.959393  0
H  H33  1  0.90162683  0.40424276  0.63821526  1  0  0.1362  0  0.902373  0  0  0.142725  0  0.957547  0  0  0.146615  0  0.954976  0  0  0.140971  0.139922  0  0.959443  0
H  H34  1  0.90162267  0.90424404  0.86178960  1  0  0.13617  0  0.902442  0  0  0.142679  0  0.957671  0  0  0.146564  0  0.955097  0  0  0.140976  0.139894  0  0.959576  0
H  H35  1  0.09837908  0.59575063  0.36179254  1  0  0.136197  0  0.902224  0  0  0.142747  0  0.957393  0  0  0.14663  0  0.954813  0  0  0.141005  0.13996  0  0.9593  0
C  C36  1  0.96063158  0.13298420  0.15516994  1  0  -0.225249  0  3.692983  0  0  -0.232342  0  3.958725  0  0  -0.238503  0  3.960979  0  0  -0.000683  -0.22775  0  3.95397  0
C  C37  1  0.03936148  0.36702090  0.65517519  1  0  -0.225544  0  3.69332  0  0  -0.232601  0  3.959019  0  0  -0.238803  0  3.961338  0  0  -0.000723  -0.227903  0  3.954105  0
C  C38  1  0.03935309  0.86701706  0.84482432  1  0  -0.225365  0  3.693161  0  0  -0.232506  0  3.958941  0  0  -0.238673  0  3.961191  0  0  -0.000702  -0.227912  0  3.954186  0
C  C39  1  0.96063941  0.63298646  0.34482961  1  0  -0.22527  0  3.692949  0  0  -0.232415  0  3.958723  0  0  -0.238552  0  3.96093  0  0  -0.000707  -0.227825  0  3.953972  0
C  C40  1  0.00593405  0.28440616  0.15988316  1  0  0.733997  0  3.801594  0  0  0.67733  0  4.110909  0  0  0.713119  0  4.098503  0  0  0.240988  0.652708  0  4.1151  0
C  C41  1  0.99405805  0.21558995  0.65987652  1  0  0.734193  0  3.80136  0  0  0.677475  0  4.110738  0  0  0.713275  0  4.098325  0  0  0.24101  0.652826  0  4.11493  0
C  C42  1  0.99403319  0.71558999  0.84012012  1  0  0.734158  0  3.801298  0  0  0.677525  0  4.110601  0  0  0.713321  0  4.098185  0  0  0.241137  0.652899  0  4.114799  0
C  C43  1  0.00594666  0.78440443  0.34012000  1  0  0.733871  0  3.801662  0  0  0.677239  0  4.110962  0  0  0.713026  0  4.098551  0  0  0.240932  0.652615  0  4.115155  0
C  C44  1  0.45426856  0.55492335  0.97369637  1  0  0.559893  0  3.919891  0  0  0.515469  0  4.219917  0  0  0.545659  0  4.20939  0  0  0.223515  0.495144  0  4.220911  0
C  C45  1  0.54576672  0.94509412  0.47370230  1  0  0.55989  0  3.919719  0  0  0.515326  0  4.21995  0  0  0.54555  0  4.209369  0  0  0.223427  0.494986  0  4.220963  0
C  C46  1  0.54577969  0.44510829  0.02631369  1  0  0.560136  0  3.919627  0  0  0.515275  0  4.220208  0  0  0.545533  0  4.209598  0  0  0.223383  0.494931  0  4.221225  0
C  C47  1  0.45423722  0.05490826  0.52631303  1  0  0.559907  0  3.9201  0  0  0.515243  0  4.220403  0  0  0.545473  0  4.209815  0  0  0.223364  0.494904  0  4.221419  0
O  O48  1  0.58408985  0.11946530  0.09245202  1  0  -0.733647  0  2.017606  0  0  -0.651053  0  2.232035  0  0  -0.673298  0  2.204654  0  0  -0.366555  -0.636646  0  2.252838  0
O  O49  1  0.41589904  0.38053443  0.59245621  1  0  -0.733686  0  2.017602  0  0  -0.651163  0  2.232035  0  0  -0.673412  0  2.20465  0  0  -0.36655  -0.636753  0  2.252844  0
O  O50  1  0.41590174  0.88054000  0.90754074  1  0  -0.733669  0  2.017415  0  0  -0.651169  0  2.231866  0  0  -0.673421  0  2.204491  0  0  -0.366571  -0.636756  0  2.252672  0
O  O51  1  0.58408602  0.61946283  0.40753729  1  0  -0.733692  0  2.017417  0  0  -0.651173  0  2.231825  0  0  -0.673421  0  2.20445  0  0  -0.366619  -0.636772  0  2.252639  0
O  O52  1  0.85293402  0.13817850  0.95535165  1  0  -0.932406  0  1.973018  0  0  -0.869311  0  2.240561  0  0  -0.893793  0  2.22046  0  0  -0.441633  -0.842985  0  2.2563  0
O  O53  1  0.14707046  0.36182328  0.45535541  1  0  -0.932366  0  1.973011  0  0  -0.869302  0  2.240601  0  0  -0.893781  0  2.220494  0  0  -0.44161  -0.842968  0  2.256352  0
O  O54  1  0.14707352  0.86183190  0.04463809  1  0  -0.932325  0  1.973232  0  0  -0.869313  0  2.240822  0  0  -0.893791  0  2.220715  0  0  -0.441574  -0.842976  0  2.256565  0
O  O55  1  0.85291925  0.63817501  0.54464261  1  0  -0.932329  0  1.973067  0  0  -0.869289  0  2.240647  0  0  -0.89377  0  2.220547  0  0  -0.441604  -0.842949  0  2.256388  0
O  O56  1  0.74705808  0.92070840  0.05986040  1  0  -0.920929  0  1.988  0  0  -0.860103  0  2.271219  0  0  -0.884426  0  2.249479  0  0  -0.465349  -0.832314  0  2.288815  0
O  O57  1  0.25294544  0.57930066  0.55986301  1  0  -0.920939  0  1.987658  0  0  -0.860155  0  2.270911  0  0  -0.884477  0  2.249164  0  0  -0.465449  -0.832365  0  2.288527  0
O  O58  1  0.25293792  0.07930793  0.94013160  1  0  -0.92092  0  1.987396  0  0  -0.860158  0  2.270654  0  0  -0.884481  0  2.248908  0  0  -0.465511  -0.832378  0  2.288256  0
O  O59  1  0.74704388  0.42070163  0.44013727  1  0  -0.92085  0  1.987717  0  0  -0.860059  0  2.270946  0  0  -0.88438  0  2.249206  0  0  -0.465343  -0.832272  0  2.288548  0
O  O60  1  0.87332303  0.08028344  0.24718413  1  0  -0.599726  0  2.295537  0  0  -0.553684  0  2.536373  0  0  -0.569849  0  2.526814  0  0  -0.436953  -0.534506  0  2.542692  0
O  O61  1  0.12668066  0.41971321  0.74718195  1  0  -0.599535  0  2.29589  0  0  -0.553575  0  2.536745  0  0  -0.569731  0  2.527196  0  0  -0.436968  -0.534432  0  2.543034  0
O  O62  1  0.12666361  0.91970883  0.75281539  1  0  -0.599658  0  2.295923  0  0  -0.553638  0  2.536662  0  0  -0.569807  0  2.527111  0  0  -0.437014  -0.534454  0  2.54298  0
O  O63  1  0.87331039  0.58029008  0.25281306  1  0  -0.59978  0  2.295471  0  0  -0.553738  0  2.536327  0  0  -0.569914  0  2.526762  0  0  -0.436978  -0.534556  0  2.542647  0
O  O64  1  0.07880528  0.34838657  0.08223233  1  0  -0.703556  0  2.068412  0  0  -0.654567  0  2.310417  0  0  -0.679919  0  2.299697  0  0  -0.331537  -0.630021  0  2.319268  0
O  O65  1  0.92119957  0.15161821  0.58222253  1  0  -0.703724  0  2.068658  0  0  -0.654738  0  2.310729  0  0  -0.680085  0  2.299996  0  0  -0.331681  -0.630194  0  2.319603  0
O  O66  1  0.92120092  0.65161882  0.91777623  1  0  -0.70371  0  2.068728  0  0  -0.654723  0  2.310762  0  0  -0.680074  0  2.300033  0  0  -0.33165  -0.630171  0  2.319623  0
O  O67  1  0.07881538  0.84837624  0.41777474  1  0  -0.703625  0  2.068583  0  0  -0.654637  0  2.310581  0  0  -0.679988  0  2.299858  0  0  -0.33163  -0.630086  0  2.319439  0
O  O68  1  0.96292736  0.33916011  0.24135928  1  0  -0.672628  0  2.004104  0  0  -0.617259  0  2.239195  0  0  -0.641416  0  2.226594  0  0  -0.354393  -0.592186  0  2.249898  0
O  O69  1  0.03709372  0.16083062  0.74134957  1  0  -0.672625  0  2.003889  0  0  -0.617228  0  2.238932  0  0  -0.641389  0  2.226327  0  0  -0.354229  -0.592158  0  2.249639  0
O  O70  1  0.03706310  0.66081919  0.75864476  1  0  -0.672657  0  2.003746  0  0  -0.617386  0  2.238877  0  0  -0.641548  0  2.226273  0  0  -0.354431  -0.592298  0  2.24958  0
O  O71  1  0.96292152  0.83917582  0.25865297  1  0  -0.672433  0  2.004034  0  0  -0.617141  0  2.239164  0  0  -0.641302  0  2.226562  0  0  -0.354224  -0.592061  0  2.249863  0
O  O72  1  0.30054435  0.51851286  0.92138142  1  0  -0.639741  0  2.07838  0  0  -0.601182  0  2.32348  0  0  -0.622784  0  2.313959  0  0  -0.355698  -0.57881  0  2.331595  0
O  O73  1  0.69947235  0.98148922  0.42139560  1  0  -0.639499  0  2.07899  0  0  -0.600909  0  2.324142  0  0  -0.622522  0  2.314622  0  0  -0.355614  -0.578534  0  2.332262  0
O  O74  1  0.69945108  0.48149046  0.07861284  1  0  -0.639445  0  2.079379  0  0  -0.600718  0  2.324571  0  0  -0.622316  0  2.315007  0  0  -0.355482  -0.578354  0  2.33271  0
O  O75  1  0.30053317  0.01850817  0.57860694  1  0  -0.639512  0  2.079142  0  0  -0.600878  0  2.324319  0  0  -0.622483  0  2.314779  0  0  -0.355577  -0.578503  0  2.332446  0
O  O76  1  0.53949910  0.67537030  0.99081035  1  0  -0.657197  0  2.128105  0  0  -0.603212  0  2.361416  0  0  -0.628606  0  2.352474  0  0  -0.340664  -0.578938  0  2.368466  0
O  O77  1  0.46052772  0.82462122  0.49082348  1  0  -0.657434  0  2.127492  0  0  -0.603367  0  2.3608  0  0  -0.628779  0  2.351863  0  0  -0.340694  -0.579076  0  2.367841  0
O  O78  1  0.46051042  0.32463111  0.00918993  1  0  -0.657651  0  2.127048  0  0  -0.603518  0  2.360531  0  0  -0.628948  0  2.351568  0  0  -0.340834  -0.579237  0  2.367585  0
O  O79  1  0.53948508  0.17536522  0.50919109  1  0  -0.657354  0  2.127731  0  0  -0.603276  0  2.36111  0  0  -0.628695  0  2.35217  0  0  -0.340675  -0.57899  0  2.368152  0
O  O80  1  0.85320197  0.38734428  0.89271448  1  0  -0.881433  0  1.915352  0  0  -0.834691  0  2.106564  0  0  -0.853391  0  2.078507  0  0  -0.613283  -0.814137  0  2.128504  0
O  O81  1  0.14679794  0.11265613  0.39272270  1  0  -0.881465  0  1.915503  0  0  -0.834813  0  2.106625  0  0  -0.853515  0  2.078569  0  0  -0.613344  -0.814254  0  2.128575  0
O  O82  1  0.14679812  0.61266007  0.10728279  1  0  -0.881559  0  1.915313  0  0  -0.834889  0  2.106496  0  0  -0.853592  0  2.078432  0  0  -0.613359  -0.814326  0  2.128443  0
O  O83  1  0.85320373  0.88734323  0.60728284  1  0  -0.881549  0  1.915341  0  0  -0.834869  0  2.1065  0  0  -0.853568  0  2.078438  0  0  -0.613343  -0.814306  0  2.128448  0
O  O84  1  0.46572412  0.30158807  0.79365704  1  0  -0.89892  0  1.812004  0  0  -0.861077  0  1.975992  0  0  -0.8773  0  1.945241  0  0  -0.633549  -0.840961  0  2.004107  0
O  O85  1  0.53427247  0.19840979  0.29365917  1  0  -0.898838  0  1.812016  0  0  -0.861001  0  1.975943  0  0  -0.877235  0  1.945199  0  0  -0.633488  -0.840876  0  2.004058  0
O  O86  1  0.53427051  0.69841225  0.20634173  1  0  -0.898893  0  1.811954  0  0  -0.861066  0  1.975851  0  0  -0.877299  0  1.945087  0  0  -0.633503  -0.840939  0  2.003969  0
O  O87  1  0.46572760  0.80158356  0.70634111  1  0  -0.898826  0  1.811995  0  0  -0.860978  0  1.9759  0  0  -0.87721  0  1.945148  0  0  -0.633491  -0.840849  0  2.00402  0
