# generated using pymatgen
data_ZnH12C14INO4
_symmetry_space_group_name_H-M   'P 1'
_cell_length_a   10.16338479
_cell_length_b   11.34124024
_cell_length_c   17.46033331
_cell_angle_alpha   84.82491400
_cell_angle_beta   71.13431618
_cell_angle_gamma   76.54502473
_symmetry_Int_Tables_number   1
_chemical_formula_structural   ZnH12C14INO4
_chemical_formula_sum   'Zn2 H24 C28 I2 N2 O8'
_cell_volume   1851.93886766
_cell_formula_units_Z   2
loop_
 _symmetry_equiv_pos_site_id
 _symmetry_equiv_pos_as_xyz
  1  'x, y, z'
loop_
 _atom_site_type_symbol
 _atom_site_label
 _atom_site_symmetry_multiplicity
 _atom_site_fract_x
 _atom_site_fract_y
 _atom_site_fract_z
 _atom_site_occupancy
 _atom_site_pbe_bader_charge
 _atom_site_pbe_bader_spin_density
 _atom_site_pbe_cm5_charge
 _atom_site_pbe_ddec_charge
 _atom_site_pbe_ddec_spin_density
 _atom_site_pbe_ddec_sum_bond_order
 _atom_site_pbe_magmom
Zn  Zn0  1  0.64557243  0.49981694  0.47813330  1  1.295044  0  0.661128  0.867487  0  2.409623  0
Zn  Zn1  1  0.35759829  0.50911055  0.52193999  1  1.297921  0  0.659615  0.867142  0  2.406007  0
H  H2  1  0.32441734  0.49943658  0.28349802  1  0.072004  0  0.090529  0.092968  0  1.03403  0
H  H3  1  0.63056248  0.89047060  0.48410171  1  0.096172  0  0.102428  0.098317  0  0.998732  0
H  H4  1  0.70080400  0.08933587  0.48554991  1  0.084443  0  0.102901  0.11892  0  0.995211  0
H  H5  1  0.30771071  0.92011427  0.51688854  1  0.075885  0  0.103392  0.119301  0  0.99404  0
H  H6  1  0.87541504  0.59139627  0.42927499  1  0.451975  0  0.287812  0.272434  0  0.981558  0
H  H7  1  0.13122192  0.41213179  0.57182625  1  0.448419  0  0.288621  0.273532  0  0.980232  0
H  H8  1  0.68520293  0.76782906  0.00517854  1  0.032658  0  0.086031  0.11524  0  1.010934  0
H  H9  1  0.74553860  0.79459543  0.08537071  1  0.030554  0  0.087373  0.116681  0  0.997021  0
H  H10  1  0.86994470  0.75805868  0.98771690  1  0.02229  0  0.084747  0.110375  0  1.011394  0
H  H11  1  0.87999359  0.57774369  0.08120985  1  0.04734  0  0.090725  0.083946  0  0.995108  0
H  H12  1  0.82408644  0.54925977  0.00065990  1  0.01736  0  0.090298  0.080503  0  0.992747  0
H  H13  1  0.65590345  0.58718574  0.70680102  1  0.092953  0  0.093495  0.097518  0  1.022631  0
H  H14  1  0.21506444  0.35256991  0.95111330  1  0.030528  0  0.088052  0.119141  0  0.995172  0
H  H15  1  0.27194244  0.41076898  0.02297483  1  0.031987  0  0.085806  0.114113  0  1.01749  0
H  H16  1  0.08726350  0.41939797  0.04105253  1  0.020467  0  0.084555  0.111228  0  1.017152  0
H  H17  1  0.14236185  0.62292428  0.99466198  1  0.032253  0  0.090284  0.081818  0  0.988431  0
H  H18  1  0.08933267  0.56268290  0.92290731  1  0.021793  0  0.092576  0.086417  0  0.986431  0
H  H19  1  0.23168133  0.52580437  0.78999477  1  0.074403  0  0.100756  0.107245  0  1.009965  0
H  H20  1  0.74912838  0.55801049  0.21506010  1  0.079758  0  0.100958  0.107321  0  1.010591  0
H  H21  1  0.32120676  0.60966339  0.03030137  1  0.057605  0  0.098691  0.093532  0  1.032017  0
H  H22  1  0.64725529  0.55891816  0.96548146  1  0.066328  0  0.098376  0.093598  0  1.028436  0
H  H23  1  0.64066267  0.62257205  0.84792477  1  0.043584  0  0.098681  0.097934  0  1.005755  0
H  H24  1  0.32810688  0.52662371  0.14058233  1  0.060701  0  0.097217  0.096657  0  1.015429  0
H  H25  1  0.37793225  0.11849794  0.51852650  1  0.048014  0  0.103006  0.099758  0  0.99414  0
C  C26  1  0.45481443  0.74228856  0.49608336  1  1.528261  0  0.203266  0.632739  0  4.180233  0
C  C27  1  0.45650083  0.52647480  0.65539250  1  1.557042  0  0.208885  0.594129  0  4.166131  0
C  C28  1  0.53663342  0.52792337  0.25821742  1  -0.002487  0  -0.023539  -0.028492  0  3.985877  0
C  C29  1  0.44583991  0.55052574  0.74020052  1  -0.034374  0  -0.023102  -0.028805  0  3.989919  0
C  C30  1  0.41707138  0.52090509  0.23674001  1  -0.016694  0  -0.096095  -0.106268  0  4.033568  0
C  C31  1  0.56080254  0.57923965  0.75687973  1  -0.024498  0  -0.09512  -0.106082  0  4.030732  0
C  C32  1  0.41953964  0.53768279  0.15674850  1  -0.079493  0  -0.096428  -0.135219  0  4.000388  0
C  C33  1  0.55169366  0.59796329  0.83593023  1  -0.088364  0  -0.096713  -0.133608  0  4.002068  0
C  C34  1  0.53955266  0.56378602  0.09515637  1  -0.006046  0  -0.008254  0.068041  0  3.988051  0
C  C35  1  0.42953463  0.58672090  0.90132642  1  -0.008834  0  -0.009212  0.065594  0  3.992815  0
C  C36  1  0.66053363  0.57185679  0.11681054  1  -0.026362  0  -0.008032  0.071334  0  3.90067  0
C  C37  1  0.55444298  0.26744326  0.50456820  1  1.556375  0  0.20422  0.633961  0  4.178872  0
C  C38  1  0.31045811  0.56327934  0.88421338  1  0.022381  0  -0.008131  0.068683  0  3.903701  0
C  C39  1  0.65654378  0.55317131  0.19772281  1  -0.026395  0  -0.087648  -0.152072  0  3.957542  0
C  C40  1  0.32142881  0.54548126  0.80403700  1  -0.037766  0  -0.086965  -0.150254  0  3.96136  0
C  C41  1  0.54187817  0.57415559  0.01083323  1  -0.087111  0  -0.092952  -0.13203  0  4.000805  0
C  C42  1  0.42640743  0.59351532  0.98493646  1  -0.086915  0  -0.090946  -0.129209  0  4.001606  0
C  C43  1  0.79154938  0.60364296  0.05554830  1  -0.012452  0  -0.159047  -0.14399  0  3.99628  0
C  C44  1  0.77199301  0.73879788  0.03192960  1  -0.073537  0  -0.244334  -0.352838  0  3.962966  0
C  C45  1  0.17519320  0.54999357  0.95031429  1  -0.017398  0  -0.160438  -0.146273  0  3.996844  0
C  C46  1  0.18791780  0.42620138  0.99406824  1  -0.061755  0  -0.244426  -0.355642  0  3.961071  0
C  C47  1  0.42007116  0.87587043  0.50341442  1  -0.024144  0  -0.093869  -0.226862  0  3.883402  0
C  C48  1  0.58852606  0.13363599  0.49876078  1  -0.035984  0  -0.094573  -0.227591  0  3.88489  0
C  C49  1  0.51991484  0.94000237  0.49686461  1  -0.066743  0  -0.077032  -0.029076  0  4.022377  0
C  C50  1  0.48870136  0.06921366  0.50589511  1  -0.011634  0  -0.074931  -0.027479  0  4.022185  0
C  C51  1  0.06127111  0.53253060  0.50133433  1  0.629042  0  0.129931  0.209125  0  3.888349  0
C  C52  1  0.93378544  0.48069043  0.50802112  1  0.601051  0  0.128878  0.207951  0  3.894435  0
C  C53  1  0.53475777  0.50944881  0.34445271  1  1.545388  0  0.212123  0.594478  0  4.161344  0
I  I54  1  0.90210103  0.33592723  0.59135181  1  0.244127  0  0.203501  0.10426  0  1.415667  0
I  I55  1  0.08212907  0.68765267  0.42630158  1  0.242789  0  0.208401  0.107296  0  1.428277  0
N  N56  1  0.15320952  0.48827122  0.53690650  1  -1.214091  0  -0.439029  -0.390444  0  3.270789  0
N  N57  1  0.84921038  0.51862668  0.46684216  1  -1.181963  0  -0.441295  -0.391841  0  3.274127  0
O  O58  1  0.58547718  0.68787910  0.47381471  1  -1.169364  0  -0.326333  -0.55472  0  2.284334  0
O  O59  1  0.42401952  0.32276899  0.52523535  1  -1.173517  0  -0.325275  -0.556011  0  2.289068  0
O  O60  1  0.34790530  0.69196323  0.51390674  1  -1.152251  0  -0.329841  -0.571351  0  2.316645  0
O  O61  1  0.66168019  0.31731477  0.48699862  1  -1.156279  0  -0.330283  -0.568951  0  2.311369  0
O  O62  1  0.65066285  0.50377560  0.35967785  1  -1.15881  0  -0.324591  -0.540401  0  2.280006  0
O  O63  1  0.34435311  0.51515022  0.64152244  1  -1.151603  0  -0.325047  -0.541404  0  2.274365  0
O  O64  1  0.41570097  0.50161643  0.39706709  1  -1.185981  0  -0.327459  -0.574246  0  2.360667  0
O  O65  1  0.57894524  0.51901184  0.60241628  1  -1.186053  0  -0.326322  -0.579559  0  2.385878  0
