# generated using pymatgen
data_Zr3H11C25(N3O13)2
_symmetry_space_group_name_H-M   'P 1'
_cell_length_a   14.76555324
_cell_length_b   14.78520273
_cell_length_c   14.84206930
_cell_angle_alpha   59.93075725
_cell_angle_beta   59.89425294
_cell_angle_gamma   60.25833376
_symmetry_Int_Tables_number   1
_chemical_formula_structural   Zr3H11C25(N3O13)2
_chemical_formula_sum   'Zr6 H22 C50 N12 O52'
_cell_volume   2292.55218133
_cell_formula_units_Z   2
loop_
 _symmetry_equiv_pos_site_id
 _symmetry_equiv_pos_as_xyz
  1  'x, y, z'
loop_
 _atom_site_type_symbol
 _atom_site_label
 _atom_site_symmetry_multiplicity
 _atom_site_fract_x
 _atom_site_fract_y
 _atom_site_fract_z
 _atom_site_occupancy
 _atom_site_pbe_bader_charge
 _atom_site_pbe_bader_spin_density
 _atom_site_pbe_cm5_charge
 _atom_site_pbe_ddec_charge
 _atom_site_pbe_ddec_spin_density
 _atom_site_pbe_ddec_sum_bond_order
 _atom_site_pbe_magmom
Zr  Zr0  1  0.88160162  0.87791739  0.61851769  1  2.639083  0  1.630827  2.376084  0  2.725129  0
Zr  Zr1  1  0.12269122  0.11620095  0.38059342  1  2.635489  0  1.63623  2.369446  0  2.773162  0
Zr  Zr2  1  0.12042484  0.87803656  0.61762599  1  2.631045  0  1.632703  2.367624  0  2.776262  0
Zr  Zr3  1  0.88383066  0.11954737  0.37769579  1  2.637836  0  1.630013  2.374643  0  2.736108  0
Zr  Zr4  1  0.12076092  0.87908065  0.37852842  1  2.638151  0  1.633304  2.379998  0  2.74264  0
Zr  Zr5  1  0.88253614  0.11726310  0.61811370  1  2.63416  0  1.635137  2.378743  0  2.747377  0
H  H6  1  0.09215664  0.71553231  0.59481983  1  0.620213  0  0.334333  0.428188  0  0.852465  0
H  H7  1  0.09667156  0.09590985  0.21645784  1  0.611992  0  0.3343  0.427956  0  0.85125  0
H  H8  1  0.09803406  0.08989332  0.59328278  1  0.608903  0  0.333074  0.425952  0  0.85355  0
H  H9  1  0.71949357  0.09252931  0.59130922  1  0.601335  0  0.331565  0.422885  0  0.859651  0
H  H10  1  0.15861002  0.57278929  0.37190389  1  0.155773  0  0.126189  0.15257  0  0.996484  0
H  H11  1  0.83829579  0.43236653  0.61355954  1  0.164634  0  0.126376  0.15276  0  0.999127  0
H  H12  1  0.61052405  0.12154359  0.92661034  1  0.187385  0  0.126392  0.153237  0  0.997334  0
H  H13  1  0.39815876  0.87146160  0.07454033  1  0.190259  0  0.125997  0.151552  0  1.000408  0
H  H14  1  0.85132316  0.13493864  0.09277779  1  0.163053  0  0.128473  0.151342  0  0.983656  0
H  H15  1  0.14655448  0.85908182  0.90816614  1  0.189144  0  0.124388  0.146195  0  0.987733  0
H  H16  1  0.59052228  0.40873308  0.35683090  1  0.185047  0  0.128472  0.149949  0  0.984313  0
H  H17  1  0.41938934  0.59278907  0.63443825  1  0.16345  0  0.126903  0.150611  0  0.983394  0
H  H18  1  0.74136191  0.63389359  0.96426478  1  0.08213  0  0.090328  0.109028  0  1.016457  0
H  H19  1  0.82771095  0.54167687  0.88724390  1  0.068379  0  0.092672  0.111858  0  0.999905  0
H  H20  1  0.81921826  0.38005937  0.06466702  1  0.030097  0  0.091176  0.099892  0  0.989159  0
H  H21  1  0.73613768  0.47322931  0.14115570  1  0.031754  0  0.090508  0.099162  0  0.991973  0
H  H22  1  0.59125391  0.85507269  0.64086263  1  0.140649  0  0.124458  0.141213  0  1.010979  0
H  H23  1  0.41738016  0.13603988  0.35367409  1  0.17285  0  0.12299  0.142259  0  1.011547  0
H  H24  1  0.16852603  0.34964169  0.15904965  1  0.4885  0  0.301012  0.305566  0  0.993998  0
H  H25  1  0.23634758  0.43360688  0.03936137  1  0.475461  0  0.31257  0.30722  0  0.936754  0
H  H26  1  0.15004009  0.67958144  0.86153092  1  0.488109  0  0.301174  0.307148  0  0.991265  0
H  H27  1  0.18029033  0.59609635  0.98285631  1  0.43184  0  0.311779  0.304917  0  0.940456  0
C  C28  1  0.99412786  0.70209694  0.49139984  1  1.613501  0  0.242683  0.649392  0  4.100397  0
C  C29  1  0.31077506  0.99435751  0.20080368  1  1.578954  0  0.242408  0.65  0  4.100161  0
C  C30  1  0.00385828  0.30097693  0.49766024  1  1.586244  0  0.241824  0.646339  0  4.102196  0
C  C31  1  0.69848254  0.99718965  0.80181054  1  1.579472  0  0.242581  0.646732  0  4.100852  0
C  C32  1  0.99584439  0.70048415  0.80794417  1  1.463729  0  0.231139  0.654516  0  4.08093  0
C  C33  1  0.70219534  0.99698269  0.49388664  1  1.594479  0  0.243223  0.650864  0  4.088642  0
C  C34  1  0.99824857  0.30839469  0.20276176  1  1.442694  0  0.231122  0.655857  0  4.076539  0
C  C35  1  0.30909704  0.99166402  0.49798882  1  1.592581  0  0.242753  0.648761  0  4.096932  0
C  C36  1  0.30763718  0.69691379  0.49426120  1  1.588  0  0.241114  0.64606  0  4.102839  0
C  C37  1  0.99719276  0.99493535  0.80586414  1  1.585239  0  0.239364  0.642898  0  4.10774  0
C  C38  1  0.70257612  0.30533619  0.49617488  1  1.595918  0  0.241083  0.644822  0  4.105691  0
C  C39  1  0.00034412  0.99691058  0.19632263  1  1.596761  0  0.240495  0.643854  0  4.106771  0
C  C40  1  0.00418427  0.40252144  0.49656278  1  0.072927  0  0.004711  -0.054404  0  3.911393  0
C  C41  1  0.99301268  0.60213285  0.49005820  1  0.005254  0  0.004477  -0.056815  0  3.908886  0
C  C42  1  0.09347960  0.44361822  0.42995959  1  0.152582  0  0.095666  0.070693  0  3.906968  0
C  C43  1  0.90426168  0.56042623  0.55730821  1  0.208397  0  0.096865  0.072027  0  3.914659  0
C  C44  1  0.08829544  0.54238637  0.42456244  1  0.078175  0  -0.059034  -0.117179  0  3.885769  0
C  C45  1  0.90871913  0.46260588  0.56133790  1  0.097012  0  -0.058781  -0.117271  0  3.889227  0
C  C46  1  0.41167939  0.99541365  0.09936772  1  0.023819  0  0.002659  -0.06031  0  3.911847  0
C  C47  1  0.59569131  0.99888532  0.90142095  1  0.017169  0  0.005903  -0.051657  0  3.908556  0
C  C48  1  0.47177764  0.06650656  0.05451408  1  0.193931  0  0.096136  0.070937  0  3.909781  0
C  C49  1  0.53254206  0.93135789  0.94356682  1  0.217183  0  0.095392  0.068485  0  3.909623  0
C  C50  1  0.56328226  0.06768241  0.95845333  1  0.069724  0  -0.059123  -0.117269  0  3.885566  0
C  C51  1  0.44448996  0.92627559  0.04233680  1  0.068753  0  -0.057317  -0.11395  0  3.887383  0
C  C52  1  0.99637165  0.99770692  0.90587340  1  0.067811  0  0.003905  -0.053523  0  3.908175  0
C  C53  1  0.00138114  0.99588146  0.09528719  1  0.038061  0  0.004474  -0.054681  0  3.904725  0
C  C54  1  0.91525118  0.07591829  0.95835334  1  0.216558  0  0.09408  0.066719  0  3.911052  0
C  C55  1  0.08362742  0.91897267  0.04154749  1  0.186154  0  0.094189  0.068458  0  3.915435  0
C  C56  1  0.91641108  0.07502645  0.05171542  1  0.051905  0  -0.057887  -0.116406  0  3.889642  0
C  C57  1  0.08140686  0.91882809  0.94933435  1  -0.004292  0  -0.062847  -0.12458  0  3.910232  0
C  C58  1  0.40887360  0.59587588  0.49351992  1  0.089145  0  0.003961  -0.056517  0  3.906167  0
C  C59  1  0.60070344  0.40560206  0.49787208  1  0.116203  0  0.004896  -0.053898  0  3.906442  0
C  C60  1  0.45870752  0.54217526  0.41630410  1  0.163966  0  0.094444  0.067788  0  3.914499  0
C  C61  1  0.54967658  0.45799157  0.57638873  1  0.161175  0  0.094103  0.067387  0  3.912274  0
C  C62  1  0.55306418  0.44955230  0.41726324  1  -0.016181  0  -0.059527  -0.120839  0  3.899684  0
C  C63  1  0.45649770  0.55186339  0.57417696  1  0.021104  0  -0.059106  -0.116757  0  3.89377  0
C  C64  1  0.99533080  0.60641483  0.91088873  1  -0.028115  0  -0.034106  -0.210575  0  3.989629  0
C  C65  1  0.99521525  0.41198294  0.10940414  1  -0.018121  0  -0.03423  -0.210116  0  3.988754  0
C  C66  1  0.91472349  0.55409590  0.96473208  1  0.060735  0  -0.025767  0.039579  0  3.966834  0
C  C67  1  0.07816030  0.46232498  0.05803088  1  0.461679  0  0.110549  0.206188  0  3.99612  0
C  C68  1  0.91291202  0.46365405  0.06044737  1  0.016647  0  -0.02653  0.033745  0  3.963647  0
C  C69  1  0.07512329  0.56213737  0.96224304  1  0.44156  0  0.108824  0.205317  0  3.98717  0
C  C70  1  0.81323627  0.55860709  0.95833932  1  -0.039365  0  -0.155983  -0.193978  0  3.859512  0
C  C71  1  0.80954133  0.45637972  0.06941680  1  0.016944  0  -0.152411  -0.180317  0  3.87786  0
C  C72  1  0.40970690  0.99154612  0.49916856  1  0.048875  0  0.003624  -0.057377  0  3.905652  0
C  C73  1  0.60029895  0.99812800  0.49413151  1  -0.018956  0  0.005212  -0.055719  0  3.89524  0
C  C74  1  0.45975952  0.91360273  0.57987383  1  0.143664  0  0.094448  0.069293  0  3.891976  0
C  C75  1  0.54912320  0.07719094  0.41449857  1  0.16705  0  0.094721  0.070167  0  3.894535  0
C  C76  1  0.55319378  0.91614498  0.57800876  1  0.189245  0  -0.059447  -0.103161  0  3.906672  0
C  C77  1  0.45595493  0.07437674  0.41608990  1  0.106039  0  -0.060686  -0.107796  0  3.900804  0
N  N78  1  0.20164815  0.38003568  0.36771894  1  0.410774  0  0.062469  0.521574  0  4.231508  0
N  N79  1  0.79774777  0.62123377  0.62375792  1  0.413708  0  0.064776  0.522478  0  4.238915  0
N  N80  1  0.44280352  0.14400792  0.10737718  1  0.436322  0  0.066702  0.526523  0  4.229973  0
N  N81  1  0.54934632  0.86910631  0.88058987  1  0.39762  0  0.063618  0.519192  0  4.233008  0
N  N82  1  0.82356044  0.16526510  0.91707799  1  0.430727  0  0.065517  0.523162  0  4.238878  0
N  N83  1  0.17946768  0.83385786  0.07800347  1  0.435169  0  0.065265  0.52488  0  4.236546  0
N  N84  1  0.41328063  0.57985482  0.32943997  1  0.449883  0  0.064676  0.521447  0  4.237108  0
N  N85  1  0.59077166  0.41598980  0.66775989  1  0.43299  0  0.065451  0.522172  0  4.236317  0
N  N86  1  0.41587908  0.82371911  0.67223062  1  0.426213  0  0.066949  0.532  0  4.219961  0
N  N87  1  0.59045635  0.16946082  0.32436355  1  0.455221  0  0.067338  0.530655  0  4.225322  0
N  N88  1  0.16282500  0.42287930  0.09582987  1  -1.249502  0  -0.586262  -0.584698  0  3.378022  0
N  N89  1  0.15575178  0.60619290  0.92456270  1  -1.220776  0  -0.590319  -0.595873  0  3.334293  0
O  O90  1  0.91943626  0.73846141  0.57025534  1  -1.176454  0  -0.34423  -0.609304  0  2.306561  0
O  O91  1  0.27128018  0.07143771  0.23931218  1  -1.168845  0  -0.348484  -0.612781  0  2.317935  0
O  O92  1  0.08021647  0.26222664  0.42093081  1  -1.177546  0  -0.347188  -0.608126  0  2.318346  0
O  O93  1  0.73903544  0.91869001  0.76509562  1  -1.172315  0  -0.34403  -0.606368  0  2.312202  0
O  O94  1  0.07453985  0.74223390  0.76134760  1  -1.191859  0  -0.378823  -0.64339  0  2.347218  0
O  O95  1  0.74267718  0.07325243  0.41677969  1  -1.173824  0  -0.350241  -0.615269  0  2.319649  0
O  O96  1  0.92351745  0.26548780  0.24011633  1  -1.170312  0  -0.363914  -0.621214  0  2.270148  0
O  O97  1  0.26853459  0.91529693  0.57478800  1  -1.175677  0  -0.352377  -0.616799  0  2.322587  0
O  O98  1  0.26789464  0.73594567  0.41830740  1  -1.163606  0  -0.346292  -0.609854  0  2.312204  0
O  O99  1  0.92006942  0.06991277  0.76702980  1  -1.176613  0  -0.346964  -0.60852  0  2.319567  0
O  O100  1  0.74321585  0.26686528  0.57132058  1  -1.168566  0  -0.34746  -0.610933  0  2.316415  0
O  O101  1  0.07655789  0.92022794  0.23574897  1  -1.174999  0  -0.347069  -0.609887  0  2.32112  0
O  O102  1  0.07536519  0.91893273  0.76718330  1  -1.178606  0  -0.340094  -0.6011  0  2.274517  0
O  O103  1  0.73943032  0.26614363  0.42056551  1  -1.166949  0  -0.33883  -0.595444  0  2.280413  0
O  O104  1  0.92442019  0.07442927  0.23377885  1  -1.176717  0  -0.338056  -0.595537  0  2.271012  0
O  O105  1  0.26897092  0.73463689  0.57150053  1  -1.17505  0  -0.341644  -0.59844  0  2.274158  0
O  O106  1  0.92147463  0.73702329  0.76599414  1  -1.171917  0  -0.351672  -0.605455  0  2.239136  0
O  O107  1  0.27068817  0.06865430  0.42139795  1  -1.174813  0  -0.342754  -0.595096  0  2.297017  0
O  O108  1  0.07701694  0.26195923  0.24327225  1  -1.182403  0  -0.369336  -0.632605  0  2.326538  0
O  O109  1  0.73987963  0.92068676  0.57123077  1  -1.169478  0  -0.342326  -0.594453  0  2.29837  0
O  O110  1  0.73771208  0.07415716  0.76290444  1  -1.167923  0  -0.345756  -0.599169  0  2.284873  0
O  O111  1  0.07251107  0.73990963  0.41577907  1  -1.176539  0  -0.345362  -0.598717  0  2.284812  0
O  O112  1  0.27075886  0.91846704  0.23834631  1  -1.17032  0  -0.343156  -0.596714  0  2.281946  0
O  O113  1  0.92635415  0.26241824  0.57458717  1  -1.175058  0  -0.344127  -0.598097  0  2.27805  0
O  O114  1  0.79983935  0.06625373  0.56512535  1  -1.227937  0  -0.689579  -1.067812  0  2.354505  0
O  O115  1  0.06992685  0.06373930  0.56726851  1  -1.234563  0  -0.69491  -1.073133  0  2.361645  0
O  O116  1  0.07085729  0.06522229  0.29653978  1  -1.238055  0  -0.694711  -1.074337  0  2.362614  0
O  O117  1  0.06798668  0.79567613  0.56483044  1  -1.245658  0  -0.693435  -1.073192  0  2.358975  0
O  O118  1  0.15118830  0.94731545  0.44899853  1  -1.201959  0  -0.793859  -1.152001  0  2.135694  0
O  O119  1  0.95237243  0.94956930  0.44857133  1  -1.199505  0  -0.78606  -1.149996  0  2.114502  0
O  O120  1  0.95334470  0.14653865  0.44986195  1  -1.194499  0  -0.792975  -1.151125  0  2.140138  0
O  O121  1  0.95140288  0.94876396  0.64680054  1  -1.19727  0  -0.792683  -1.151358  0  2.138859  0
O  O122  1  0.25562235  0.29526213  0.42407741  1  -0.454854  0  -0.121811  -0.321992  0  1.924716  0
O  O123  1  0.23148774  0.41865078  0.26600930  1  -0.398672  0  -0.10841  -0.294843  0  1.905296  0
O  O124  1  0.77552166  0.58411081  0.72474310  1  -0.408051  0  -0.099355  -0.291762  0  1.899452  0
O  O125  1  0.73733041  0.70181602  0.57159612  1  -0.43302  0  -0.112805  -0.310872  0  1.938556  0
O  O126  1  0.38842312  0.24092825  0.06869343  1  -0.434033  0  -0.112774  -0.308544  0  1.909932  0
O  O127  1  0.47976847  0.10659575  0.18190844  1  -0.441887  0  -0.105313  -0.300291  0  1.938905  0
O  O128  1  0.52786037  0.92602722  0.79356255  1  -0.450284  0  -0.121122  -0.321833  0  1.933077  0
O  O129  1  0.57656336  0.76759792  0.92175790  1  -0.402149  0  -0.095158  -0.286272  0  1.911517  0
O  O130  1  0.84157717  0.25223823  0.84807626  1  -0.413406  0  -0.109841  -0.300054  0  1.886251  0
O  O131  1  0.73543452  0.14672610  0.95948209  1  -0.442216  0  -0.109878  -0.305522  0  1.924845  0
O  O132  1  0.25996081  0.86291757  0.04238203  1  -0.439747  0  -0.113223  -0.311436  0  1.926173  0
O  O133  1  0.17316693  0.74014609  0.13546503  1  -0.422786  0  -0.111092  -0.301323  0  1.880686  0
O  O134  1  0.34149363  0.54270926  0.35565139  1  -0.445629  0  -0.114151  -0.311532  0  1.920269  0
O  O135  1  0.45471084  0.64021273  0.23740663  1  -0.429439  0  -0.105687  -0.294756  0  1.884043  0
O  O136  1  0.55423282  0.34623351  0.75343037  1  -0.423678  0  -0.112978  -0.304454  0  1.889401  0
O  O137  1  0.65336396  0.45853754  0.65235502  1  -0.438533  0  -0.108962  -0.303326  0  1.923106  0
O  O138  1  0.34653051  0.84414553  0.75785881  1  -0.433796  0  -0.123149  -0.322113  0  1.899998  0
O  O139  1  0.45540928  0.73450981  0.65771589  1  -0.438115  0  -0.113325  -0.309261  0  1.906632  0
O  O140  1  0.55377431  0.25493750  0.34491127  1  -0.442839  0  -0.11776  -0.315534  0  1.901087  0
O  O141  1  0.65409632  0.15504292  0.23497599  1  -0.438085  0  -0.114579  -0.311343  0  1.910214  0
