# generated using pymatgen
data_Zr3H26(C21O8)2
_symmetry_space_group_name_H-M   'P 1'
_cell_length_a   19.12992778
_cell_length_b   19.13001890
_cell_length_c   19.13003187
_cell_angle_alpha   59.99985090
_cell_angle_beta   59.99998074
_cell_angle_gamma   60.00024977
_symmetry_Int_Tables_number   1
_chemical_formula_structural   Zr3H26(C21O8)2
_chemical_formula_sum   'Zr6 H52 C84 O32'
_cell_volume   4950.27918233
_cell_formula_units_Z   2
loop_
 _symmetry_equiv_pos_site_id
 _symmetry_equiv_pos_as_xyz
  1  'x, y, z'
loop_
 _atom_site_type_symbol
 _atom_site_label
 _atom_site_symmetry_multiplicity
 _atom_site_fract_x
 _atom_site_fract_y
 _atom_site_fract_z
 _atom_site_occupancy
 _atom_site_pbe_bader_charge
 _atom_site_pbe_bader_spin_density
 _atom_site_pbe_cm5_charge
 _atom_site_pbe_ddec_charge
 _atom_site_pbe_ddec_spin_density
 _atom_site_pbe_ddec_sum_bond_order
 _atom_site_pbe_magmom
Zr  Zr0  1  0.90754184  0.40754360  0.59245712  1  2.628805  0  1.624191  2.375079  0  2.753355  0
Zr  Zr1  1  0.09245493  0.59245498  0.40754421  1  2.623872  0  1.624347  2.375244  0  2.753006  0
Zr  Zr2  1  0.09245653  0.40754126  0.59245862  1  2.624074  0  1.624261  2.375122  0  2.753217  0
Zr  Zr3  1  0.90754090  0.59245589  0.40754413  1  2.631088  0  1.624226  2.375113  0  2.753205  0
Zr  Zr4  1  0.90753946  0.59245784  0.59246060  1  2.624091  0  1.62423  2.375078  0  2.753227  0
Zr  Zr5  1  0.09245815  0.40753846  0.40754091  1  2.631065  0  1.624209  2.375016  0  2.753322  0
H  H6  1  0.92719769  0.42719976  0.71839975  1  0.591409  0  0.330574  0.421204  0  0.857946  0
H  H7  1  0.92719966  0.71839486  0.42720183  1  0.59155  0  0.330639  0.421282  0  0.857911  0
H  H8  1  0.21839630  0.42720112  0.42720101  1  0.591407  0  0.330648  0.421289  0  0.857863  0
H  H9  1  0.92719619  0.42720057  0.42720355  1  0.599065  0  0.330601  0.421233  0  0.857866  0
H  H10  1  0.32052588  0.61256283  0.17836130  1  0.08414  0  0.108099  0.112269  0  0.995068  0
H  H11  1  0.45001463  0.61278157  0.05043360  1  0.022034  0  0.100179  0.09681  0  1.019735  0
H  H12  1  0.67836012  0.38854767  0.82052875  1  0.113231  0  0.108139  0.112303  0  0.995064  0
H  H13  1  0.55043227  0.38676489  0.95001852  1  0.029586  0  0.100157  0.096748  0  1.01975  0
H  H14  1  0.67835950  0.61256008  0.82052874  1  0.084704  0  0.108125  0.112287  0  0.995132  0
H  H15  1  0.55043121  0.61278313  0.95001892  1  0.016403  0  0.100176  0.096789  0  1.019615  0
H  H16  1  0.32052416  0.38855017  0.17836454  1  0.113189  0  0.108134  0.112296  0  0.995133  0
H  H17  1  0.45001303  0.38676382  0.05043665  1  0.035056  0  0.100139  0.096789  0  1.019635  0
H  H18  1  0.11256017  0.82052726  0.38854964  1  0.086456  0  0.108113  0.112288  0  0.995115  0
H  H19  1  0.11278028  0.95001670  0.38676734  1  0.066876  0  0.100124  0.096749  0  1.019785  0
H  H20  1  0.88854440  0.17835957  0.61256516  1  0.111938  0  0.108138  0.112353  0  0.994983  0
H  H21  1  0.88676367  0.05043234  0.61278373  1  0.063974  0  0.100136  0.096732  0  1.01975  0
H  H22  1  0.11255693  0.17836238  0.38855201  1  0.111738  0  0.108098  0.112238  0  0.995187  0
H  H23  1  0.11278102  0.05043475  0.38676681  1  0.064089  0  0.100146  0.096767  0  1.01967  0
H  H24  1  0.88854793  0.82052579  0.61256181  1  0.086367  0  0.10813  0.112317  0  0.995062  0
H  H25  1  0.88676117  0.95001673  0.61278550  1  0.066811  0  0.10013  0.096782  0  1.019625  0
H  H26  1  0.32052397  0.17836238  0.38855157  1  0.113121  0  0.108119  0.112317  0  0.995101  0
H  H27  1  0.45001278  0.05043413  0.38676675  1  0.035041  0  0.100156  0.096802  0  1.019672  0
H  H28  1  0.67835995  0.82052649  0.61256218  1  0.084669  0  0.10813  0.112333  0  0.995058  0
H  H29  1  0.55043184  0.95001648  0.61278543  1  0.016378  0  0.10019  0.096813  0  1.019657  0
H  H30  1  0.67836018  0.82052666  0.38854969  1  0.113231  0  0.108121  0.112306  0  0.995075  0
H  H31  1  0.55043279  0.95001632  0.38676675  1  0.029557  0  0.100126  0.096706  0  1.019791  0
H  H32  1  0.32052708  0.17836033  0.61256387  1  0.084101  0  0.10812  0.112314  0  0.995043  0
H  H33  1  0.45001648  0.05043266  0.61278241  1  0.021979  0  0.100143  0.096752  0  1.019753  0
H  H34  1  0.88854789  0.61256188  0.82052802  1  0.086301  0  0.108103  0.11222  0  0.995082  0
H  H35  1  0.88676501  0.61278262  0.95001721  1  0.066849  0  0.100141  0.096765  0  1.019718  0
H  H36  1  0.11255772  0.38855077  0.17836377  1  0.111685  0  0.108116  0.112282  0  0.995165  0
H  H37  1  0.11278304  0.38676516  0.05043614  1  0.064062  0  0.100155  0.096778  0  1.019675  0
H  H38  1  0.88854504  0.61256391  0.17836081  1  0.111963  0  0.108117  0.112295  0  0.99501  0
H  H39  1  0.88676545  0.61278175  0.05043335  1  0.063976  0  0.100135  0.096761  0  1.019663  0
H  H40  1  0.11255967  0.38854888  0.82052789  1  0.08632  0  0.108136  0.112288  0  0.995113  0
H  H41  1  0.11278149  0.38676492  0.95001708  1  0.066828  0  0.100136  0.096741  0  1.01973  0
H  H42  1  0.88854769  0.82052639  0.17836221  1  0.113192  0  0.108122  0.112298  0  0.995043  0
H  H43  1  0.88676415  0.95001588  0.05043428  1  0.035063  0  0.100132  0.09676  0  1.019661  0
H  H44  1  0.11255922  0.17836175  0.82052802  1  0.084697  0  0.108113  0.112301  0  0.995105  0
H  H45  1  0.11278205  0.05043438  0.95001667  1  0.016411  0  0.100149  0.09677  0  1.019662  0
H  H46  1  0.88854570  0.17836101  0.82052993  1  0.113218  0  0.108116  0.112284  0  0.995072  0
H  H47  1  0.88676436  0.05043367  0.95001882  1  0.029605  0  0.100129  0.096736  0  1.019703  0
H  H48  1  0.11255948  0.82052644  0.17836271  1  0.08416  0  0.108104  0.112254  0  0.995129  0
H  H49  1  0.11278158  0.95001529  0.05043498  1  0.022079  0  0.10015  0.096771  0  1.019726  0
H  H50  1  0.32052559  0.38854866  0.61256065  1  0.086377  0  0.108109  0.112268  0  0.99509  0
H  H51  1  0.45001426  0.38676469  0.61278364  1  0.066883  0  0.100157  0.096797  0  1.01966  0
H  H52  1  0.67836063  0.61255995  0.38855135  1  0.111733  0  0.108124  0.112273  0  0.995103  0
H  H53  1  0.55043283  0.61278302  0.38676561  1  0.064017  0  0.100118  0.096712  0  1.019696  0
H  H54  1  0.67835851  0.38854801  0.61256381  1  0.111995  0  0.108143  0.112338  0  0.99504  0
H  H55  1  0.55043125  0.38676534  0.61278325  1  0.063927  0  0.100167  0.096764  0  1.019671  0
H  H56  1  0.32052637  0.61256031  0.38854919  1  0.086423  0  0.108093  0.112206  0  0.995145  0
H  H57  1  0.45001464  0.61278116  0.38676841  1  0.066732  0  0.100142  0.096767  0  1.019783  0
C  C58  1  0.76301241  0.50190503  0.73317742  1  1.532001  0  0.234237  0.637236  0  4.10735  0
C  C59  1  0.00190324  0.73317548  0.50190572  1  1.549943  0  0.234251  0.637256  0  4.107484  0
C  C60  1  0.23317540  0.50189882  0.26301572  1  1.531874  0  0.234278  0.637264  0  4.107293  0
C  C61  1  0.00190516  0.26301349  0.50190081  1  1.543641  0  0.234189  0.637124  0  4.107473  0
C  C62  1  0.00190437  0.26301378  0.73317734  1  1.532007  0  0.234211  0.637175  0  4.107416  0
C  C63  1  0.76301216  0.50190369  0.50190618  1  1.543549  0  0.234243  0.637184  0  4.107323  0
C  C64  1  0.00190258  0.73317481  0.26301559  1  1.531893  0  0.234264  0.63729  0  4.107394  0
C  C65  1  0.23317545  0.50190096  0.50190627  1  1.550017  0  0.23422  0.637114  0  4.107617  0
C  C66  1  0.00190371  0.50190426  0.73317742  1  1.549855  0  0.234254  0.637202  0  4.107413  0
C  C67  1  0.23317648  0.26301295  0.50190400  1  1.532392  0  0.234218  0.637263  0  4.107356  0
C  C68  1  0.00190506  0.50190033  0.26301442  1  1.543587  0  0.234193  0.637124  0  4.10758  0
C  C69  1  0.76301121  0.73317657  0.50190551  1  1.531732  0  0.234279  0.637256  0  4.107212  0
C  C70  1  0.31196062  0.50097797  0.18608582  1  -0.042634  0  -0.019076  -0.043692  0  3.976977  0
C  C71  1  0.68608091  0.50097442  0.81196363  1  -0.042813  0  -0.019114  -0.043655  0  3.976876  0
C  C72  1  0.34968518  0.56352076  0.14939014  1  -0.02726  0  -0.082159  -0.084389  0  3.988713  0
C  C73  1  0.42280708  0.56287280  0.07729173  1  -0.037439  0  -0.090117  -0.131441  0  3.980835  0
C  C74  1  0.64938709  0.43739963  0.84968813  1  -0.009513  0  -0.082202  -0.084485  0  3.988682  0
C  C75  1  0.57728873  0.43702513  0.92281110  1  -0.051084  0  -0.090111  -0.131398  0  3.980714  0
C  C76  1  0.64938670  0.56352067  0.84968866  1  -0.027444  0  -0.082166  -0.084406  0  3.988609  0
C  C77  1  0.57728911  0.56286884  0.92281098  1  -0.037424  0  -0.090152  -0.131497  0  3.98101  0
C  C78  1  0.34968592  0.43739799  0.14939163  1  -0.009517  0  -0.08223  -0.084481  0  3.98857  0
C  C79  1  0.42280639  0.43702879  0.07729246  1  -0.050638  0  -0.090157  -0.131517  0  3.980999  0
C  C80  1  0.46135259  0.49985586  0.03892876  1  0.071999  0  -0.000436  0.074418  0  3.975076  0
C  C81  1  0.53892448  0.49985847  0.96135760  1  -0.005235  0  -0.000505  0.074364  0  3.975051  0
C  C82  1  0.00097759  0.81196073  0.50097712  1  -0.122081  0  -0.019113  -0.043741  0  3.976982  0
C  C83  1  0.00096900  0.18608311  0.50098162  1  -4.5e-05  0  -0.019066  -0.043569  0  3.976895  0
C  C84  1  0.06352187  0.84968625  0.43740196  1  0.01278  0  -0.082203  -0.084444  0  3.988611  0
C  C85  1  0.06287042  0.92280950  0.43702811  1  -0.020944  0  -0.090063  -0.131397  0  3.980818  0
C  C86  1  0.93739715  0.14938826  0.56352377  1  -0.068818  0  -0.082207  -0.084562  0  3.988825  0
C  C87  1  0.93702278  0.07728938  0.56287470  1  -0.019113  0  -0.090095  -0.131371  0  3.980697  0
C  C88  1  0.06351991  0.14938925  0.43740108  1  -0.068012  0  -0.082147  -0.08439  0  3.988398  0
C  C89  1  0.06286655  0.07729050  0.43703087  1  -0.019631  0  -0.090151  -0.131509  0  3.98108  0
C  C90  1  0.93739927  0.84968648  0.56352263  1  0.012888  0  -0.082219  -0.084478  0  3.988517  0
C  C91  1  0.93702623  0.92280796  0.56287151  1  -0.021164  0  -0.090086  -0.131455  0  3.980801  0
C  C92  1  0.99985446  0.96135584  0.49986037  1  -0.026553  0  -0.000447  0.074401  0  3.975043  0
C  C93  1  0.99985733  0.03892725  0.49985675  1  -0.095851  0  -0.00048  0.074411  0  3.975024  0
C  C94  1  0.31196274  0.18608290  0.50097959  1  -0.04304  0  -0.019079  -0.043713  0  3.97686  0
C  C95  1  0.68608067  0.81196233  0.50097705  1  -0.042679  0  -0.019079  -0.043605  0  3.976731  0
C  C96  1  0.34968643  0.14938885  0.43740048  1  -0.009355  0  -0.082217  -0.084488  0  3.988412  0
C  C97  1  0.42280782  0.07728946  0.43703048  1  -0.051013  0  -0.090115  -0.131457  0  3.981034  0
C  C98  1  0.64938679  0.84968724  0.56352306  1  -0.027499  0  -0.082212  -0.084538  0  3.988518  0
C  C99  1  0.57728938  0.92280851  0.56287156  1  -0.037434  0  -0.09015  -0.131475  0  3.980992  0
C  C100  1  0.64938675  0.84968670  0.43740200  1  -0.009486  0  -0.082173  -0.084486  0  3.98859  0
C  C101  1  0.57728783  0.92280959  0.43702761  1  -0.05121  0  -0.090125  -0.131385  0  3.980852  0
C  C102  1  0.34968660  0.14938848  0.56352296  1  -0.02725  0  -0.082209  -0.084488  0  3.988705  0
C  C103  1  0.42280863  0.07728973  0.56287382  1  -0.037332  0  -0.090043  -0.131319  0  3.980752  0
C  C104  1  0.46135303  0.03892711  0.49985768  1  0.072211  0  -0.000498  0.074319  0  3.975228  0
C  C105  1  0.53892492  0.96135579  0.49986050  1  -0.005015  0  -0.000468  0.074385  0  3.975131  0
C  C106  1  0.00097595  0.50097616  0.81196352  1  -0.122008  0  -0.019141  -0.043801  0  3.977017  0
C  C107  1  0.00097068  0.50097988  0.18608426  1  -6.9e-05  0  -0.019094  -0.043612  0  3.976965  0
C  C108  1  0.93740064  0.56352033  0.84968827  1  0.012954  0  -0.082185  -0.084339  0  3.988509  0
C  C109  1  0.93702698  0.56287139  0.92280937  1  -0.021061  0  -0.090083  -0.131408  0  3.980781  0
C  C110  1  0.06352177  0.43739971  0.14939046  1  -0.06807  0  -0.082199  -0.084488  0  3.988389  0
C  C111  1  0.06286854  0.43702908  0.07729146  1  -0.019619  0  -0.090124  -0.131438  0  3.980939  0
C  C112  1  0.93739934  0.56352207  0.14938900  1  -0.068893  0  -0.082153  -0.084421  0  3.988764  0
C  C113  1  0.93702473  0.56287282  0.07729001  1  -0.019161  0  -0.090078  -0.131392  0  3.980722  0
C  C114  1  0.06352251  0.43739845  0.84968788  1  0.01295  0  -0.082189  -0.084396  0  3.988477  0
C  C115  1  0.06287110  0.43702587  0.92281100  1  -0.021051  0  -0.090069  -0.131344  0  3.980736  0
C  C116  1  0.99985683  0.49985716  0.96135729  1  -0.089487  0  -0.000482  0.074309  0  3.975152  0
C  C117  1  0.99985858  0.49985559  0.03892846  1  -0.032754  0  -0.000477  0.074358  0  3.975201  0
C  C118  1  0.00097609  0.81196059  0.18608409  1  -0.042707  0  -0.01909  -0.043727  0  3.97691  0
C  C119  1  0.00097218  0.18608389  0.81196444  1  -0.042808  0  -0.019103  -0.043649  0  3.97686  0
C  C120  1  0.93740028  0.84968616  0.14938979  1  -0.009531  0  -0.082226  -0.084455  0  3.988546  0
C  C121  1  0.93702657  0.92280727  0.07729232  1  -0.050703  0  -0.090096  -0.131439  0  3.980846  0
C  C122  1  0.06352122  0.14938877  0.84968856  1  -0.027476  0  -0.082186  -0.084493  0  3.988445  0
C  C123  1  0.06286851  0.07729036  0.92281090  1  -0.037455  0  -0.090138  -0.13145  0  3.980978  0
C  C124  1  0.93739871  0.14938858  0.84968920  1  -0.009509  0  -0.082176  -0.084442  0  3.988727  0
C  C125  1  0.93702488  0.07728991  0.92281142  1  -0.051082  0  -0.090088  -0.131392  0  3.980726  0
C  C126  1  0.06352125  0.84968583  0.14938992  1  -0.027157  0  -0.082187  -0.084393  0  3.988652  0
C  C127  1  0.06287093  0.92280844  0.07729162  1  -0.03752  0  -0.090094  -0.131418  0  3.980893  0
C  C128  1  0.99985647  0.96135567  0.03892751  1  0.072095  0  -0.000453  0.074374  0  3.975106  0
C  C129  1  0.99985819  0.03892715  0.96135680  1  -0.005248  0  -0.000486  0.07437  0  3.975152  0
C  C130  1  0.31196255  0.50097539  0.50097409  1  -0.122249  0  -0.019113  -0.043762  0  3.977101  0
C  C131  1  0.68608106  0.50097487  0.50097947  1  0.00019  0  -0.019078  -0.043569  0  3.976778  0
C  C132  1  0.34968663  0.43739899  0.56352206  1  0.012879  0  -0.082198  -0.084418  0  3.988636  0
C  C133  1  0.42280637  0.43702771  0.56287183  1  -0.021202  0  -0.090124  -0.131473  0  3.980977  0
C  C134  1  0.64938668  0.56352139  0.43740285  1  -0.068096  0  -0.082173  -0.084431  0  3.988575  0
C  C135  1  0.57728953  0.56286927  0.43702956  1  -0.019703  0  -0.090115  -0.131426  0  3.980984  0
C  C136  1  0.64938608  0.43739987  0.56352416  1  -0.068942  0  -0.082237  -0.084612  0  3.988733  0
C  C137  1  0.57728744  0.43702645  0.56287300  1  -0.018746  0  -0.090122  -0.131401  0  3.980813  0
C  C138  1  0.34968568  0.56352001  0.43740154  1  0.012891  0  -0.08217  -0.084343  0  3.988741  0
C  C139  1  0.42280801  0.56287113  0.43702758  1  -0.020902  0  -0.090108  -0.131416  0  3.980912  0
C  C140  1  0.46135379  0.49985609  0.49985963  1  -0.026475  0  -0.000421  0.074414  0  3.975029  0
C  C141  1  0.53892508  0.49985794  0.49985798  1  -0.095914  0  -0.000478  0.074412  0  3.975083  0
O  O142  1  0.79358034  0.44249330  0.70252170  1  -1.176628  0  -0.356882  -0.622014  0  2.282303  0
O  O143  1  0.06140260  0.70252045  0.44249428  1  -1.18027  0  -0.356871  -0.622008  0  2.282332  0
O  O144  1  0.20252094  0.56139965  0.29358309  1  -1.174759  0  -0.356893  -0.622024  0  2.282169  0
O  O145  1  0.94249112  0.29358105  0.56140295  1  -1.181957  0  -0.356899  -0.622054  0  2.282119  0
O  O146  1  0.06140004  0.29358398  0.70252113  1  -1.174921  0  -0.356881  -0.62198  0  2.282427  0
O  O147  1  0.79358080  0.56140152  0.44249630  1  -1.182297  0  -0.356884  -0.621978  0  2.282382  0
O  O148  1  0.94249265  0.70251861  0.29358328  1  -1.176921  0  -0.356928  -0.62209  0  2.282321  0
O  O149  1  0.20251925  0.44249121  0.56140334  1  -1.180453  0  -0.356892  -0.621977  0  2.282447  0
O  O150  1  0.94249138  0.56140209  0.70252263  1  -1.180321  0  -0.35689  -0.622009  0  2.282335  0
O  O151  1  0.20252001  0.29358190  0.44249439  1  -1.176671  0  -0.356905  -0.622028  0  2.282336  0
O  O152  1  0.06139960  0.44249173  0.29358503  1  -1.182102  0  -0.356849  -0.621957  0  2.282551  0
O  O153  1  0.79357970  0.70252070  0.56140422  1  -1.175047  0  -0.356911  -0.622018  0  2.282297  0
O  O154  1  0.20252175  0.29357998  0.56140348  1  -1.175239  0  -0.356884  -0.622037  0  2.282313  0
O  O155  1  0.94248980  0.56140020  0.29358294  1  -1.181962  0  -0.356889  -0.622043  0  2.282261  0
O  O156  1  0.79357890  0.70252041  0.44249449  1  -1.176647  0  -0.356941  -0.622052  0  2.282168  0
O  O157  1  0.06140133  0.44249272  0.70252163  1  -1.180282  0  -0.356881  -0.621987  0  2.282373  0
O  O158  1  0.94249227  0.29358158  0.70252265  1  -1.176745  0  -0.356877  -0.621992  0  2.282317  0
O  O159  1  0.20251883  0.56140107  0.44249537  1  -1.180221  0  -0.356857  -0.621926  0  2.282361  0
O  O160  1  0.06140129  0.70251978  0.29358339  1  -1.174936  0  -0.356865  -0.621972  0  2.282326  0
O  O161  1  0.79357875  0.44249337  0.56140569  1  -1.181877  0  -0.356896  -0.622014  0  2.282303  0
O  O162  1  0.06139903  0.29358410  0.44249173  1  -1.182188  0  -0.356834  -0.621931  0  2.282583  0
O  O163  1  0.79358112  0.56140280  0.70252243  1  -1.174928  0  -0.356898  -0.622016  0  2.28241  0
O  O164  1  0.94249204  0.70251997  0.56140365  1  -1.180453  0  -0.35689  -0.62203  0  2.282367  0
O  O165  1  0.20252003  0.44248897  0.29358623  1  -1.177115  0  -0.356935  -0.622052  0  2.282391  0
O  O166  1  0.94789073  0.44789378  0.44789626  1  -1.22925  0  -0.694397  -1.066119  0  2.361353  0
O  O167  1  0.15631588  0.44789426  0.44789480  1  -1.222896  0  -0.694454  -1.066215  0  2.361346  0
O  O168  1  0.94789413  0.65631598  0.44789430  1  -1.223038  0  -0.69444  -1.066205  0  2.361349  0
O  O169  1  0.94789261  0.44789267  0.65631819  1  -1.222858  0  -0.694363  -1.066108  0  2.361417  0
O  O170  1  0.03827743  0.53827951  0.53828281  1  -1.195142  0  -0.791077  -1.148483  0  2.125668  0
O  O171  1  0.88515720  0.53828116  0.53828172  1  -1.193117  0  -0.791013  -1.148545  0  2.125889  0
O  O172  1  0.03827965  0.53827613  0.38516036  1  -1.195297  0  -0.791079  -1.148489  0  2.12568  0
O  O173  1  0.03827974  0.38515903  0.53827971  1  -1.195255  0  -0.790971  -1.148433  0  2.125761  0
