# generated using pymatgen
data_DyH12C20S2N4O9
_symmetry_space_group_name_H-M   'P 1'
_cell_length_a   9.68457678
_cell_length_b   10.53875830
_cell_length_c   12.11593183
_cell_angle_alpha   96.51693132
_cell_angle_beta   91.79855540
_cell_angle_gamma   116.48603351
_symmetry_Int_Tables_number   1
_chemical_formula_structural   DyH12C20S2N4O9
_chemical_formula_sum   'Dy2 H24 C40 S4 N8 O18'
_cell_volume   1094.96712809
_cell_formula_units_Z   2
loop_
 _symmetry_equiv_pos_site_id
 _symmetry_equiv_pos_as_xyz
  1  'x, y, z'
loop_
 _atom_site_type_symbol
 _atom_site_label
 _atom_site_symmetry_multiplicity
 _atom_site_fract_x
 _atom_site_fract_y
 _atom_site_fract_z
 _atom_site_occupancy
 _atom_site_hle17_bader_spin_density
 _atom_site_hle17_ddec_charge
 _atom_site_hle17_ddec_spin_density
 _atom_site_hle17_ddec_sum_bond_order
 _atom_site_hle17_magmom
 _atom_site_hse06_10hf_bader_spin_density
 _atom_site_hse06_10hf_ddec_charge
 _atom_site_hse06_10hf_ddec_spin_density
 _atom_site_hse06_10hf_ddec_sum_bond_order
 _atom_site_hse06_10hf_magmom
 _atom_site_hse06_bader_spin_density
 _atom_site_hse06_ddec_charge
 _atom_site_hse06_ddec_spin_density
 _atom_site_hse06_ddec_sum_bond_order
 _atom_site_hse06_magmom
 _atom_site_pbe_bader_spin_density
 _atom_site_pbe_cm5_charge
 _atom_site_pbe_ddec_charge
 _atom_site_pbe_ddec_spin_density
 _atom_site_pbe_ddec_sum_bond_order
 _atom_site_pbe_magmom
Dy  Dy0  1  0.95069252  0.75019011  0.60641817  1  0  2.217626  0  1.676145  0  0  2.052074  0  2.167376  0  0  2.098793  0  2.128219  0  0  1.550191  2.016218  0  2.198199  0
Dy  Dy1  1  0.04931016  0.24980648  0.39357817  1  0  2.217664  0  1.676098  0  0  2.052059  0  2.167407  0  0  2.09871  0  2.128361  0  0  1.55029  2.016201  0  2.198222  0
H  H2  1  0.73304185  0.16157731  0.08070840  1  0  0.315852  0  0.926532  0  0  0.297958  0  0.985195  0  0  0.306547  0  0.978046  0  0  0.316545  0.291751  0  0.990402  0
H  H3  1  0.26695559  0.83842559  0.91928938  1  0  0.315836  0  0.926588  0  0  0.297932  0  0.985283  0  0  0.306521  0  0.978133  0  0  0.316534  0.291725  0  0.990489  0
H  H4  1  0.65351896  0.46068353  0.66684493  1  0  0.098562  0  0.94034  0  0  0.106575  0  1.001183  0  0  0.109957  0  0.99741  0  0  0.125853  0.104117  0  1.003883  0
H  H5  1  0.34646502  0.53931068  0.33315238  1  0  0.098518  0  0.940283  0  0  0.106542  0  1.001134  0  0  0.109924  0  0.997359  0  0  0.125833  0.104084  0  1.003835  0
H  H6  1  0.44295316  0.37024100  0.79262532  1  0  0.113094  0  0.952295  0  0  0.120253  0  1.016353  0  0  0.123544  0  1.015489  0  0  0.108523  0.117545  0  1.018055  0
H  H7  1  0.55703804  0.62975529  0.20737734  1  0  0.113115  0  0.952413  0  0  0.120276  0  1.016451  0  0  0.12357  0  1.015584  0  0  0.108525  0.117573  0  1.018143  0
H  H8  1  0.42358974  0.54759840  0.94413514  1  0  0.108502  0  0.932736  0  0  0.12036  0  0.990427  0  0  0.12327  0  0.988206  0  0  0.113542  0.118306  0  0.992142  0
H  H9  1  0.57640512  0.45239689  0.05586665  1  0  0.108464  0  0.932638  0  0  0.120305  0  0.990346  0  0  0.123219  0  0.98812  0  0  0.113482  0.118249  0  0.992068  0
H  H10  1  0.96522459  0.25067301  0.97468290  1  0  0.112584  0  0.911014  0  0  0.129839  0  0.95718  0  0  0.132788  0  0.955496  0  0  0.121414  0.127692  0  0.958419  0
H  H11  1  0.03477234  0.74932667  0.02531532  1  0  0.112589  0  0.911067  0  0  0.129847  0  0.957217  0  0  0.132794  0  0.955535  0  0  0.121429  0.127711  0  0.958443  0
H  H12  1  0.18130280  0.30253511  0.85109054  1  0  0.110158  0  0.938122  0  0  0.125101  0  0.987835  0  0  0.127894  0  0.987441  0  0  0.114708  0.122449  0  0.989587  0
H  H13  1  0.81869624  0.69746034  0.14890724  1  0  0.110218  0  0.938123  0  0  0.125162  0  0.987848  0  0  0.127949  0  0.987451  0  0  0.114745  0.12251  0  0.989602  0
H  H14  1  0.18738357  0.10044197  0.72615808  1  0  0.079511  0  0.967446  0  0  0.084218  0  1.038221  0  0  0.087445  0  1.034743  0  0  0.118509  0.081799  0  1.04106  0
H  H15  1  0.81260768  0.89955011  0.27384244  1  0  0.079475  0  0.967432  0  0  0.084162  0  1.038239  0  0  0.087389  0  1.034762  0  0  0.118475  0.081743  0  1.041078  0
H  H16  1  0.34394786  0.77271608  0.20434795  1  0  0.111933  0  0.936551  0  0  0.121321  0  0.994641  0  0  0.125365  0  0.992222  0  0  0.112598  0.11822  0  0.996816  0
H  H17  1  0.65605835  0.22728347  0.79565954  1  0  0.111888  0  0.936586  0  0  0.121287  0  0.99467  0  0  0.125331  0  0.992252  0  0  0.112555  0.118207  0  0.996824  0
H  H18  1  0.20956448  0.80781843  0.36854348  1  0  0.132471  0  0.973679  0  0  0.139536  0  1.033707  0  0  0.144278  0  1.029559  0  0  0.114095  0.136303  0  1.036502  0
H  H19  1  0.79045156  0.19218652  0.63146651  1  0  0.132433  0  0.973751  0  0  0.139504  0  1.033773  0  0  0.144244  0  1.029629  0  0  0.114121  0.13627  0  1.036565  0
H  H20  1  0.53168247  0.25750497  0.41812324  1  0  0.125047  0  0.94642  0  0  0.133996  0  1.005709  0  0  0.137961  0  1.002874  0  0  0.11725  0.131153  0  1.007659  0
H  H21  1  0.46832170  0.74250119  0.58187589  1  0  0.125134  0  0.946349  0  0  0.134086  0  1.005628  0  0  0.138052  0  1.002791  0  0  0.117264  0.131241  0  1.007579  0
H  H22  1  0.67387269  0.66071431  0.44665310  1  0  0.435304  0  0.861731  0  0  0.405604  0  0.922682  0  0  0.415826  0  0.907688  0  0  0.301281  0.398197  0  0.933609  0
H  H23  1  0.32614403  0.33929443  0.55333505  1  0  0.43522  0  0.861831  0  0  0.405595  0  0.922677  0  0  0.415816  0  0.907685  0  0  0.301288  0.398185  0  0.933607  0
H  H24  1  0.72208918  0.53342989  0.42693502  1  0  0.460223  0  0.826727  0  0  0.431007  0  0.8857  0  0  0.440905  0  0.871247  0  0  0.309015  0.423909  0  0.896113  0
H  H25  1  0.27792440  0.46657657  0.57305692  1  0  0.460314  0  0.8266  0  0  0.431092  0  0.885591  0  0  0.440995  0  0.871129  0  0  0.309041  0.423992  0  0.896007  0
C  C26  1  0.64396522  0.53326834  0.73415337  1  0  0.166347  0  3.67951  0  0  0.135686  0  3.933802  0  0  0.144681  0  3.947808  0  0  0.060734  0.130198  0  3.923762  0
C  C27  1  0.35602192  0.46672384  0.26584130  1  0  0.166468  0  3.679414  0  0  0.135767  0  3.933743  0  0  0.144767  0  3.947746  0  0  0.060775  0.130277  0  3.923708  0
C  C28  1  0.52504506  0.48344639  0.80503476  1  0  -0.11416  0  3.711166  0  0  -0.129045  0  3.970648  0  0  -0.135613  0  3.989934  0  0  -0.080729  -0.124768  0  3.958106  0
C  C29  1  0.47494878  0.51655115  0.19496232  1  0  -0.114333  0  3.711326  0  0  -0.129224  0  3.970814  0  0  -0.135796  0  3.990103  0  0  -0.080732  -0.124947  0  3.958275  0
C  C30  1  0.51629051  0.57923857  0.88906303  1  0  -0.014039  0  3.678644  0  0  -0.044305  0  3.934856  0  0  -0.040259  0  3.950762  0  0  -0.057756  -0.046926  0  3.924171  0
C  C31  1  0.48370276  0.42075987  0.11093992  1  0  -0.013745  0  3.678452  0  0  -0.043947  0  3.934601  0  0  -0.039908  0  3.950502  0  0  -0.057617  -0.046571  0  3.923922  0
C  C32  1  0.62863978  0.72355068  0.90277072  1  0  -0.023382  0  3.764089  0  0  -0.013278  0  4.001851  0  0  -0.016884  0  4.026211  0  0  0.002467  -0.010832  0  3.985618  0
C  C33  1  0.37135560  0.27644575  0.09722874  1  0  -0.023496  0  3.764174  0  0  -0.013393  0  4.001961  0  0  -0.01698  0  4.026299  0  0  0.002407  -0.010945  0  3.985729  0
C  C34  1  0.62827200  0.83232027  0.98519974  1  0  0.100951  0  3.845816  0  0  0.091679  0  4.114821  0  0  0.093114  0  4.138873  0  0  0.088941  0.090475  0  4.099249  0
C  C35  1  0.37172181  0.16767718  0.01480064  1  0  0.100879  0  3.845814  0  0  0.091632  0  4.11485  0  0  0.093063  0  4.138896  0  0  0.088977  0.090427  0  4.09928  0
C  C36  1  0.73205857  0.97653384  0.98316402  1  0  0.109088  0  3.805914  0  0  0.08743  0  4.066816  0  0  0.08987  0  4.090605  0  0  0.094312  0.08578  0  4.050761  0
C  C37  1  0.26793372  0.02346045  0.01683430  1  0  0.109191  0  3.805853  0  0  0.08747  0  4.06687  0  0  0.08991  0  4.09066  0  0  0.094341  0.085821  0  4.050817  0
C  C38  1  0.85499786  0.02288680  0.91287228  1  0  -0.027389  0  3.799057  0  0  -0.014712  0  4.040224  0  0  -0.017721  0  4.064294  0  0  0.001928  -0.012612  0  4.024176  0
C  C39  1  0.14499441  0.97710959  0.08712711  1  0  -0.02746  0  3.798869  0  0  -0.014795  0  4.04011  0  0  -0.017806  0  4.064182  0  0  0.001884  -0.012695  0  4.024069  0
C  C40  1  0.97010797  0.16539187  0.91742927  1  0  -0.03512  0  3.68378  0  0  -0.065007  0  3.93802  0  0  -0.062243  0  3.954423  0  0  -0.061943  -0.066685  0  3.926795  0
C  C41  1  0.02988430  0.83460234  0.08257153  1  0  -0.034989  0  3.683648  0  0  -0.064842  0  3.937869  0  0  -0.062078  0  3.954273  0  0  -0.061789  -0.066529  0  3.926649  0
C  C42  1  0.08968983  0.19402544  0.84981173  1  0  -0.103813  0  3.720693  0  0  -0.11632  0  3.975048  0  0  -0.121704  0  3.994682  0  0  -0.075766  -0.112917  0  3.963142  0
C  C43  1  0.91030664  0.80596463  0.15018619  1  0  -0.103831  0  3.720588  0  0  -0.116385  0  3.974982  0  0  -0.121759  0  3.994606  0  0  -0.075835  -0.112982  0  3.963082  0
C  C44  1  0.09252120  0.08068955  0.77844614  1  0  0.15955  0  3.683237  0  0  0.124748  0  3.949069  0  0  0.133137  0  3.962614  0  0  0.056022  0.11883  0  3.940587  0
C  C45  1  0.90747681  0.91930156  0.22155359  1  0  0.159421  0  3.683061  0  0  0.124657  0  3.948894  0  0  0.133049  0  3.962435  0  0  0.055946  0.118739  0  3.940411  0
C  C46  1  0.86422331  0.91431324  0.83622325  1  0  0.140128  0  3.748812  0  0  0.132362  0  3.996682  0  0  0.136382  0  4.017832  0  0  0.121153  0.129555  0  3.982557  0
C  C47  1  0.13577261  0.08568433  0.16377388  1  0  0.13988  0  3.748689  0  0  0.132152  0  3.996586  0  0  0.136175  0  4.017727  0  0  0.120985  0.129345  0  3.982459  0
C  C48  1  0.74618028  0.76594376  0.82747884  1  0  0.137478  0  3.753209  0  0  0.13015  0  4.000371  0  0  0.134453  0  4.022473  0  0  0.117349  0.126993  0  3.985713  0
C  C49  1  0.25381045  0.23404940  0.17252097  1  0  0.137626  0  3.753135  0  0  0.130219  0  4.000405  0  0  0.134514  0  4.022503  0  0  0.117441  0.127061  0  3.985745  0
C  C50  1  0.57915557  0.95567074  0.11881188  1  0  0.325949  0  3.725419  0  0  0.294936  0  4.007293  0  0  0.306784  0  4.02237  0  0  0.218832  0.286792  0  3.997099  0
C  C51  1  0.42084338  0.04433095  0.88119240  1  0  0.325846  0  3.725369  0  0  0.294898  0  4.007174  0  0  0.306742  0  4.022252  0  0  0.218854  0.286759  0  3.996981  0
C  C52  1  0.51146974  0.99312130  0.21596974  1  0  0.020361  0  3.718201  0  0  0.023387  0  3.962086  0  0  0.026668  0  3.981781  0  0  0.009906  0.020625  0  3.949297  0
C  C53  1  0.48853127  0.00687817  0.78403846  1  0  0.020442  0  3.718188  0  0  0.023448  0  3.962063  0  0  0.02673  0  3.981761  0  0  0.00992  0.020677  0  3.949293  0
C  C54  1  0.38314616  0.87915236  0.25136130  1  0  -0.06466  0  3.667988  0  0  -0.086756  0  3.924651  0  0  -0.090104  0  3.942471  0  0  -0.071845  -0.084419  0  3.913223  0
C  C55  1  0.61685695  0.12084718  0.74864530  1  0  -0.064684  0  3.668015  0  0  -0.086803  0  3.924712  0  0  -0.090152  0  3.942532  0  0  -0.071783  -0.084485  0  3.913276  0
C  C56  1  0.30758053  0.89844005  0.34250262  1  0  -0.036821  0  3.685573  0  0  -0.066498  0  3.937531  0  0  -0.063575  0  3.954023  0  0  -0.073862  -0.068687  0  3.926573  0
C  C57  1  0.69242567  0.10156813  0.65750174  1  0  -0.03679  0  3.685593  0  0  -0.066485  0  3.937564  0  0  -0.06356  0  3.954057  0  0  -0.073944  -0.06867  0  3.926606  0
C  C58  1  0.36082919  0.03605486  0.40104070  1  0  -0.115206  0  3.728592  0  0  -0.088512  0  3.981378  0  0  -0.096738  0  4.003425  0  0  -0.013741  -0.08323  0  3.966533  0
C  C59  1  0.63917445  0.96395018  0.59895994  1  0  -0.115239  0  3.728673  0  0  -0.088493  0  3.981393  0  0  -0.096719  0  4.003444  0  0  -0.013794  -0.083212  0  3.966543  0
C  C60  1  0.48860633  0.15146114  0.37015480  1  0  -0.061139  0  3.744518  0  0  -0.103073  0  4.000881  0  0  -0.100491  0  4.02023  0  0  -0.078855  -0.103626  0  3.987298  0
C  C61  1  0.51139883  0.84854922  0.62984732  1  0  -0.061276  0  3.744706  0  0  -0.103238  0  4.001068  0  0  -0.10066  0  4.020417  0  0  -0.078852  -0.10379  0  3.987483  0
C  C62  1  0.56436632  0.13136852  0.27876488  1  0  -0.137888  0  3.638408  0  0  -0.118624  0  3.893525  0  0  -0.125847  0  3.913716  0  0  -0.010255  -0.114132  0  3.88004  0
C  C63  1  0.43563578  0.86863546  0.72123479  1  0  -0.137747  0  3.638568  0  0  -0.118443  0  3.893622  0  0  -0.125663  0  3.913811  0  0  -0.010183  -0.113949  0  3.88014  0
C  C64  1  0.95359876  0.45400661  0.54358480  1  0  0.576097  0  3.937261  0  0  0.527545  0  4.242278  0  0  0.558601  0  4.231351  0  0  0.212286  0.50658  0  4.248754  0
C  C65  1  0.04641125  0.54599027  0.45640431  1  0  0.576095  0  3.937152  0  0  0.527658  0  4.242004  0  0  0.558725  0  4.231065  0  0  0.212463  0.506692  0  4.248481  0
S  S66  1  0.73521482  0.28834809  0.25659482  1  0  1.349076  0  5.592128  0  0  1.247751  0  6.11504  0  0  1.296927  0  6.089407  0  0  0.535961  1.213768  0  6.131184  0
S  S67  1  0.26479865  0.71165800  0.74341111  1  0  1.348852  0  5.592538  0  0  1.247539  0  6.115434  0  0  1.296719  0  6.089807  0  0  0.535768  1.213547  0  6.131579  0
S  S68  1  0.25952001  0.07230955  0.50994023  1  0  1.388673  0  5.538225  0  0  1.29046  0  6.048998  0  0  1.339844  0  6.022165  0  0  0.556132  1.256428  0  6.065818  0
S  S69  1  0.74049090  0.92769772  0.49006001  1  0  1.388589  0  5.538311  0  0  1.290337  0  6.049088  0  0  1.339719  0  6.022259  0  0  0.556187  1.256307  0  6.065898  0
N  N70  1  0.75156172  0.67006029  0.74449100  1  0  -0.45428  0  3.236707  0  0  -0.401476  0  3.506353  0  0  -0.417074  0  3.523646  0  0  -0.391314  -0.390725  0  3.494825  0
N  N71  1  0.24842635  0.32993807  0.25551266  1  0  -0.454388  0  3.23662  0  0  -0.401522  0  3.506288  0  0  -0.417113  0  3.52358  0  0  -0.391411  -0.390772  0  3.494762  0
N  N72  1  0.98257428  0.94534146  0.77018681  1  0  -0.418173  0  3.224133  0  0  -0.368864  0  3.496382  0  0  -0.381969  0  3.51242  0  0  -0.366481  -0.359807  0  3.485598  0
N  N73  1  0.01742109  0.05465490  0.22981513  1  0  -0.417989  0  3.223751  0  0  -0.368678  0  3.495987  0  0  -0.381776  0  3.512016  0  0  -0.366363  -0.359615  0  3.485192  0
N  N74  1  0.53552346  0.82044285  0.07053412  1  0  -0.418868  0  2.922685  0  0  -0.397295  0  3.201116  0  0  -0.409815  0  3.214921  0  0  -0.329577  -0.388477  0  3.191913  0
N  N75  1  0.46447136  0.17955667  0.92946899  1  0  -0.418756  0  2.922689  0  0  -0.397203  0  3.201104  0  0  -0.409722  0  3.21491  0  0  -0.329551  -0.388386  0  3.191904  0
N  N76  1  0.69626818  0.05226791  0.06635890  1  0  -0.358913  0  3.389901  0  0  -0.30132  0  3.623353  0  0  -0.318087  0  3.637746  0  0  -0.375767  -0.289086  0  3.612981  0
N  N77  1  0.30372924  0.94773493  0.93364135  1  0  -0.358965  0  3.390029  0  0  -0.301383  0  3.623513  0  0  -0.318146  0  3.637897  0  0  -0.375889  -0.289147  0  3.613136  0
O  O78  1  0.74567964  0.40402744  0.33990099  1  0  -0.657073  0  2.024605  0  0  -0.596222  0  2.263094  0  0  -0.618735  0  2.249655  0  0  -0.312152  -0.58023  0  2.271946  0
O  O79  1  0.25433754  0.59597135  0.66010004  1  0  -0.657106  0  2.024329  0  0  -0.596272  0  2.262806  0  0  -0.618817  0  2.249386  0  0  -0.312149  -0.580271  0  2.27165  0
O  O80  1  0.86169065  0.24760667  0.27356514  1  0  -0.794528  0  2.127362  0  0  -0.742506  0  2.418307  0  0  -0.765587  0  2.404325  0  0  -0.435421  -0.724998  0  2.427073  0
O  O81  1  0.13831253  0.75239315  0.72643076  1  0  -0.794467  0  2.127253  0  0  -0.742473  0  2.418231  0  0  -0.765559  0  2.404231  0  0  -0.435334  -0.724969  0  2.427006  0
O  O82  1  0.72274965  0.31385752  0.14123193  1  0  -0.633046  0  1.937806  0  0  -0.588078  0  2.173696  0  0  -0.608086  0  2.159936  0  0  -0.329066  -0.573776  0  2.182958  0
O  O83  1  0.27724986  0.68614754  0.85876615  1  0  -0.632895  0  1.93843  0  0  -0.587917  0  2.17431  0  0  -0.607916  0  2.160545  0  0  -0.328972  -0.573611  0  2.183575  0
O  O84  1  0.18829127  0.94493340  0.56619422  1  0  -0.730613  0  2.066604  0  0  -0.676577  0  2.344752  0  0  -0.698308  0  2.33061  0  0  -0.380459  -0.661078  0  2.35363  0
O  O85  1  0.81170558  0.05507469  0.43380911  1  0  -0.730702  0  2.066711  0  0  -0.676584  0  2.34478  0  0  -0.698303  0  2.33064  0  0  -0.380544  -0.661086  0  2.353655  0
O  O86  1  0.13930997  0.09761138  0.45154662  1  0  -0.799528  0  2.130057  0  0  -0.741859  0  2.413188  0  0  -0.765051  0  2.399072  0  0  -0.425285  -0.724291  0  2.4217  0
O  O87  1  0.86069103  0.90239454  0.54845985  1  0  -0.799412  0  2.130216  0  0  -0.741781  0  2.413382  0  0  -0.764961  0  2.399223  0  0  -0.425235  -0.724214  0  2.421892  0
O  O88  1  0.37042295  0.20023462  0.58399599  1  0  -0.653972  0  1.921951  0  0  -0.598087  0  2.152928  0  0  -0.619655  0  2.139625  0  0  -0.31995  -0.582992  0  2.161956  0
O  O89  1  0.62958229  0.79977163  0.41599987  1  0  -0.653934  0  1.921721  0  0  -0.598041  0  2.152716  0  0  -0.619604  0  2.13941  0  0  -0.319962  -0.582947  0  2.161744  0
O  O90  1  0.88974127  0.50721722  0.61051154  1  0  -0.645548  0  2.064336  0  0  -0.598766  0  2.308807  0  0  -0.622085  0  2.299799  0  0  -0.373186  -0.582467  0  2.314638  0
O  O91  1  0.11025108  0.49276641  0.38948554  1  0  -0.645552  0  2.064764  0  0  -0.598828  0  2.309225  0  0  -0.622144  0  2.300218  0  0  -0.373262  -0.582534  0  2.315058  0
O  O92  1  0.94880860  0.33141788  0.54013260  1  0  -0.667972  0  2.094184  0  0  -0.617354  0  2.339998  0  0  -0.640937  0  2.329648  0  0  -0.389062  -0.601084  0  2.346616  0
O  O93  1  0.05119344  0.66859240  0.45987110  1  0  -0.668076  0  2.093813  0  0  -0.617469  0  2.339581  0  0  -0.641068  0  2.329214  0  0  -0.389189  -0.601195  0  2.346199  0
O  O94  1  0.72204281  0.60892608  0.48306983  1  0  -0.928383  0  1.860436  0  0  -0.879398  0  2.048131  0  0  -0.898419  0  2.018494  0  0  -0.647087  -0.865797  0  2.069246  0
O  O95  1  0.27797026  0.39108150  0.51691976  1  0  -0.928376  0  1.860352  0  0  -0.879475  0  2.04798  0  0  -0.898465  0  2.018311  0  0  -0.647125  -0.865863  0  2.069077  0
