# generated using pymatgen
data_Cu2H8C6N4O5
_symmetry_space_group_name_H-M   'P 1'
_cell_length_a   8.14814926
_cell_length_b   16.54830101
_cell_length_c   17.68335052
_cell_angle_alpha   90.00037314
_cell_angle_beta   101.89535207
_cell_angle_gamma   90.00039743
_symmetry_Int_Tables_number   1
_chemical_formula_structural   Cu2H8C6N4O5
_chemical_formula_sum   'Cu16 H64 C48 N32 O40'
_cell_volume   2333.18504526
_cell_formula_units_Z   8
loop_
 _symmetry_equiv_pos_site_id
 _symmetry_equiv_pos_as_xyz
  1  'x, y, z'
loop_
 _atom_site_type_symbol
 _atom_site_label
 _atom_site_symmetry_multiplicity
 _atom_site_fract_x
 _atom_site_fract_y
 _atom_site_fract_z
 _atom_site_occupancy
 _atom_site_pbe_bader_charge
 _atom_site_pbe_bader_spin_density
 _atom_site_pbe_cm5_charge
 _atom_site_pbe_ddec_charge
 _atom_site_pbe_ddec_spin_density
 _atom_site_pbe_ddec_sum_bond_order
 _atom_site_pbe_magmom
Cu  Cu0  1  0.47092873  0.20652786  0.21593978  1  1.00175  0.542797  0.725706  0.703083  0.700362  2.335981  0.542
Cu  Cu1  1  0.52907531  0.70653360  0.28406108  1  1.001706  0.542805  0.725733  0.703147  0.700382  2.335956  0.542
Cu  Cu2  1  0.52908293  0.79347597  0.78407339  1  1.00192  0.542787  0.725715  0.703098  0.700369  2.335853  0.542
Cu  Cu3  1  0.47091762  0.29346963  0.71593164  1  1.001706  0.542793  0.725743  0.703176  0.700379  2.335935  0.542
Cu  Cu4  1  0.27521085  0.10394399  0.33088089  1  1.046637  0.543186  0.735267  0.810894  0.697885  2.229891  0.542
Cu  Cu5  1  0.72479010  0.60395442  0.16911622  1  1.046768  0.543191  0.735223  0.810857  0.697871  2.229858  0.542
Cu  Cu6  1  0.72479704  0.89606468  0.66913305  1  1.046653  0.543206  0.735418  0.811005  0.697916  2.229483  0.542
Cu  Cu7  1  0.27520160  0.39605606  0.83087072  1  1.046769  0.543218  0.735313  0.810858  0.697925  2.229985  0.542
Cu  Cu8  1  0.94574898  0.16738189  0.52520086  1  1.004929  0.455326  0.752328  0.719495  0.588173  2.410615  0.454
Cu  Cu9  1  0.05424304  0.66738555  0.97480144  1  1.005  0.455295  0.7523  0.719537  0.588126  2.410553  0.454
Cu  Cu10  1  0.05425642  0.83260986  0.47481001  1  1.004679  0.455306  0.752289  0.719515  0.588145  2.410736  0.454
Cu  Cu11  1  0.94574489  0.33260499  0.02518683  1  1.004776  0.455301  0.752313  0.719585  0.588133  2.410809  0.454
Cu  Cu12  1  0.08642224  0.08447890  0.69967565  1  1.003525  -0.420573  0.716747  0.750363  -0.562388  2.281906  -0.422
Cu  Cu13  1  0.91357456  0.58447455  0.80032830  1  1.003313  -0.420535  0.716729  0.750397  -0.562341  2.281852  -0.422
Cu  Cu14  1  0.91357815  0.91552071  0.30033248  1  1.003426  -0.420542  0.716642  0.750237  -0.56235  2.282081  -0.422
Cu  Cu15  1  0.08642217  0.41552143  0.19965686  1  1.003605  -0.420539  0.716642  0.750215  -0.562339  2.281988  -0.422
H  H16  1  0.22264738  0.23116036  0.26389592  1  0.43364  0.001936  0.264867  0.254938  0.002816  1.040552  0.001
H  H17  1  0.77736087  0.73116840  0.23610492  1  0.433445  0.001938  0.264865  0.254868  0.002818  1.040468  0.001
H  H18  1  0.77737181  0.76885496  0.73611797  1  0.432899  0.001945  0.264814  0.254758  0.002817  1.04071  0.001
H  H19  1  0.22263332  0.26884208  0.76388678  1  0.4331  0.001943  0.264865  0.254843  0.002818  1.040615  0.001
H  H20  1  0.21072732  0.16625276  0.61295533  1  0.421599  -0.000663  0.26974  0.250604  -0.000554  1.031286  -0.001
H  H21  1  0.78926720  0.66625342  0.88704325  1  0.421574  -0.000663  0.269771  0.25063  -0.000554  1.031295  -0.001
H  H22  1  0.78927681  0.83373416  0.38705938  1  0.421342  -0.000663  0.269685  0.250528  -0.000554  1.03141  -0.001
H  H23  1  0.21072829  0.33373288  0.11293557  1  0.421345  -0.000663  0.269688  0.250593  -0.000554  1.031419  -0.001
H  H24  1  0.63506468  0.04526862  0.19926661  1  0.641948  -0.0003  0.283345  0.380982  -0.000343  0.95698  0.0
H  H25  1  0.36493148  0.54526729  0.30072515  1  0.641936  -0.0003  0.283265  0.380813  -0.000343  0.957202  0.0
H  H26  1  0.36491943  0.95474548  0.80073431  1  0.641763  -0.0003  0.283266  0.380813  -0.000343  0.957195  0.0
H  H27  1  0.63508528  0.45473836  0.69926985  1  0.641671  -0.0003  0.283266  0.380845  -0.000343  0.957187  0.0
H  H28  1  0.53081051  0.07052938  0.11890462  1  0.597767  -8.4e-05  0.311062  0.388145  -6.9e-05  0.899917  0.0
H  H29  1  0.46918484  0.57053619  0.38108665  1  0.597962  -8.4e-05  0.310968  0.388009  -6.9e-05  0.8998  0.0
H  H30  1  0.46913720  0.92947325  0.88109903  1  0.598135  -8.4e-05  0.311101  0.388153  -6.9e-05  0.899866  0.0
H  H31  1  0.53086454  0.42946341  0.61890695  1  0.598269  -8.4e-05  0.311076  0.388107  -6.9e-05  0.899747  0.0
H  H32  1  0.21571733  0.14721059  0.86403454  1  0.612407  0.000103  0.307267  0.402868  0.000123  0.892512  0.0
H  H33  1  0.78430316  0.64721193  0.63597319  1  0.612386  0.000103  0.307294  0.402961  0.000123  0.892328  0.0
H  H34  1  0.78430560  0.85280533  0.13598366  1  0.612386  0.000103  0.307338  0.402914  0.000123  0.892411  0.0
H  H35  1  0.21570108  0.35280641  0.36401495  1  0.612424  0.000103  0.307344  0.402981  0.000123  0.892316  0.0
H  H36  1  0.33276340  0.12072148  0.81088509  1  0.611702  9.3e-05  0.28263  0.362823  0.000125  0.975708  0.0
H  H37  1  0.66726414  0.62071856  0.68912372  1  0.611454  9.3e-05  0.28264  0.362855  0.000125  0.975657  0.0
H  H38  1  0.66725201  0.87928296  0.18913296  1  0.611309  9.3e-05  0.2828  0.363167  0.000125  0.975264  0.0
H  H39  1  0.33274764  0.37928225  0.31086175  1  0.611218  9.3e-05  0.282809  0.363186  0.000125  0.975252  0.0
H  H40  1  0.00294697  0.17874645  0.17426157  1  0.054544  0.007024  0.109696  0.084664  0.003519  0.957984  0.004
H  H41  1  0.99705908  0.67875343  0.32573987  1  0.054445  0.007022  0.109669  0.084641  0.003518  0.957952  0.004
H  H42  1  0.99706846  0.82127068  0.82575140  1  0.054364  0.007026  0.109704  0.084659  0.00352  0.957815  0.004
H  H43  1  0.00293762  0.32125464  0.67425037  1  0.054305  0.007025  0.109693  0.084633  0.003519  0.957871  0.004
H  H44  1  0.24309982  0.03985641  0.16015828  1  0.094943  -7.8e-05  0.109181  0.137057  -8.3e-05  0.990294  0.0
H  H45  1  0.75689877  0.53985966  0.33982858  1  0.094772  -7.9e-05  0.109238  0.137136  -8.3e-05  0.990106  0.0
H  H46  1  0.75689803  0.96015770  0.83985696  1  0.095029  -7.9e-05  0.109125  0.136994  -8.3e-05  0.99034  0.0
H  H47  1  0.24310802  0.46014478  0.66015019  1  0.094875  -7.9e-05  0.109173  0.137074  -8.3e-05  0.990181  0.0
H  H48  1  0.03908320  0.05162202  0.10037908  1  0.089477  -0.000229  0.110403  0.14373  -0.000136  0.958897  0.0
H  H49  1  0.96091307  0.55162153  0.39961160  1  0.089557  -0.000229  0.110411  0.14375  -0.000136  0.959034  0.0
H  H50  1  0.96091213  0.94839148  0.89963875  1  0.090027  -0.00023  0.110411  0.143632  -0.000136  0.958623  0.0
H  H51  1  0.03908743  0.44837867  0.60036827  1  0.089997  -0.00023  0.110433  0.143747  -0.000136  0.958719  0.0
H  H52  1  0.55297447  0.12811184  0.49399300  1  0.140691  0.000688  0.135971  0.098788  0.000192  1.024426  0.001
H  H53  1  0.44700809  0.62811781  0.00600419  1  0.14048  0.000688  0.136002  0.098707  0.000192  1.024548  0.001
H  H54  1  0.44703093  0.87189803  0.50601675  1  0.140796  0.000688  0.13597  0.098781  0.000192  1.024407  0.001
H  H55  1  0.55297104  0.37189750  0.99398664  1  0.140697  0.000688  0.135985  0.098837  0.000192  1.024333  0.001
H  H56  1  0.84263574  0.22417062  0.34502249  1  0.149696  0.000715  0.143981  0.112132  0.000262  0.97451  0.001
H  H57  1  0.15736608  0.72417242  0.15498449  1  0.149572  0.000715  0.143942  0.112088  0.000262  0.974544  0.001
H  H58  1  0.15739097  0.77582174  0.65499213  1  0.149652  0.000715  0.143963  0.112221  0.000262  0.974448  0.001
H  H59  1  0.84260550  0.27581389  0.84501240  1  0.149579  0.000715  0.143939  0.112164  0.000262  0.974499  0.001
H  H60  1  0.77786620  0.15109261  0.78238157  1  0.144963  0.000738  0.142751  0.112047  0.000394  0.975327  0.0
H  H61  1  0.22214181  0.65109264  0.71762499  1  0.145084  0.000737  0.142716  0.112067  0.000394  0.975293  0.0
H  H62  1  0.22211789  0.84890277  0.21762217  1  0.14499  0.000738  0.142713  0.112035  0.000394  0.97524  0.0
H  H63  1  0.77787492  0.34890334  0.28237510  1  0.144789  0.000738  0.142704  0.112061  0.000394  0.975148  0.0
H  H64  1  0.62945668  0.27343773  0.57088349  1  0.164441  -0.00037  0.14539  0.118929  -0.000297  0.96696  0.0
H  H65  1  0.37053848  0.77344454  0.92912316  1  0.164232  -0.00037  0.145379  0.118956  -0.000297  0.967013  0.0
H  H66  1  0.37056131  0.72656188  0.42911728  1  0.164425  -0.00037  0.145438  0.119033  -0.000297  0.966973  0.0
H  H67  1  0.62944437  0.22655023  0.07087764  1  0.164171  -0.00037  0.145394  0.119004  -0.000297  0.966983  0.0
H  H68  1  0.15866496  0.99846241  0.56588899  1  0.087874  -0.003299  0.113675  0.084597  -0.001795  0.963111  -0.002
H  H69  1  0.84131923  0.49846243  0.93411008  1  0.087904  -0.003298  0.113707  0.084621  -0.001795  0.963161  -0.002
H  H70  1  0.84136053  0.00152692  0.43411702  1  0.088211  -0.003298  0.113696  0.084553  -0.001795  0.963205  -0.002
H  H71  1  0.15863608  0.50152086  0.06587564  1  0.088299  -0.003298  0.113656  0.0845  -0.001795  0.96325  -0.002
H  H72  1  0.45825159  0.11429675  0.60388361  1  0.06988  -3.3e-05  0.106002  0.131863  -7.4e-05  0.990987  0.0
H  H73  1  0.54174576  0.61430028  0.89611718  1  0.069816  -3.3e-05  0.106056  0.131887  -7.4e-05  0.991041  0.0
H  H74  1  0.54176755  0.88569440  0.39614271  1  0.06983  -3.3e-05  0.106005  0.131832  -7.4e-05  0.991172  0.0
H  H75  1  0.45823099  0.38569086  0.10384458  1  0.069814  -3.3e-05  0.106012  0.131912  -7.4e-05  0.991137  0.0
H  H76  1  0.47492431  0.01328268  0.57539206  1  0.114002  0.002573  0.105438  0.135128  0.001325  1.041899  0.002
H  H77  1  0.52506116  0.51329179  0.92461150  1  0.116264  0.002571  0.105429  0.135168  0.001324  1.04196  0.002
H  H78  1  0.52510235  0.98670725  0.42463499  1  0.11658  0.00257  0.105408  0.135218  0.001324  1.041873  0.002
H  H79  1  0.47489174  0.48670419  0.07535137  1  0.116878  0.002569  0.1055  0.135318  0.001324  1.04192  0.002
C  C80  1  0.17806731  0.19456744  0.09986120  1  1.557985  0.011271  0.195393  0.55706  0.008861  4.146441  0.009
C  C81  1  0.82192899  0.69456649  0.40013771  1  1.557814  0.011269  0.195342  0.557059  0.00886  4.146363  0.009
C  C82  1  0.82193807  0.80544002  0.90015193  1  1.558608  0.011279  0.195346  0.556955  0.008864  4.146252  0.009
C  C83  1  0.17807398  0.30542888  0.59985371  1  1.558176  0.011272  0.195372  0.557231  0.00886  4.146401  0.009
C  C84  1  0.12879960  0.15601138  0.17151171  1  0.32639  0.005445  -0.013733  0.076675  0.006671  3.904959  -0.001
C  C85  1  0.87120104  0.65601675  0.32848512  1  0.327237  0.005443  -0.013676  0.07674  0.006669  3.905068  -0.001
C  C86  1  0.87120580  0.84399970  0.82849973  1  0.326498  0.005447  -0.013874  0.076818  0.00667  3.904791  -0.001
C  C87  1  0.12880069  0.34398466  0.67150335  1  0.32703  0.005443  -0.013809  0.076729  0.006669  3.904903  -0.001
C  C88  1  0.11631437  0.06455540  0.15759068  1  -0.044366  0.003826  -0.161087  -0.346137  0.001761  3.888604  0.003
C  C89  1  0.88368212  0.56456393  0.34240349  1  -0.044681  0.003825  -0.16119  -0.346281  0.00176  3.88872  0.003
C  C90  1  0.88368347  0.93545508  0.84242738  1  -0.045104  0.003827  -0.160972  -0.345877  0.001761  3.888104  0.003
C  C91  1  0.11632340  0.43543809  0.65757912  1  -0.044894  0.003825  -0.161044  -0.34607  0.001759  3.888128  0.003
C  C92  1  0.04529409  0.01968744  0.21765751  1  1.533375  5.2e-05  0.213873  0.658499  0.000466  4.059089  0.0
C  C93  1  0.95470536  0.51969942  0.28233384  1  1.533099  5.2e-05  0.213819  0.658529  0.000466  4.059289  0.0
C  C94  1  0.95472757  0.98032486  0.78236454  1  1.533782  5.1e-05  0.214038  0.658424  0.000466  4.058902  0.0
C  C95  1  0.04528638  0.48030925  0.71764236  1  1.532921  5.2e-05  0.213823  0.658335  0.000465  4.059449  0.0
C  C96  1  0.59095011  0.15241211  0.44348931  1  0.999388  1e-05  0.144782  0.148723  0.001636  3.967809  0.003
C  C97  1  0.40903665  0.65241589  0.05650956  1  0.999444  7e-06  0.144748  0.148963  0.001636  3.968012  0.003
C  C98  1  0.40906156  0.84759353  0.55652273  1  0.999143  1.3e-05  0.144765  0.148648  0.001637  3.968045  0.003
C  C99  1  0.59093746  0.34758976  0.94348135  1  0.999114  1.3e-05  0.144799  0.148598  0.001637  3.967839  0.003
C  C100  1  0.73738910  0.20149266  0.36737909  1  0.986136  0.000208  0.151633  0.168657  0.001734  3.919368  0.003
C  C101  1  0.26260857  0.70149647  0.13262338  1  0.986287  0.000208  0.151515  0.168428  0.001734  3.919463  0.003
C  C102  1  0.26263260  0.79850392  0.63263391  1  0.986734  0.000206  0.151503  0.168308  0.001735  3.919603  0.003
C  C103  1  0.73736428  0.29849890  0.86736967  1  0.986849  0.000206  0.151572  0.168461  0.001734  3.919553  0.003
C  C104  1  0.77218300  0.17439812  0.72466230  1  0.974157  0.00213  0.146605  0.152719  0.001553  3.956887  0.001
C  C105  1  0.22782670  0.67439917  0.77534343  1  0.9736  0.002127  0.146739  0.152861  0.001552  3.95682  0.001
C  C106  1  0.22782116  0.82559303  0.27534393  1  0.973501  0.002127  0.146731  0.153034  0.001552  3.956728  0.001
C  C107  1  0.77217501  0.32559379  0.22464955  1  0.973737  0.002125  0.146782  0.15297  0.001551  3.956863  0.001
C  C108  1  0.69645620  0.23515431  0.61665837  1  0.992295  -0.00168  0.147942  0.154715  -0.000478  3.951049  0.0
C  C109  1  0.30353953  0.73516058  0.88334753  1  0.992949  -0.001678  0.14797  0.154707  -0.000477  3.951127  0.0
C  C110  1  0.30355925  0.76484107  0.38335007  1  0.992354  -0.001677  0.147859  0.154463  -0.000475  3.951041  0.0
C  C111  1  0.69644336  0.26483237  0.11664478  1  0.99244  -0.001678  0.147843  0.154465  -0.000476  3.950978  0.0
C  C112  1  0.19644255  0.08002469  0.47779752  1  1.571117  -0.005587  0.213821  0.566108  -0.002568  4.098134  -0.005
C  C113  1  0.80354541  0.58003135  0.02220271  1  1.571213  -0.005585  0.213808  0.566153  -0.002567  4.098471  -0.005
C  C114  1  0.80357914  0.91996404  0.52221718  1  1.571984  -0.005587  0.213921  0.566093  -0.002565  4.097713  -0.005
C  C115  1  0.19641494  0.41996221  0.97777839  1  1.572068  -0.005588  0.213904  0.566189  -0.002565  4.097641  -0.005
C  C116  1  0.21871656  0.05805298  0.56375196  1  0.275541  0.005696  -0.015986  0.061498  0.003595  3.911705  0.004
C  C117  1  0.78126973  0.55805516  0.93624912  1  0.275478  0.005693  -0.016028  0.061214  0.003595  3.91225  0.004
C  C118  1  0.78130264  0.94193515  0.43625797  1  0.275618  0.005692  -0.016075  0.061371  0.003595  3.911851  0.004
C  C119  1  0.21869563  0.44193054  0.06373529  1  0.275713  0.005691  -0.01602  0.061362  0.003596  3.911982  0.004
C  C120  1  0.40204761  0.05368741  0.60488143  1  -0.09764  0.005423  -0.170819  -0.35556  0.004187  3.886926  0.004
C  C121  1  0.59794235  0.55368871  0.89512167  1  -0.099541  0.005422  -0.170887  -0.355497  0.004185  3.887298  0.004
C  C122  1  0.59796152  0.94630192  0.39513658  1  -0.100589  0.005426  -0.17087  -0.355714  0.004187  3.887293  0.004
C  C123  1  0.40203684  0.44630002  0.10485333  1  -0.100877  0.005426  -0.170934  -0.355823  0.004186  3.887517  0.004
C  C124  1  0.43406618  0.02997415  0.68978975  1  1.561756  0.000783  0.214013  0.649289  -0.00025  4.0868  0.001
C  C125  1  0.56592586  0.52997354  0.81021510  1  1.561387  0.000783  0.213896  0.649168  -0.00025  4.087061  0.001
C  C126  1  0.56593667  0.97001700  0.31023219  1  1.561526  0.000781  0.214098  0.649444  -0.00025  4.087388  0.001
C  C127  1  0.43405711  0.47002425  0.18975686  1  1.56116  0.00078  0.214115  0.649487  -0.00025  4.087252  0.001
N  N128  1  0.25163002  0.17675776  0.24125906  1  -1.076433  0.322531  -0.641028  -0.682541  0.206385  3.444358  0.258
N  N129  1  0.74836723  0.67676587  0.25873813  1  -1.076323  0.322505  -0.641032  -0.682543  0.20637  3.444404  0.258
N  N130  1  0.74838040  0.82325755  0.75875173  1  -1.075337  0.322503  -0.640993  -0.682345  0.206376  3.444057  0.258
N  N131  1  0.25162570  0.32324461  0.74125402  1  -1.075787  0.322488  -0.641058  -0.682484  0.206365  3.444297  0.258
N  N132  1  0.58526089  0.18699410  0.32476681  1  -0.731882  0.075616  -0.273049  -0.189663  0.051411  3.547786  0.066
N  N133  1  0.41473904  0.68700052  0.17523353  1  -0.731616  0.075618  -0.272963  -0.189418  0.051412  3.547624  0.066
N  N134  1  0.41475704  0.81301095  0.67524696  1  -0.732312  0.075617  -0.27295  -0.189577  0.051409  3.548221  0.066
N  N135  1  0.58524135  0.31300452  0.82475685  1  -0.73227  0.075622  -0.273053  -0.189655  0.051412  3.548011  0.066
N  N136  1  0.49204708  0.15502406  0.37373199  1  -0.748048  0.0757  -0.279396  -0.196084  0.051056  3.575929  0.065
N  N137  1  0.50794726  0.65503046  0.12626649  1  -0.748602  0.075708  -0.279395  -0.196307  0.051059  3.576107  0.065
N  N138  1  0.50796458  0.84498400  0.62628062  1  -0.74784  0.075708  -0.279528  -0.196132  0.051063  3.576323  0.065
N  N139  1  0.49203690  0.34498123  0.87372256  1  -0.747622  0.075707  -0.279475  -0.196076  0.051064  3.576151  0.065
N  N140  1  0.74578319  0.18120928  0.44221639  1  -1.228494  0.050362  -0.385213  -0.3368  0.033775  3.611282  0.043
N  N141  1  0.25420658  0.68121194  0.05778634  1  -1.228144  0.050358  -0.385126  -0.336709  0.033773  3.611316  0.043
N  N142  1  0.25423349  0.81879032  0.55779726  1  -1.228443  0.050364  -0.385039  -0.33658  0.033775  3.611372  0.043
N  N143  1  0.74576501  0.31878524  0.94220659  1  -1.22856  0.050365  -0.385005  -0.336578  0.033776  3.611441  0.043
N  N144  1  0.82863519  0.18994141  0.61139417  1  -0.755114  0.070589  -0.275553  -0.20765  0.04864  3.620779  0.063
N  N145  1  0.17136224  0.68994607  0.88861049  1  -0.755298  0.070583  -0.275576  -0.20769  0.048637  3.620796  0.063
N  N146  1  0.17138022  0.81005215  0.38862106  1  -0.755638  0.070582  -0.275623  -0.207512  0.048637  3.620712  0.063
N  N147  1  0.82862318  0.31005051  0.11137585  1  -0.754478  0.070593  -0.27559  -0.207659  0.048645  3.620917  0.063
N  N148  1  0.87784412  0.15157888  0.68026571  1  -0.739773  -0.055741  -0.272243  -0.201651  -0.04023  3.585708  -0.051
N  N149  1  0.12215764  0.65158290  0.81973800  1  -0.739595  -0.055733  -0.272194  -0.201708  -0.040225  3.585806  -0.051
N  N150  1  0.12216754  0.84841045  0.31974690  1  -0.738738  -0.055749  -0.272059  -0.20185  -0.040237  3.586163  -0.051
N  N151  1  0.87783279  0.34841005  0.18024995  1  -0.739901  -0.055744  -0.272117  -0.201782  -0.040234  3.586312  -0.051
N  N152  1  0.65655282  0.22732407  0.68703924  1  -1.205109  0.050182  -0.374682  -0.330652  0.034012  3.564683  0.043
N  N153  1  0.34344904  0.72733121  0.81296777  1  -1.205167  0.050183  -0.374815  -0.330796  0.034013  3.564761  0.043
N  N154  1  0.34345384  0.77266768  0.31296837  1  -1.205177  0.050184  -0.374789  -0.330727  0.034014  3.564836  0.043
N  N155  1  0.65655391  0.27266175  0.18702929  1  -1.204985  0.050185  -0.374729  -0.330528  0.034013  3.56489  0.043
N  N156  1  0.12785923  0.11840718  0.60044613  1  -1.039368  0.010441  -0.655031  -0.664521  0.005596  3.444741  0.008
N  N157  1  0.87213442  0.61840881  0.89955490  1  -1.039192  0.010426  -0.655071  -0.664547  0.005585  3.444975  0.008
N  N158  1  0.87215370  0.88157792  0.39956320  1  -1.038891  0.01044  -0.654925  -0.664317  0.00559  3.444964  0.008
N  N159  1  0.12784475  0.38157326  0.10042858  1  -1.03941  0.010431  -0.65497  -0.66441  0.00558  3.444962  0.008
O  O160  1  0.61006130  0.09162730  0.16320250  1  -1.241305  -0.00223  -0.591089  -0.767291  -0.001429  2.000564  -0.001
O  O161  1  0.38992315  0.59162810  0.33678786  1  -1.241472  -0.002229  -0.590917  -0.766998  -0.001428  2.000596  -0.001
O  O162  1  0.38991529  0.90837895  0.83679657  1  -1.241486  -0.00223  -0.591107  -0.767187  -0.001429  2.000701  -0.001
O  O163  1  0.61009360  0.40837150  0.66320883  1  -1.24151  -0.00223  -0.591065  -0.767172  -0.001429  2.000519  -0.001
O  O164  1  0.29928097  0.16846055  0.83694864  1  -1.223693  0.001202  -0.594224  -0.766461  0.00034  1.939708  0.001
O  O165  1  0.70076493  0.66846301  0.66307410  1  -1.223431  0.001202  -0.594232  -0.766555  0.00034  1.939493  0.001
O  O166  1  0.70075450  0.83154751  0.16307247  1  -1.223262  0.001202  -0.594431  -0.766748  0.000341  1.939509  0.001
O  O167  1  0.29924303  0.33154687  0.33692288  1  -1.223266  0.001202  -0.594438  -0.766836  0.00034  1.939445  0.001
O  O168  1  0.33032642  0.22310117  0.11025570  1  -1.123196  0.10802  -0.339799  -0.535793  0.069466  2.287748  0.099
O  O169  1  0.66967040  0.72310146  0.38974344  1  -1.123225  0.108026  -0.339764  -0.535746  0.069469  2.287635  0.099
O  O170  1  0.66968151  0.77690085  0.88975146  1  -1.123638  0.108001  -0.339822  -0.535827  0.069454  2.287725  0.099
O  O171  1  0.33033254  0.27689391  0.61025476  1  -1.123419  0.107997  -0.339795  -0.535926  0.069452  2.287765  0.099
O  O172  1  0.07435347  0.19884665  0.03745763  1  -1.172801  0.036044  -0.332377  -0.546401  0.022816  2.150005  0.03
O  O173  1  0.92564290  0.69884950  0.46254188  1  -1.172767  0.036041  -0.332335  -0.546391  0.022814  2.149928  0.03
O  O174  1  0.92565443  0.80115416  0.96255292  1  -1.173228  0.036044  -0.332315  -0.54635  0.022816  2.14982  0.03
O  O175  1  0.07435880  0.30114467  0.53745167  1  -1.173079  0.036029  -0.332398  -0.546497  0.022807  2.150029  0.03
O  O176  1  0.06806835  0.04473681  0.28773202  1  -1.126518  0.083905  -0.330893  -0.555072  0.054808  2.3728  0.076
O  O177  1  0.93194283  0.54475005  0.21226457  1  -1.126781  0.083909  -0.330902  -0.55513  0.054814  2.372838  0.076
O  O178  1  0.93193826  0.95528455  0.71228971  1  -1.126928  0.083916  -0.331058  -0.555171  0.05481  2.372661  0.076
O  O179  1  0.06806016  0.45526950  0.78772006  1  -1.126434  0.083928  -0.330863  -0.55499  0.054822  2.372792  0.076
O  O180  1  0.96314331  0.95478610  0.19833609  1  -1.138581  -0.042597  -0.326099  -0.542282  -0.029217  2.263567  -0.039
O  O181  1  0.03684519  0.45479461  0.30165010  1  -1.138099  -0.042596  -0.326017  -0.542213  -0.029214  2.263775  -0.039
O  O182  1  0.03687961  0.04522257  0.80168664  1  -1.138608  -0.042612  -0.326134  -0.542296  -0.029228  2.263365  -0.039
O  O183  1  0.96314908  0.54520801  0.69832182  1  -1.138445  -0.04259  -0.326141  -0.542333  -0.029215  2.263685  -0.039
O  O184  1  0.29021047  0.04834230  0.43729995  1  -1.146656  0.055617  -0.303542  -0.505831  0.036375  2.33592  0.05
O  O185  1  0.70978446  0.54834349  0.06269850  1  -1.1467  0.055614  -0.30347  -0.505724  0.036373  2.33596  0.05
O  O186  1  0.70982503  0.95166214  0.56271437  1  -1.147304  0.055613  -0.303611  -0.505734  0.036369  2.335555  0.05
O  O187  1  0.29017339  0.45165491  0.93728124  1  -1.147345  0.055623  -0.303585  -0.50574  0.036376  2.335655  0.05
O  O188  1  0.08052020  0.13067854  0.45044203  1  -1.106898  0.082033  -0.316691  -0.515068  0.052971  2.340445  0.076
O  O189  1  0.91945362  0.63069484  0.04955716  1  -1.10697  0.08203  -0.316696  -0.51507  0.052969  2.34056  0.076
O  O190  1  0.91949395  0.86930414  0.54957760  1  -1.107206  0.082029  -0.316706  -0.515128  0.052966  2.340315  0.076
O  O191  1  0.08050299  0.36930234  0.95041793  1  -1.107379  0.082031  -0.31674  -0.515185  0.052967  2.340266  0.076
O  O192  1  0.31337016  0.03541935  0.72864519  1  -1.144336  -0.06568  -0.333359  -0.567194  -0.04457  2.350965  -0.061
O  O193  1  0.68662323  0.53541465  0.77136039  1  -1.144093  -0.065677  -0.333263  -0.567089  -0.044569  2.351135  -0.061
O  O194  1  0.68662517  0.96457965  0.27137377  1  -1.143491  -0.065677  -0.333292  -0.567124  -0.044568  2.351138  -0.061
O  O195  1  0.31337351  0.46457710  0.22861855  1  -1.143169  -0.065673  -0.333258  -0.567101  -0.044566  2.350976  -0.061
O  O196  1  0.57682439  0.00682771  0.72198156  1  -1.174442  -0.013107  -0.31354  -0.564401  -0.008818  2.230284  -0.011
O  O197  1  0.42317227  0.50682459  0.77802020  1  -1.174539  -0.013109  -0.313527  -0.564413  -0.008819  2.230387  -0.011
O  O198  1  0.42317469  0.99316162  0.27804058  1  -1.174808  -0.013112  -0.31368  -0.564577  -0.008821  2.230417  -0.011
O  O199  1  0.57681950  0.49317138  0.22194865  1  -1.174655  -0.01311  -0.313753  -0.564665  -0.00882  2.230364  -0.011
