# generated using pymatgen
data_FeNiH5C8IN6O
_symmetry_space_group_name_H-M   'P 1'
_cell_length_a   7.28634632
_cell_length_b   12.34279609
_cell_length_c   12.85004148
_cell_angle_alpha   89.98535537
_cell_angle_beta   90.05613156
_cell_angle_gamma   89.99404220
_symmetry_Int_Tables_number   1
_chemical_formula_structural   FeNiH5C8IN6O
_chemical_formula_sum   'Fe4 Ni4 H20 C32 I4 N24 O4'
_cell_volume   1155.65357779
_cell_formula_units_Z   4
loop_
 _symmetry_equiv_pos_site_id
 _symmetry_equiv_pos_as_xyz
  1  'x, y, z'
loop_
 _atom_site_type_symbol
 _atom_site_label
 _atom_site_symmetry_multiplicity
 _atom_site_fract_x
 _atom_site_fract_y
 _atom_site_fract_z
 _atom_site_occupancy
 _atom_site_hle17_ddec_charge
 _atom_site_hle17_ddec_spin_density
 _atom_site_hle17_ddec_sum_bond_order
 _atom_site_hle17_magmom
 _atom_site_hse06_10hf_ddec_charge
 _atom_site_hse06_10hf_ddec_spin_density
 _atom_site_hse06_10hf_ddec_sum_bond_order
 _atom_site_hse06_10hf_magmom
 _atom_site_hse06_ddec_charge
 _atom_site_hse06_ddec_spin_density
 _atom_site_hse06_ddec_sum_bond_order
 _atom_site_hse06_magmom
 _atom_site_pbe_cm5_charge
 _atom_site_pbe_ddec_charge
 _atom_site_pbe_ddec_spin_density
 _atom_site_pbe_ddec_sum_bond_order
 _atom_site_pbe_magmom
Fe  Fe0  1  0.24993255  0.54121936  0.14749853  1  1.047543  -4.065076  2.285433  -3.659  0.946789  -3.972824  2.764594  -3.634  0.988128  -3.992231  2.705028  -3.687  0.782968  0.913042  -3.946545  2.80789  -3.573
Fe  Fe1  1  0.74903415  0.95991673  0.65478733  1  1.047745  3.96287  2.269982  3.665  0.947196  3.907231  2.748041  3.645  0.987894  3.930156  2.688623  3.694  0.778994  0.913052  3.876178  2.79162  3.586
Fe  Fe2  1  0.74976637  0.45791444  0.83244307  1  0.69214  0.002364  3.059915  0.002  0.670774  0.001685  3.541763  0.002  0.713048  0.000268  3.4812  0.0  0.807999  0.649284  0.005967  3.575595  0.006
Fe  Fe3  1  0.25103794  0.04113230  0.35310350  1  1.046846  3.954899  2.290158  3.661  0.946605  3.895392  2.768825  3.638  0.987325  3.919897  2.709505  3.689  0.782138  0.91292  3.863042  2.811982  3.577
Ni  Ni4  1  0.75023312  0.80639685  0.20980750  1  0.102234  -0.002453  3.561028  -0.002  0.121902  -0.001755  4.021436  -0.002  0.12444  -0.001193  3.972603  -0.001  0.416191  0.130955  -0.002484  4.047655  -0.002
Ni  Ni5  1  0.24921541  0.69408102  0.71631943  1  0.122507  0.011385  3.494027  0.012  0.133812  0.012805  3.965389  0.013  0.140242  0.007367  3.910136  0.007  0.403145  0.140346  0.021013  3.99643  0.022
Ni  Ni6  1  0.24974330  0.19796168  0.79894363  1  0.117858  0.008702  3.524014  0.009  0.131745  0.010388  3.990225  0.011  0.134828  0.005846  3.940508  0.006  0.411144  0.140275  0.017252  4.017256  0.018
Ni  Ni7  1  0.75089821  0.30657606  0.29037379  1  0.104325  0.001951  3.556278  0.002  0.123862  0.001262  4.017098  0.001  0.126426  0.000795  3.968563  0.001  0.415061  0.13259  0.00201  4.04332  0.002
H  H8  1  0.24852540  0.40664165  0.35495670  1  0.106603  -0.00071  0.929268  -0.002  0.11475  -0.000414  0.990789  -0.001  0.117612  -0.000328  0.989517  -0.001  0.120056  0.112655  -0.000516  0.992069  -0.001
H  H9  1  0.74838546  0.09153778  0.86158492  1  0.108083  0.000741  0.928875  0.002  0.116273  0.000449  0.989681  0.001  0.119309  0.000352  0.988206  0.001  0.121138  0.114036  0.000561  0.991082  0.001
H  H10  1  0.74933277  0.59123178  0.63994793  1  0.120319  -9e-06  0.926801  0.0  0.128447  7e-06  0.98476  0.0  0.129937  -2e-06  0.98434  0.0  0.129601  0.127599  1.2e-05  0.985033  0.0
H  H11  1  0.25129571  0.90926701  0.14343424  1  0.107515  0.000689  0.927645  0.002  0.116469  0.000411  0.987906  0.001  0.11962  0.000326  0.986369  0.001  0.120725  0.11407  0.000514  0.989447  0.001
H  H12  1  0.24883978  0.77780787  0.48253573  1  0.103739  -0.000238  0.935979  0.0  0.111763  -0.00044  0.996306  0.0  0.115041  -0.000365  0.994135  0.0  0.119765  0.10921  -0.000507  0.998378  -0.001
H  H13  1  0.74935192  0.71892123  0.98514058  1  0.108389  0.000141  0.939369  0.0  0.115625  0.000344  0.999165  0.0  0.119176  0.000256  0.996979  0.0  0.121637  0.112827  0.000425  1.001253  0.001
H  H14  1  0.75164135  0.21919811  0.51563896  1  0.10709  -0.000146  0.93803  0.0  0.113857  -0.000134  0.998907  0.0  0.116281  -0.00015  0.997493  0.0  0.121905  0.112137  -0.000111  1.000211  0.0
H  H15  1  0.25216629  0.28221556  0.02074208  1  0.102552  0.000213  0.940856  0.0  0.107561  0.000426  1.006653  0.0  0.111357  0.000344  1.003446  0.0  0.118283  0.104645  0.000506  1.009392  0.001
H  H16  1  0.24978102  0.73775174  0.29164838  1  0.099866  -0.000707  0.950152  -0.002  0.107519  -0.000417  1.011011  -0.001  0.109125  -0.000353  1.011683  -0.001  0.120983  0.106364  -0.000494  1.01077  -0.001
H  H17  1  0.74862016  0.76107817  0.79502426  1  0.101639  0.000637  0.948716  0.002  0.109793  0.000348  1.008711  0.001  0.111402  0.000271  1.009412  0.001  0.122989  0.108674  0.000437  1.008349  0.001
H  H18  1  0.75067141  0.25968222  0.70516983  1  0.111919  -9e-05  0.948824  0.0  0.118744  -8.2e-05  1.007846  0.0  0.119197  -9.9e-05  1.008803  0.0  0.12942  0.118584  -6.6e-05  1.007211  0.0
H  H19  1  0.25212832  0.23934971  0.21099445  1  0.099035  0.000679  0.95249  0.002  0.107027  0.000409  1.01276  0.001  0.108825  0.000349  1.013239  0.001  0.121065  0.105713  0.000482  1.012638  0.001
H  H20  1  0.14490930  0.51611486  0.93743856  1  0.428115  -0.0001  0.837215  0.0  0.406103  -0.00039  0.900602  -0.001  0.412794  -0.000212  0.894157  -0.001  0.315542  0.401405  -0.00057  0.90482  -0.001
H  H21  1  0.85777581  0.97570516  0.44769734  1  0.424805  -0.000213  0.843825  0.0  0.402511  9.7e-05  0.908175  0.001  0.409804  -9.3e-05  0.901056  0.001  0.311354  0.397201  0.000301  0.913201  0.001
H  H22  1  0.64309726  0.47229028  0.04990534  1  0.412554  0.000259  0.852972  0.0  0.392631  0.000233  0.917823  0.0  0.399407  0.000256  0.911632  0.0  0.309155  0.387914  0.000198  0.921931  0.0
H  H23  1  0.35490877  0.02035020  0.56238225  1  0.423811  -0.000199  0.848408  0.0  0.401518  0.000111  0.912509  0.001  0.408748  -8.3e-05  0.904046  0.001  0.310484  0.39629  0.000318  0.917445  0.001
H  H24  1  0.85491011  0.47564909  0.05057235  1  0.411526  0.00026  0.856439  0.0  0.391899  0.000235  0.92095  0.0  0.398675  0.000257  0.914775  0.0  0.308681  0.387174  0.000199  0.925062  0.0
H  H25  1  0.14248669  0.02680687  0.56152644  1  0.425558  -0.000174  0.844145  0.0  0.402974  0.000134  0.909182  0.001  0.410243  -5.9e-05  0.901911  0.001  0.310963  0.397737  0.000341  0.914146  0.001
H  H26  1  0.35700269  0.52345500  0.93768186  1  0.428685  -0.0001  0.834665  0.0  0.406599  -0.000385  0.898823  -0.001  0.413313  -0.000211  0.892275  -0.001  0.31524  0.401886  -0.000563  0.903125  -0.001
H  H27  1  0.64522600  0.98094659  0.44657393  1  0.427039  -0.000229  0.842197  0.0  0.403999  7.8e-05  0.908094  0.001  0.411339  -0.000111  0.90061  0.0  0.311843  0.398646  0.000283  0.913246  0.001
C  C28  1  0.24893105  0.48985205  0.38304872  1  0.049858  0.015227  3.679319  0.023  0.012847  0.007598  3.941705  0.011  0.017419  0.006529  3.956046  0.01  0.039248  0.008418  0.008996  3.9337  0.012
C  C29  1  0.74893760  0.00809560  0.88898640  1  0.050295  -0.016887  3.682044  -0.024  0.0132  -0.008713  3.943285  -0.012  0.017705  -0.007433  3.957836  -0.011  0.039758  0.00892  -0.010274  3.934937  -0.013
C  C30  1  0.74974682  0.50815092  0.61227868  1  0.043191  -6.4e-05  3.624763  0.0  0.004659  -2.4e-05  3.886047  0.0  0.01219  -2.9e-05  3.900843  0.0  0.044296  -0.001563  -4.7e-05  3.877266  0.0
C  C31  1  0.25116526  0.99288087  0.11645075  1  0.052412  -0.015811  3.675258  -0.023  0.015045  -0.008049  3.937315  -0.011  0.01958  -0.00683  3.951458  -0.01  0.040521  0.010718  -0.009525  3.929398  -0.012
C  C32  1  0.24927270  0.51358955  0.48955170  1  0.110056  -0.009368  3.691217  -0.016  0.122502  -0.002966  3.973126  -0.006  0.127189  -0.003724  3.992172  -0.007  0.075564  0.118948  -0.0024  3.961422  -0.006
C  C33  1  0.74987286  0.98333471  0.99519871  1  0.111789  0.009647  3.67959  0.017  0.122894  0.003076  3.962076  0.007  0.127188  0.003998  3.981393  0.007  0.075953  0.119717  0.002348  3.950197  0.006
C  C34  1  0.75000121  0.48345329  0.50612149  1  0.113503  -0.000196  3.683389  0.0  0.123689  -0.000274  3.96826  -0.001  0.127399  -0.000196  3.98716  0.0  0.077946  0.120983  -0.000357  3.956467  -0.001
C  C35  1  0.25063202  0.01799176  0.01017081  1  0.112837  0.009021  3.670661  0.016  0.123974  0.002845  3.953537  0.006  0.128342  0.003716  3.972836  0.007  0.076329  0.120717  0.002109  3.941676  0.006
C  C36  1  0.24909566  0.69445162  0.45444468  1  0.083171  -0.009468  3.682831  -0.015  0.060352  -0.00245  3.941934  -0.005  0.063013  -0.003705  3.95509  -0.006  0.051015  0.057582  -0.001226  3.935283  -0.004
C  C37  1  0.74939292  0.80262747  0.95805363  1  0.081679  0.009563  3.673797  0.016  0.058486  0.002283  3.931163  0.005  0.061425  0.003758  3.943337  0.006  0.051341  0.055452  0.000811  3.925288  0.004
C  C38  1  0.75096445  0.30295559  0.54259522  1  0.083111  -4.3e-05  3.684696  0.0  0.059565  -1.8e-05  3.94327  0.0  0.061373  -5.7e-05  3.956426  0.0  0.052541  0.057512  4.9e-05  3.936296  0.0
C  C39  1  0.25163536  0.19847368  0.04784913  1  0.080301  0.009006  3.679215  0.015  0.055815  0.002203  3.941526  0.005  0.058685  0.00355  3.95366  0.006  0.049398  0.052951  0.000859  3.935503  0.003
C  C40  1  0.24945833  0.67266415  0.34847552  1  0.062349  0.014229  3.693843  0.021  0.033096  0.006909  3.948963  0.01  0.039038  0.006253  3.961894  0.009  0.040808  0.027858  0.007719  3.942137  0.01
C  C41  1  0.74888231  0.82558348  0.85246296  1  0.066498  -0.015488  3.689208  -0.022  0.035674  -0.007643  3.945222  -0.01  0.041553  -0.00691  3.957977  -0.01  0.042049  0.030707  -0.008482  3.938181  -0.011
C  C42  1  0.75052064  0.32452352  0.64833792  1  0.058486  -0.00014  3.646155  0.0  0.028262  -6.4e-05  3.900341  0.0  0.037382  -6.9e-05  3.913087  0.0  0.046231  0.021035  -8e-05  3.893407  0.0
C  C43  1  0.25172192  0.17502995  0.15341795  1  0.066231  -0.014582  3.693236  -0.021  0.037071  -0.007136  3.9473  -0.01  0.043127  -0.00642  3.959943  -0.009  0.041101  0.031824  -0.007929  3.940588  -0.01
C  C44  1  0.57296390  0.38127294  0.22046008  1  0.102818  -0.007243  3.484496  -0.013  0.069483  -0.010675  3.828591  -0.019  0.080402  -0.009342  3.828832  -0.017  0.033816  0.059148  -0.01211  3.827605  -0.021
C  C45  1  0.42570719  0.12102969  0.72973920  1  0.10862  0.006139  3.481968  0.012  0.076019  0.009585  3.82735  0.017  0.086324  0.008112  3.827368  0.015  0.035383  0.066157  0.011274  3.826399  0.02
C  C46  1  0.06542127  0.61324882  0.77643877  1  0.057028  0.000601  3.448153  0.001  0.028266  0.000245  3.794755  0.0  0.040387  0.000111  3.792041  0.0  0.023852  0.016228  0.000558  3.798776  0.001
C  C47  1  0.92795758  0.88136219  0.27962918  1  0.104373  0.006699  3.481309  0.013  0.070983  0.010311  3.824752  0.018  0.081841  0.008982  3.82501  0.016  0.033787  0.060667  0.011749  3.823626  0.021
C  C48  1  0.43388819  0.61337711  0.77603721  1  0.056376  0.00059  3.451086  0.001  0.027769  0.000231  3.797296  0.0  0.039917  0.000121  3.794454  0.0  0.02435  0.015761  0.00054  3.801343  0.001
C  C49  1  0.57334275  0.88128620  0.28021502  1  0.104763  0.006315  3.483661  0.012  0.071204  0.010033  3.827091  0.018  0.082148  0.008721  3.827277  0.016  0.033414  0.060853  0.011504  3.825916  0.02
C  C50  1  0.92759768  0.38126309  0.21956842  1  0.10322  -0.006971  3.481487  -0.013  0.069738  -0.010534  3.825875  -0.018  0.080793  -0.009211  3.825955  -0.016  0.033972  0.059354  -0.012029  3.824883  -0.021
C  C51  1  0.07300962  0.12095852  0.73028820  1  0.109005  0.006411  3.481927  0.013  0.076607  0.009774  3.826746  0.018  0.086911  0.008306  3.826692  0.015  0.036599  0.066725  0.011438  3.825913  0.02
C  C52  1  0.56992634  0.71524402  0.16190046  1  0.111405  -0.008112  3.485216  -0.015  0.082584  -0.011564  3.823417  -0.02  0.089374  -0.009832  3.830401  -0.017  0.033898  0.075421  -0.01355  3.817209  -0.023
C  C53  1  0.42733883  0.78529273  0.66694835  1  0.113346  0.008227  3.481328  0.015  0.085879  0.011314  3.819955  0.02  0.09208  0.009512  3.825535  0.017  0.034464  0.079084  0.013364  3.815055  0.023
C  C54  1  0.06431092  0.29249811  0.83768685  1  0.070956  0.000248  3.440805  0.0  0.04577  0.000105  3.780787  0.0  0.054679  4.9e-05  3.784978  0.0  0.024393  0.037157  0.000357  3.778125  0.001
C  C55  1  0.93112088  0.21564771  0.33877091  1  0.108966  0.007558  3.488095  0.014  0.08043  0.011042  3.825933  0.019  0.087353  0.009389  3.832714  0.017  0.032749  0.07309  0.012966  3.820034  0.022
C  C56  1  0.43570788  0.29238653  0.83715148  1  0.07027  0.000252  3.442861  0.0  0.04513  0.000122  3.783034  0.0  0.053949  3.6e-05  3.787352  0.0  0.024053  0.03653  0.00037  3.780362  0.001
C  C57  1  0.57171476  0.21520728  0.33914927  1  0.110368  0.00799  3.484971  0.015  0.081882  0.011309  3.82221  0.02  0.088792  0.009639  3.829013  0.017  0.033532  0.074567  0.013202  3.81634  0.023
C  C58  1  0.92981838  0.71506545  0.16152152  1  0.112286  -0.008895  3.485208  -0.016  0.083292  -0.012089  3.823304  -0.021  0.090097  -0.010324  3.830323  -0.018  0.034721  0.076086  -0.014035  3.817195  -0.023
C  C59  1  0.06977453  0.78470075  0.66733812  1  0.112869  0.007988  3.483373  0.015  0.085426  0.011198  3.822284  0.02  0.091569  0.009389  3.827945  0.017  0.033534  0.078692  0.013269  3.817262  0.023
I  I60  1  0.25001341  0.38388354  0.59701956  1  0.071291  -0.002874  1.390888  -0.002  0.042129  -0.002899  1.7055  -0.003  0.043253  -0.002251  1.695747  -0.002  0.143682  0.040435  -0.003547  1.713646  -0.003
I  I61  1  0.75127361  0.11235657  0.10337330  1  0.064458  0.002411  1.406722  0.002  0.034176  0.002466  1.722412  0.003  0.035488  0.00187  1.712715  0.002  0.141707  0.032003  0.003172  1.730621  0.003
I  I62  1  0.74942360  0.61259464  0.39833623  1  0.078516  0.000168  1.403391  0.0  0.047014  1e-05  1.718659  0.0  0.046045  4.2e-05  1.709199  0.0  0.152474  0.046906  -0.000119  1.72651  0.0
I  I63  1  0.24944384  0.88894319  0.90181340  1  0.067476  0.002291  1.405407  0.002  0.036987  0.002346  1.724114  0.003  0.03882  0.001819  1.713046  0.002  0.142844  0.034345  0.002926  1.733186  0.003
N  N64  1  0.24921795  0.57015377  0.31248064  1  -0.276361  -0.031303  3.345429  -0.056  -0.217001  -0.022044  3.616232  -0.036  -0.229853  -0.021742  3.630072  -0.035  -0.313272  -0.207072  -0.022327  3.60683  -0.036
N  N65  1  0.74861520  0.92858957  0.81767888  1  -0.277926  0.030911  3.356571  0.057  -0.217819  0.021281  3.628209  0.035  -0.230529  0.02145  3.642186  0.035  -0.316374  -0.207836  0.021068  3.618325  0.035
N  N66  1  0.75004690  0.42780042  0.68391229  1  -0.165539  3.1e-05  3.381141  0.0  -0.116062  7.6e-05  3.648156  0.0  -0.139778  4.1e-05  3.66926  0.0  -0.310903  -0.100362  0.000133  3.633206  0.0
N  N67  1  0.25157727  0.07200606  0.18816612  1  -0.276321  0.029572  3.339928  0.054  -0.216857  0.020831  3.610336  0.035  -0.228944  0.020896  3.623667  0.034  -0.312784  -0.2074  0.020751  3.601213  0.035
N  N68  1  0.24916347  0.61468613  0.52577856  1  -0.270599  0.014432  3.173752  0.027  -0.237842  0.009243  3.449109  0.016  -0.244732  0.00697  3.460069  0.012  -0.292918  -0.2341  0.012062  3.443059  0.021
N  N69  1  0.74994633  0.88170030  0.03028295  1  -0.262681  -0.016154  3.199474  -0.029  -0.22688  -0.010546  3.473506  -0.018  -0.233132  -0.007927  3.48383  -0.014  -0.293663  -0.223815  -0.013618  3.468104  -0.023
N  N70  1  0.75072593  0.38200093  0.47056566  1  -0.263844  1.6e-05  3.200648  0.0  -0.22875  0.000122  3.475954  0.0  -0.234575  4.5e-05  3.486429  0.0  -0.293709  -0.225895  0.000224  3.470379  0.0
N  N71  1  0.25094711  0.11977035  0.97527887  1  -0.264185  -0.01512  3.205513  -0.027  -0.229108  -0.009579  3.482904  -0.016  -0.235404  -0.007199  3.493082  -0.012  -0.294878  -0.226023  -0.012274  3.47732  -0.02
N  N72  1  0.45909751  0.42608136  0.17180972  1  -0.452544  -0.019169  3.04503  -0.021  -0.40105  -0.019936  3.345705  -0.018  -0.420602  -0.016851  3.353916  -0.013  -0.373908  -0.385746  -0.022893  3.339885  -0.022
N  N73  1  0.53801052  0.07501303  0.68090474  1  -0.45739  0.018872  3.029163  0.022  -0.407025  0.019699  3.329581  0.019  -0.425819  0.016762  3.337054  0.014  -0.374039  -0.392084  0.022572  3.324086  0.023
N  N74  1  0.94213185  0.56256616  0.80988051  1  -0.364117  -0.000358  3.231808  -0.001  -0.326682  -0.00014  3.540571  0.0  -0.345505  -9.1e-05  3.548071  0.0  -0.383651  -0.314156  -0.000188  3.534428  0.0
N  N75  1  0.04127277  0.92673440  0.32822554  1  -0.453251  0.019073  3.042658  0.022  -0.401042  0.019871  3.343103  0.018  -0.420521  0.016805  3.351055  0.013  -0.373945  -0.385575  0.02281  3.337306  0.023
N  N76  1  0.55717170  0.56254613  0.80946748  1  -0.36434  -0.000367  3.233897  -0.001  -0.326624  -0.000149  3.542009  0.0  -0.345387  -0.000112  3.549504  0.0  -0.383364  -0.314171  -0.000207  3.535898  0.0
N  N77  1  0.46045897  0.92661664  0.32906262  1  -0.454934  0.019125  3.045869  0.022  -0.402688  0.019735  3.346494  0.018  -0.422125  0.016705  3.35427  0.014  -0.374835  -0.387179  0.02265  3.340631  0.023
N  N78  1  0.04064095  0.42609791  0.17040631  1  -0.453684  -0.019081  3.04387  -0.021  -0.402477  -0.019696  3.345114  -0.018  -0.421962  -0.01664  3.353123  -0.013  -0.374718  -0.387144  -0.022637  3.339186  -0.022
N  N79  1  0.96043555  0.07487091  0.68161352  1  -0.457503  0.018801  3.029091  0.022  -0.406789  0.019784  3.328794  0.019  -0.425585  0.01681  3.336388  0.014  -0.373958  -0.391904  0.022663  3.323416  0.023
N  N80  1  0.45201257  0.65795525  0.13313802  1  -0.443379  -0.022046  3.061938  -0.026  -0.398791  -0.022019  3.371  -0.021  -0.419566  -0.018373  3.382225  -0.016  -0.377397  -0.382102  -0.025596  3.362169  -0.027
N  N81  1  0.54375174  0.84346506  0.63766067  1  -0.44665  0.020827  3.043153  0.026  -0.401973  0.021583  3.349505  0.022  -0.421491  0.017964  3.359785  0.016  -0.376736  -0.386313  0.025122  3.341723  0.027
N  N82  1  0.94035258  0.35187954  0.84994359  1  -0.368233  -0.000204  3.248392  0.0  -0.335913  -9.3e-05  3.563708  0.0  -0.355834  -5e-05  3.573701  0.0  -0.387306  -0.323001  -0.000178  3.555915  0.0
N  N83  1  0.04861307  0.15819429  0.36781714  1  -0.444571  0.021436  3.06194  0.027  -0.39921  0.021684  3.370357  0.022  -0.419626  0.018117  3.38119  0.016  -0.37747  -0.382779  0.025127  3.361915  0.027
N  N84  1  0.55981017  0.35164310  0.84938002  1  -0.365278  -0.000202  3.249241  0.0  -0.33314  -9.2e-05  3.564626  0.0  -0.353136  -2.9e-05  3.574876  0.0  -0.387024  -0.320151  -0.000169  3.556616  0.0
N  N85  1  0.45514133  0.15735902  0.36854193  1  -0.446698  0.021292  3.0596  0.026  -0.401203  0.021791  3.367702  0.022  -0.421627  0.018181  3.37845  0.016  -0.377668  -0.384862  0.025272  3.359492  0.027
N  N86  1  0.04718346  0.65764488  0.13236557  1  -0.444291  -0.021798  3.060315  -0.026  -0.399524  -0.022126  3.369006  -0.021  -0.420347  -0.018402  3.38024  -0.015  -0.377806  -0.382868  -0.025766  3.36035  -0.027
N  N87  1  0.95247041  0.84247175  0.63837517  1  -0.444521  0.020944  3.045125  0.026  -0.400062  0.021535  3.351791  0.022  -0.419643  0.017947  3.36226  0.016  -0.375952  -0.384301  0.025065  3.343743  0.027
O  O88  1  0.25249054  0.50314690  0.98137088  1  -0.786663  -0.019623  1.923888  -0.031  -0.742357  -0.023175  2.13606  -0.035  -0.762868  -0.019391  2.115003  -0.029  -0.556642  -0.725496  -0.02704  2.149455  -0.041
O  O89  1  0.75220664  0.99762758  0.49007793  1  -0.785295  0.020073  1.931435  0.034  -0.739368  0.023481  2.143433  0.037  -0.761165  0.019517  2.121801  0.031  -0.559089  -0.721674  0.027507  2.157667  0.043
O  O90  1  0.74796384  0.50335107  0.01256696  1  -0.728072  9.7e-05  1.841097  0.0  -0.689988  0.000105  2.025788  0.0  -0.714534  0.000161  2.008556  0.0  -0.535598  -0.671489  -1.3e-05  2.036694  0.0
O  O91  1  0.24763666  0.00555458  0.51853478  1  -0.785344  0.020139  1.935012  0.034  -0.740423  0.023663  2.148359  0.037  -0.762076  0.019617  2.125411  0.031  -0.560186  -0.722721  0.027832  2.162483  0.044
