# generated using pymatgen
data_CuH14C15SN2O4F3
_symmetry_space_group_name_H-M   'P 1'
_cell_length_a   7.91322230
_cell_length_b   9.12021862
_cell_length_c   11.12515414
_cell_angle_alpha   88.47284465
_cell_angle_beta   83.39071310
_cell_angle_gamma   83.63621309
_symmetry_Int_Tables_number   1
_chemical_formula_structural   CuH14C15SN2O4F3
_chemical_formula_sum   'Cu2 H28 C30 S2 N4 O8 F6'
_cell_volume   792.57690902
_cell_formula_units_Z   2
loop_
 _symmetry_equiv_pos_site_id
 _symmetry_equiv_pos_as_xyz
  1  'x, y, z'
loop_
 _atom_site_type_symbol
 _atom_site_label
 _atom_site_symmetry_multiplicity
 _atom_site_fract_x
 _atom_site_fract_y
 _atom_site_fract_z
 _atom_site_occupancy
 _atom_site_hle17_ddec_charge
 _atom_site_hle17_ddec_spin_density
 _atom_site_hle17_ddec_sum_bond_order
 _atom_site_hle17_magmom
 _atom_site_hse06_10hf_ddec_charge
 _atom_site_hse06_10hf_ddec_spin_density
 _atom_site_hse06_10hf_ddec_sum_bond_order
 _atom_site_hse06_10hf_magmom
 _atom_site_hse06_ddec_charge
 _atom_site_hse06_ddec_spin_density
 _atom_site_hse06_ddec_sum_bond_order
 _atom_site_hse06_magmom
 _atom_site_pbe_cm5_charge
 _atom_site_pbe_ddec_charge
 _atom_site_pbe_ddec_spin_density
 _atom_site_pbe_ddec_sum_bond_order
 _atom_site_pbe_magmom
Cu  Cu0  1  0.61620208  0.48502211  0.09878867  1  0.847564  0.646621  1.834484  0.463  0.837434  0.762121  2.221945  0.601  0.923347  0.846961  2.159271  0.688  0.730396  0.78379  0.666814  2.265545  0.517
Cu  Cu1  1  0.38379183  0.51497868  0.90121301  1  0.847597  -0.646617  1.834403  -0.463  0.837429  -0.762114  2.221987  -0.601  0.923324  -0.846948  2.159199  -0.688  0.73041  0.78377  -0.666819  2.265513  -0.517
H  H2  1  0.91881526  0.35839441  0.08266970  1  0.307226  -0.000844  0.910099  -0.002  0.300989  -1.9e-05  0.963229  0.0  0.307134  -0.000163  0.959984  -0.001  0.291818  0.296775  6.1e-05  0.965502  0.0
H  H3  1  0.08117940  0.64161078  0.91733364  1  0.307275  0.000845  0.910167  0.002  0.301037  1.9e-05  0.963274  0.0  0.30718  0.000164  0.960036  0.001  0.291848  0.296824  -6.1e-05  0.965545  0.0
H  H4  1  0.81185788  0.27513972  0.19314810  1  0.292344  -0.000656  0.888543  -0.002  0.286916  0.000316  0.945332  0.0  0.291495  8.8e-05  0.944713  -0.001  0.298351  0.283445  0.000567  0.946525  0.0
H  H5  1  0.18813565  0.72486438  0.80685265  1  0.292322  0.000656  0.888594  0.002  0.286892  -0.000317  0.945386  0.0  0.291464  -8.8e-05  0.944791  0.001  0.298342  0.283435  -0.000567  0.946556  0.0
H  H6  1  0.69611180  0.78266653  0.07568895  1  0.087623  0.000409  0.967834  0.001  0.089934  0.000419  1.040829  0.001  0.093932  0.000342  1.036076  0.001  0.112045  0.087299  0.000485  1.043853  0.001
H  H7  1  0.30387904  0.21733869  0.92431468  1  0.087636  -0.000411  0.967893  -0.001  0.089944  -0.000419  1.040886  -0.001  0.093942  -0.000342  1.03614  -0.001  0.112068  0.087303  -0.000485  1.0439  -0.001
H  H8  1  0.83136118  0.95779727  0.19545330  1  0.105981  0.000284  0.963225  0.0  0.114879  0.000295  1.027373  0.0  0.118142  0.00023  1.026486  0.0  0.103709  0.112592  0.000443  1.028239  0.0
H  H9  1  0.16863457  0.04221014  0.80454092  1  0.106009  -0.000285  0.963365  0.0  0.114849  -0.000295  1.027569  0.0  0.118109  -0.00023  1.02669  0.0  0.103706  0.112563  -0.000444  1.028437  0.0
H  H10  1  0.84371998  0.62783454  0.48089872  1  0.130271  0.000311  0.94205  0.0  0.140099  0.000336  0.999963  0.0  0.143247  0.000253  0.999391  0.0  0.115085  0.138119  0.00039  1.000064  0.0
H  H11  1  0.15627953  0.37217282  0.51910239  1  0.130273  -0.000311  0.942091  0.0  0.140125  -0.000336  0.999977  0.0  0.143273  -0.000253  0.999407  0.0  0.115088  0.138142  -0.00039  1.000072  0.0
H  H12  1  0.71673203  0.46492299  0.34805723  1  0.076011  0.000687  0.961528  0.001  0.085481  0.000698  1.026749  0.001  0.086706  0.000525  1.026064  0.001  0.116492  0.083907  0.000753  1.028421  0.001
H  H13  1  0.28326940  0.53507884  0.65194295  1  0.076006  -0.000689  0.9615  -0.001  0.085459  -0.000698  1.026748  -0.001  0.086676  -0.000525  1.026074  -0.001  0.116477  0.083888  -0.000753  1.028424  -0.001
H  H14  1  0.13066324  0.65643526  0.36127963  1  0.088058  1e-05  0.985385  0.0  0.098128  9e-06  1.050244  0.0  0.100711  7e-06  1.049657  0.0  0.097743  0.096306  7e-06  1.050858  0.0
H  H15  1  0.86934179  0.34356876  0.63871573  1  0.08812  -1.1e-05  0.985294  0.0  0.098184  -9e-06  1.050159  0.0  0.100766  -7e-06  1.049572  0.0  0.097754  0.096368  -7e-06  1.050778  0.0
H  H16  1  0.41179460  0.57965981  0.42276775  1  0.090193  -1.3e-05  0.966281  0.0  0.102421  -4e-06  1.026908  0.0  0.104249  -5e-06  1.027212  0.0  0.098768  0.101189  -3e-06  1.026654  0.0
H  H17  1  0.58820789  0.42034423  0.57722691  1  0.09021  1.3e-05  0.966248  0.0  0.102452  4e-06  1.026845  0.0  0.104272  5e-06  1.027171  0.0  0.098763  0.101225  3e-06  1.026594  0.0
H  H18  1  0.54064664  0.73755749  0.56328529  1  0.089612  -3e-06  0.980057  0.0  0.097889  -8e-06  1.047506  0.0  0.10057  -5e-06  1.046521  0.0  0.09329  0.095949  -1e-05  1.048332  0.0
H  H19  1  0.45935289  0.26243885  0.43671335  1  0.089621  3e-06  0.980041  0.0  0.097895  8e-06  1.047494  0.0  0.100579  5e-06  1.046509  0.0  0.093287  0.095955  1e-05  1.048319  0.0
H  H20  1  0.38994175  0.97502538  0.62917243  1  0.087968  -5e-06  0.989767  0.0  0.095451  2e-06  1.057001  0.0  0.098208  -1e-06  1.056608  0.0  0.091604  0.093618  -0.0  1.057235  0.0
H  H21  1  0.61005836  0.02496543  0.37083346  1  0.087949  4e-06  0.989756  0.0  0.095449  -2e-06  1.056963  0.0  0.098206  1e-06  1.056573  0.0  0.09161  0.09361  0.0  1.057189  0.0
H  H22  1  0.68925249  0.12741943  0.07355269  1  0.0654  9.9e-05  0.935723  0.0  0.08087  -9e-05  0.99879  0.0  0.081525  -6.8e-05  0.997794  0.0  0.099045  0.080508  -8.1e-05  0.999114  0.0
H  H23  1  0.31074741  0.87258462  0.92644846  1  0.065358  -0.000101  0.935755  0.0  0.080836  8.9e-05  0.998824  0.0  0.081493  6.8e-05  0.997817  0.0  0.099022  0.080471  8.1e-05  0.99916  0.0
H  H24  1  0.89671294  0.13359005  0.99171031  1  0.053556  0.001024  0.934811  0.001  0.06813  0.000905  1.002856  0.001  0.067665  0.000748  1.003419  0.001  0.092733  0.067904  0.001025  1.00241  0.002
H  H25  1  0.10328682  0.86641510  0.00829173  1  0.053569  -0.001025  0.934775  -0.001  0.068118  -0.000906  1.002858  -0.001  0.067649  -0.000748  1.003425  -0.001  0.092724  0.067891  -0.001025  1.002413  -0.002
H  H26  1  0.77947157  0.33360330  0.85927317  1  0.043234  -0.000286  0.943007  0.0  0.053059  -0.000166  1.013204  0.0  0.051004  -8e-05  1.014684  0.0  0.086283  0.054438  -0.000219  1.012258  0.0
H  H27  1  0.22052551  0.66640298  0.14072905  1  0.043255  0.000286  0.943045  0.0  0.053071  0.000165  1.013244  0.0  0.051017  8e-05  1.014728  0.0  0.086288  0.054445  0.000219  1.012292  0.0
H  H28  1  0.64443052  0.18893847  0.86360499  1  0.052115  0.005088  0.928991  0.006  0.057584  0.002916  1.002884  0.004  0.055602  0.001999  1.003209  0.002  0.087445  0.059439  0.003464  1.002115  0.004
H  H29  1  0.35556761  0.81105899  0.13639374  1  0.052085  -0.005089  0.929057  -0.006  0.057586  -0.002916  1.002878  -0.004  0.055607  -0.001998  1.003203  -0.002  0.087434  0.059436  -0.003463  1.002101  -0.004
C  C30  1  0.73077834  0.75452030  0.16595981  1  0.130961  -0.005387  3.694351  -0.006  0.104958  -0.00104  3.944654  -0.002  0.115322  -0.00183  3.959377  -0.003  0.041639  0.098251  -0.000368  3.934889  -0.001
C  C31  1  0.26922042  0.24548266  0.83404055  1  0.130911  0.005409  3.694549  0.006  0.104907  0.00104  3.944816  0.002  0.11527  0.001831  3.959545  0.003  0.041604  0.098226  0.000369  3.935041  0.001
C  C32  1  0.25875409  0.14332675  0.20101261  1  0.59188  -4.1e-05  3.645821  0.0  0.518116  -4.9e-05  4.019803  0.0  0.547127  -3.1e-05  3.990765  0.0  0.288873  0.497872  -5.4e-05  4.039767  0.0
C  C33  1  0.74123726  0.85666304  0.79898949  1  0.592276  4.3e-05  3.645494  0.0  0.518367  4.9e-05  4.019734  0.0  0.54746  3.3e-05  3.990539  0.0  0.288941  0.498048  5.4e-05  4.03983  0.0
C  C34  1  0.80478085  0.85046944  0.23345955  1  -0.167718  0.007173  3.711559  0.008  -0.183674  0.003295  3.954403  0.004  -0.191141  0.003179  3.972536  0.004  -0.084579  -0.179164  0.003059  3.942777  0.004
C  C35  1  0.19522173  0.14953349  0.76653962  1  -0.167742  -0.00719  3.711766  -0.008  -0.183629  -0.003295  3.954593  -0.004  -0.191095  -0.00318  3.972728  -0.004  -0.084579  -0.179119  -0.003059  3.942973  -0.004
C  C36  1  0.84691130  0.80820070  0.34954907  1  0.126523  -0.006459  3.749226  -0.007  0.135345  -0.002534  3.981743  -0.003  0.142166  -0.002709  4.001648  -0.003  0.02113  0.130802  -0.002248  3.968643  -0.002
C  C37  1  0.15309372  0.19180332  0.65044809  1  0.126539  0.006476  3.749111  0.007  0.13532  0.002534  3.981714  0.003  0.142142  0.00271  4.001617  0.003  0.021178  0.130791  0.002249  3.968618  0.002
C  C38  1  0.81327260  0.66680411  0.39154914  1  -0.148208  0.006973  3.662353  0.007  -0.162096  0.003164  3.903661  0.004  -0.170206  0.003097  3.922458  0.004  -0.071822  -0.156827  0.002924  3.890426  0.003
C  C39  1  0.18672986  0.33319992  0.60845001  1  -0.14821  -0.006992  3.662433  -0.007  -0.162114  -0.003163  3.90381  -0.004  -0.170225  -0.003097  3.922605  -0.004  -0.071855  -0.156833  -0.002923  3.890571  -0.003
C  C40  1  0.74140175  0.57594781  0.31811741  1  0.145529  -0.005768  3.693767  -0.006  0.114699  -0.001303  3.950981  -0.002  0.12467  -0.002045  3.968212  -0.003  0.051539  0.108489  -0.000719  3.939616  -0.001
C  C41  1  0.25859827  0.42405514  0.68188286  1  0.145529  0.005787  3.693792  0.006  0.114684  0.001305  3.951067  0.002  0.124661  0.002046  3.968304  0.003  0.051536  0.108474  0.000719  3.939717  0.001
C  C42  1  0.92524043  0.90741730  0.42481367  1  -0.038437  0.001876  3.693325  0.002  -0.037179  0.00059  3.939279  0.001  -0.038871  0.000649  3.959968  0.001  -0.004056  -0.036911  0.000488  3.925497  0.001
C  C43  1  0.07476264  0.09258122  0.57518735  1  -0.038341  -0.001879  3.693227  -0.002  -0.037116  -0.000592  3.939198  -0.001  -0.038807  -0.000648  3.959887  -0.001  -0.004054  -0.036863  -0.000488  3.925427  -0.001
C  C44  1  0.08724756  0.86085156  0.46281660  1  0.034258  -0.000866  3.75292  -0.001  0.041166  -0.000294  3.99002  0.0  0.041577  -0.000331  4.012426  0.0  -0.004125  0.040564  -0.00023  3.974994  0.0
C  C45  1  0.91275386  0.13915027  0.53718448  1  0.034348  0.000864  3.752826  0.001  0.041359  0.000294  3.9898  0.0  0.04177  0.000331  4.012205  0.0  -0.004017  0.040762  0.00023  3.97478  0.0
C  C46  1  0.18362704  0.72621229  0.42193015  1  -0.096772  0.000505  3.725872  0.001  -0.114372  8.4e-05  3.969018  0.0  -0.116374  0.000129  3.989826  0.0  -0.088856  -0.113359  -2e-05  3.955498  0.0
C  C47  1  0.81637558  0.27379065  0.57806363  1  -0.096826  -0.000498  3.72583  -0.001  -0.114456  -8.3e-05  3.968958  0.0  -0.116456  -0.00013  3.989761  0.0  -0.088864  -0.113453  1.9e-05  3.955459  0.0
C  C48  1  0.34238767  0.68288191  0.45684270  1  -0.073428  -0.00067  3.783004  -0.001  -0.08588  -0.00019  4.028265  0.0  -0.088232  -0.000224  4.050813  0.0  -0.096428  -0.084672  -0.000163  4.013556  0.0
C  C49  1  0.65761774  0.31711880  0.54315270  1  -0.073478  0.000665  3.782828  0.001  -0.085919  0.000189  4.028104  0.0  -0.088276  0.000225  4.050652  0.0  -0.096401  -0.084706  0.000163  4.013408  0.0
C  C50  1  0.41511495  0.77246420  0.53495966  1  -0.070852  0.000642  3.782087  0.001  -0.086136  0.000149  4.03426  0.0  -0.0878  0.000186  4.056005  0.0  -0.099136  -0.084308  9.9e-05  4.019832  0.0
C  C51  1  0.58488484  0.22752994  0.46503810  1  -0.070892  -0.000635  3.782013  -0.001  -0.086187  -0.000149  4.034196  0.0  -0.087852  -0.000186  4.055942  0.0  -0.099163  -0.084363  -0.0001  4.019762  0.0
C  C52  1  0.32855578  0.90464196  0.57407682  1  -0.1226  -0.000503  3.745814  -0.001  -0.140773  -0.000103  3.997217  0.0  -0.143712  -0.000143  4.018451  0.0  -0.100943  -0.139165  -3.7e-05  3.982905  0.0
C  C53  1  0.67144791  0.09535103  0.42592606  1  -0.122511  0.000496  3.745782  0.001  -0.140691  0.000103  3.997174  0.0  -0.143631  0.000143  4.018406  0.0  -0.100922  -0.139066  3.8e-05  3.982836  0.0
C  C54  1  0.83725850  0.04592347  0.45986669  1  0.033852  -0.000861  3.756069  -0.001  0.037372  -0.000288  3.997578  0.0  0.037872  -0.000324  4.020219  0.0  -0.006326  0.038228  -0.000174  3.981553  0.0
C  C55  1  0.16274085  0.95407396  0.54013913  1  0.033868  0.000866  3.756123  0.001  0.037427  0.000288  3.997636  0.0  0.037927  0.000324  4.020281  0.0  -0.006251  0.038288  0.000174  3.981622  0.0
C  C56  1  0.77557878  0.19968728  0.02357770  1  0.043401  -0.007483  3.632216  -0.01  -0.017324  -0.003004  3.910799  -0.005  -0.01274  -0.002365  3.922521  -0.004  -0.08553  -0.01941  -0.003337  3.901951  -0.005
C  C57  1  0.22441986  0.80031679  0.97642085  1  0.043443  0.007483  3.632306  0.01  -0.017303  0.003004  3.910898  0.005  -0.012711  0.002367  3.922618  0.004  -0.085529  -0.019379  0.00334  3.902029  0.005
C  C58  1  0.68852212  0.27288940  0.91863358  1  0.102339  -0.002298  3.697919  -0.003  0.055746  -0.000562  3.982596  -0.001  0.068653  -0.00059  3.99596  -0.001  -0.097187  0.046222  -0.000375  3.973212  -0.001
C  C59  1  0.31147703  0.72711025  0.08136502  1  0.10227  0.0023  3.698016  0.003  0.055697  0.000569  3.982662  0.001  0.068597  0.000588  3.99603  0.001  -0.097204  0.046172  0.000374  3.973268  0.001
S  S60  1  0.21210690  0.34805047  0.21654562  1  1.128422  -7.8e-05  5.824046  0.0  1.030709  -5e-05  6.366224  0.0  1.077133  -4.5e-05  6.341197  0.0  0.489442  0.999348  -5.1e-05  6.38196  0.0
S  S61  1  0.78790825  0.65194243  0.78345637  1  1.127802  7.8e-05  5.824827  0.0  1.030161  5.7e-05  6.367019  0.0  1.076564  4.7e-05  6.341982  0.0  0.489206  0.998821  5.1e-05  6.382767  0.0
N  N62  1  0.80355729  0.31694175  0.10749300  1  -0.597665  0.078667  3.125112  0.097  -0.578037  0.057728  3.400298  0.075  -0.60767  0.048812  3.402167  0.067  -0.639402  -0.559248  0.058618  3.399877  0.073
N  N63  1  0.19643739  0.68306344  0.89250764  1  -0.597739  -0.07867  3.125323  -0.097  -0.57809  -0.05773  3.40054  -0.075  -0.607701  -0.048818  3.402332  -0.067  -0.639426  -0.55928  -0.058617  3.400101  -0.073
N  N64  1  0.69932108  0.61887278  0.20777895  1  -0.314857  0.055493  3.363105  0.07  -0.262434  0.04387  3.65854  0.059  -0.290207  0.038764  3.674547  0.054  -0.361841  -0.245386  0.043433  3.649171  0.057
N  N65  1  0.30067396  0.38112910  0.79222353  1  -0.314864  -0.05551  3.363157  -0.07  -0.262388  -0.043873  3.658559  -0.059  -0.29016  -0.038766  3.674536  -0.054  -0.361804  -0.245331  -0.043427  3.649165  -0.057
O  O66  1  0.54796571  0.36879316  0.97131008  1  -0.589196  0.027315  2.160196  0.035  -0.581074  0.012843  2.511046  0.018  -0.64164  0.010521  2.515683  0.015  -0.410337  -0.539616  0.012042  2.507186  0.016
O  O67  1  0.45203484  0.63120538  0.02868843  1  -0.589133  -0.027314  2.160193  -0.035  -0.581036  -0.01285  2.511047  -0.018  -0.641603  -0.010525  2.515691  -0.015  -0.410319  -0.53958  -0.012046  2.507188  -0.016
O  O68  1  0.37467926  0.39424776  0.24286423  1  -0.615014  -0.001368  2.02094  0.0  -0.59136  -0.001293  2.300013  -0.001  -0.611261  -0.001303  2.282694  -0.001  -0.332588  -0.57778  -0.001195  2.311864  -0.001
O  O69  1  0.62534304  0.60572745  0.75713486  1  -0.614734  0.001365  2.021208  0.0  -0.591077  0.00129  2.300162  0.001  -0.61097  0.001303  2.282833  0.001  -0.332469  -0.57749  0.001194  2.312001  0.001
O  O70  1  0.07532748  0.36203078  0.31630075  1  -0.598267  -0.000126  1.97842  0.0  -0.565866  -0.000109  2.2285  0.0  -0.584791  -8.8e-05  2.218578  0.0  -0.333492  -0.552424  -0.000125  2.234547  0.0
O  O71  1  0.92469096  0.63797752  0.68370427  1  -0.598171  0.000126  1.978541  0.0  -0.565729  0.000109  2.228534  0.0  -0.584656  8.6e-05  2.218616  0.0  -0.333422  -0.552286  0.000125  2.234581  0.0
O  O72  1  0.15926884  0.39497637  0.09814879  1  -0.617342  0.00079  1.997876  0.0  -0.584469  0.000862  2.255601  0.001  -0.602719  0.000804  2.23976  0.0  -0.330821  -0.571884  0.00086  2.265978  0.001
O  O73  1  0.84074784  0.60502533  0.90185381  1  -0.617237  -0.000789  1.998241  0.0  -0.584351  -0.000864  2.255891  -0.001  -0.602607  -0.000805  2.240063  0.0  -0.330761  -0.571774  -0.00086  2.266284  -0.001
F  F74  1  0.11451851  0.08223442  0.18064094  1  -0.247889  0.000158  1.203655  0.0  -0.199648  0.000198  1.372417  0.0  -0.208856  0.000173  1.358329  0.0  -0.094793  -0.192368  0.000278  1.38182  0.0
F  F75  1  0.88546672  0.91776423  0.81936416  1  -0.24796  -0.000159  1.203483  0.0  -0.199699  -0.000198  1.372328  0.0  -0.208928  -0.000174  1.358204  0.0  -0.094799  -0.192398  -0.000278  1.381764  0.0
F  F76  1  0.38000299  0.10430780  0.10671729  1  -0.234479  -0.000138  1.217989  0.0  -0.183845  -0.000151  1.383163  0.0  -0.198423  -0.000115  1.374098  0.0  -0.086179  -0.177215  -0.000169  1.3937  0.0
F  F77  1  0.61998000  0.89567766  0.89327926  1  -0.234542  0.000138  1.217887  0.0  -0.183894  0.00015  1.383137  0.0  -0.198483  0.000115  1.374026  0.0  -0.086235  -0.177244  0.00017  1.393708  0.0
F  F78  1  0.31512887  0.07971343  0.30247859  1  -0.221676  -1.9e-05  1.241673  0.0  -0.173336  -2.7e-05  1.40983  0.0  -0.183534  -1.5e-05  1.396945  0.0  -0.079103  -0.165488  -4e-05  1.418395  0.0
F  F79  1  0.68486417  0.92027305  0.69751986  1  -0.221816  1.9e-05  1.241622  0.0  -0.173442  2.7e-05  1.409845  0.0  -0.183663  1.5e-05  1.396926  0.0  -0.079102  -0.165573  4e-05  1.418444  0.0
