# generated using pymatgen
data_DyH6C9O7
_symmetry_space_group_name_H-M   'P 1'
_cell_length_a   7.04605250
_cell_length_b   7.59834534
_cell_length_c   10.23654050
_cell_angle_alpha   75.79394150
_cell_angle_beta   71.42024174
_cell_angle_gamma   88.38297425
_symmetry_Int_Tables_number   1
_chemical_formula_structural   DyH6C9O7
_chemical_formula_sum   'Dy2 H12 C18 O14'
_cell_volume   502.85227459
_cell_formula_units_Z   2
loop_
 _symmetry_equiv_pos_site_id
 _symmetry_equiv_pos_as_xyz
  1  'x, y, z'
loop_
 _atom_site_type_symbol
 _atom_site_label
 _atom_site_symmetry_multiplicity
 _atom_site_fract_x
 _atom_site_fract_y
 _atom_site_fract_z
 _atom_site_occupancy
 _atom_site_hle17_bader_spin_density
 _atom_site_hle17_ddec_charge
 _atom_site_hle17_ddec_spin_density
 _atom_site_hle17_ddec_sum_bond_order
 _atom_site_hle17_magmom
 _atom_site_hse06_10hf_bader_spin_density
 _atom_site_hse06_10hf_ddec_charge
 _atom_site_hse06_10hf_ddec_spin_density
 _atom_site_hse06_10hf_ddec_sum_bond_order
 _atom_site_hse06_10hf_magmom
 _atom_site_hse06_bader_spin_density
 _atom_site_hse06_ddec_charge
 _atom_site_hse06_ddec_spin_density
 _atom_site_hse06_ddec_sum_bond_order
 _atom_site_hse06_magmom
 _atom_site_pbe_bader_spin_density
 _atom_site_pbe_cm5_charge
 _atom_site_pbe_ddec_charge
 _atom_site_pbe_ddec_spin_density
 _atom_site_pbe_ddec_sum_bond_order
 _atom_site_pbe_magmom
Dy  Dy0  1  0.31131783  0.21547042  0.01691292  1  0  2.267806  0  1.663941  0  0  2.125119  0  2.135499  0  0  2.246673  0  1.955872  0  0  1.536021  2.088489  0  2.168934  0
Dy  Dy1  1  0.68868071  0.78453137  0.98308828  1  0  2.267794  0  1.663955  0  0  2.125069  0  2.135581  0  0  2.246665  0  1.955888  0  0  1.536021  2.088452  0  2.169014  0
H  H2  1  0.17588238  0.13423923  0.59894228  1  0  0.103307  0  0.960857  0  0  0.111497  0  1.024849  0  0  0.114695  0  1.02355  0  0  0.106894  0.109274  0  1.025553  0
H  H3  1  0.82411892  0.86575848  0.40105809  1  0  0.103305  0  0.960853  0  0  0.111503  0  1.024838  0  0  0.114702  0  1.023539  0  0  0.106884  0.109281  0  1.025533  0
H  H4  1  0.71345669  0.88688380  0.65160310  1  0  0.100808  0  0.979629  0  0  0.106656  0  1.048091  0  0  0.109862  0  1.047033  0  0  0.11059  0.103518  0  1.050575  0
H  H5  1  0.28654320  0.11311528  0.34839928  1  0  0.100838  0  0.979616  0  0  0.106669  0  1.048089  0  0  0.109886  0  1.047018  0  0  0.110602  0.103532  0  1.050568  0
H  H6  1  0.69427662  0.29339591  0.58995116  1  0  0.096734  0  0.96967  0  0  0.106176  0  1.030754  0  0  0.108693  0  1.03033  0  0  0.10595  0.104645  0  1.030616  0
H  H7  1  0.30572484  0.70660453  0.41004965  1  0  0.09671  0  0.969665  0  0  0.106144  0  1.030768  0  0  0.10866  0  1.030346  0  0  0.105944  0.104614  0  1.030636  0
H  H8  1  0.05930018  0.69486838  0.64857876  1  0  0.110319  0  0.946774  0  0  0.11815  0  1.009484  0  0  0.121535  0  1.00809  0  0  0.111823  0.115736  0  1.010611  0
H  H9  1  0.94069970  0.30513070  0.35142362  1  0  0.1103  0  0.946819  0  0  0.118159  0  1.009502  0  0  0.121544  0  1.008108  0  0  0.11182  0.115744  0  1.01063  0
H  H10  1  0.99965604  0.91329470  0.16791415  1  0  0.455797  0  0.836409  0  0  0.426894  0  0.895505  0  0  0.437854  0  0.879763  0  0  0.308572  0.419357  0  0.906461  0
H  H11  1  0.00034399  0.08670709  0.83208574  1  0  0.455784  0  0.836428  0  0  0.426881  0  0.895522  0  0  0.437841  0  0.879779  0  0  0.308576  0.419346  0  0.906477  0
H  H12  1  0.21841768  0.84045962  0.16719643  1  0  0.433244  0  0.873837  0  0  0.401342  0  0.939242  0  0  0.411738  0  0.924614  0  0  0.301841  0.393976  0  0.949833  0
H  H13  1  0.78158385  0.15954217  0.83280313  1  0  0.433254  0  0.873816  0  0  0.401356  0  0.939212  0  0  0.411752  0  0.924586  0  0  0.301853  0.393993  0  0.9498  0
C  C14  1  0.37556780  0.03289964  0.79003886  1  0  0.713332  0  3.830264  0  0  0.660385  0  4.126433  0  0  0.696925  0  4.119995  0  0  0.231417  0.635494  0  4.13498  0
C  C15  1  0.62443357  0.96709942  0.20996026  1  0  0.713332  0  3.830284  0  0  0.660342  0  4.12651  0  0  0.696879  0  4.120079  0  0  0.231373  0.635451  0  4.135047  0
C  C16  1  0.43698798  0.01042381  0.64214531  1  0  -0.053297  0  3.716152  0  0  -0.030546  0  3.947215  0  0  -0.036252  0  3.965554  0  0  -0.00458  -0.026671  0  3.933946  0
C  C17  1  0.56301190  0.98957526  0.35785610  1  0  -0.053263  0  3.71617  0  0  -0.030471  0  3.947198  0  0  -0.036176  0  3.96554  0  0  -0.004557  -0.026578  0  3.9339  0
C  C18  1  0.31750488  0.07511891  0.55571765  1  0  -0.056962  0  3.691307  0  0  -0.078776  0  3.934911  0  0  -0.079583  0  3.954446  0  0  -0.072976  -0.077724  0  3.920831  0
C  C19  1  0.68249492  0.92487880  0.44428403  1  0  -0.057025  0  3.691421  0  0  -0.078858  0  3.935025  0  0  -0.079665  0  3.954557  0  0  -0.072994  -0.077804  0  3.920929  0
C  C20  1  0.62022798  0.93596979  0.58511528  1  0  -0.053011  0  3.694086  0  0  -0.077126  0  3.941154  0  0  -0.078042  0  3.960882  0  0  -0.070762  -0.076288  0  3.927825  0
C  C21  1  0.37977174  0.06402655  0.41488569  1  0  -0.053078  0  3.694067  0  0  -0.077186  0  3.941128  0  0  -0.07811  0  3.960852  0  0  -0.070786  -0.076353  0  3.927788  0
C  C22  1  0.71469311  0.48240732  0.77830987  1  0  0.752364  0  3.801291  0  0  0.705775  0  4.083049  0  0  0.742958  0  4.07267  0  0  0.255767  0.680727  0  4.091808  0
C  C23  1  0.28530684  0.51759309  0.22168932  1  0  0.752346  0  3.801267  0  0  0.705757  0  4.083015  0  0  0.742936  0  4.072651  0  0  0.255776  0.68071  0  4.091767  0
C  C24  1  0.86133894  0.49298693  0.63394499  1  0  -0.074068  0  3.736658  0  0  -0.053028  0  3.966055  0  0  -0.059594  0  3.986346  0  0  -0.009378  -0.047916  0  3.95092  0
C  C25  1  0.13865952  0.50701350  0.36605746  1  0  -0.074071  0  3.736665  0  0  -0.053019  0  3.966053  0  0  -0.059584  0  3.986348  0  0  -0.00938  -0.0479  0  3.950906  0
C  C26  1  0.82908633  0.38279796  0.55046216  1  0  -0.060634  0  3.715727  0  0  -0.0813  0  3.959545  0  0  -0.081527  0  3.978723  0  0  -0.076815  -0.081247  0  3.94585  0
C  C27  1  0.17091527  0.61720519  0.44953714  1  0  -0.06056  0  3.715703  0  0  -0.081229  0  3.959501  0  0  -0.081458  0  3.978681  0  0  -0.076782  -0.081177  0  3.945809  0
C  C28  1  0.03310451  0.61088911  0.58287257  1  0  -0.057381  0  3.695024  0  0  -0.078436  0  3.940256  0  0  -0.07929  0  3.95944  0  0  -0.072509  -0.077481  0  3.926766  0
C  C29  1  0.96689702  0.38911268  0.41712699  1  0  -0.057327  0  3.695141  0  0  -0.078418  0  3.940364  0  0  -0.079273  0  3.95955  0  0  -0.072482  -0.077463  0  3.926869  0
C  C30  1  0.91815346  0.43287429  0.05949801  1  0  0.555175  0  3.944655  0  0  0.514839  0  4.239678  0  0  0.544362  0  4.238138  0  0  0.211203  0.494395  0  4.245469  0
C  C31  1  0.08184506  0.56712748  0.94050027  1  0  0.555274  0  3.944492  0  0  0.514946  0  4.239498  0  0  0.544471  0  4.237955  0  0  0.211275  0.494505  0  4.245286  0
O  O32  1  0.47079052  0.96239406  0.87587725  1  0  -0.784666  0  2.101305  0  0  -0.727581  0  2.368742  0  0  -0.769412  0  2.355448  0  0  -0.400186  -0.709482  0  2.377278  0
O  O33  1  0.52921093  0.03760637  0.12412258  1  0  -0.784715  0  2.101277  0  0  -0.727611  0  2.368711  0  0  -0.769438  0  2.355421  0  0  -0.400205  -0.709516  0  2.377251  0
O  O34  1  0.23340500  0.13785794  0.82840089  1  0  -0.724215  0  2.028399  0  0  -0.667602  0  2.26799  0  0  -0.701437  0  2.254607  0  0  -0.375407  -0.649906  0  2.275439  0
O  O35  1  0.76659495  0.86214248  0.17159928  1  0  -0.724172  0  2.02853  0  0  -0.667546  0  2.268144  0  0  -0.701387  0  2.254764  0  0  -0.375354  -0.649855  0  2.275595  0
O  O36  1  0.62007718  0.32868833  0.84766916  1  0  -0.747403  0  2.075607  0  0  -0.686315  0  2.32249  0  0  -0.722311  0  2.30701  0  0  -0.382958  -0.668182  0  2.330837  0
O  O37  1  0.37992277  0.67131210  0.15233101  1  0  -0.747393  0  2.075596  0  0  -0.686311  0  2.3225  0  0  -0.722307  0  2.307007  0  0  -0.382967  -0.66818  0  2.330846  0
O  O38  1  0.69397228  0.62204225  0.82634146  1  0  -0.743329  0  2.121248  0  0  -0.696137  0  2.39518  0  0  -0.733987  0  2.378977  0  0  -0.403727  -0.677979  0  2.403967  0
O  O39  1  0.30602468  0.37795816  0.17365937  1  0  -0.743311  0  2.121291  0  0  -0.696129  0  2.395225  0  0  -0.733973  0  2.37903  0  0  -0.403718  -0.677973  0  2.404009  0
O  O40  1  0.96925388  0.27199583  0.09871851  1  0  -0.656708  0  2.037097  0  0  -0.609909  0  2.284539  0  0  -0.642925  0  2.27414  0  0  -0.378389  -0.592457  0  2.289526  0
O  O41  1  0.03074465  0.72800595  0.90128074  1  0  -0.656754  0  2.037118  0  0  -0.609958  0  2.284577  0  0  -0.64298  0  2.274175  0  0  -0.378416  -0.59251  0  2.289569  0
O  O42  1  0.74900452  0.49499229  0.10725198  1  0  -0.645562  0  2.04844  0  0  -0.605731  0  2.293141  0  0  -0.637087  0  2.282963  0  0  -0.370121  -0.589874  0  2.298756  0
O  O43  1  0.25099849  0.50500948  0.89274432  1  0  -0.645592  0  2.048293  0  0  -0.605782  0  2.293014  0  0  -0.637134  0  2.282839  0  0  -0.370142  -0.589921  0  2.298621  0
O  O44  1  0.13656239  0.94929425  0.16386405  1  0  -0.931671  0  1.877772  0  0  -0.884327  0  2.083875  0  0  -0.913847  0  2.04591  0  0  -0.662303  -0.870401  0  2.106516  0
O  O45  1  0.86343764  0.05070753  0.83613585  1  0  -0.931654  0  1.877752  0  0  -0.884327  0  2.083901  0  0  -0.913851  0  2.045934  0  0  -0.662308  -0.870401  0  2.106543  0
