# generated using pymatgen
data_PrPH7C3O10
_symmetry_space_group_name_H-M   'P 1'
_cell_length_a   6.91357333
_cell_length_b   10.20239912
_cell_length_c   13.47331140
_cell_angle_alpha   89.99990793
_cell_angle_beta   90.00012306
_cell_angle_gamma   100.36203415
_symmetry_Int_Tables_number   1
_chemical_formula_structural   PrPH7C3O10
_chemical_formula_sum   'Pr4 P4 H28 C12 O40'
_cell_volume   934.84125889
_cell_formula_units_Z   4
loop_
 _symmetry_equiv_pos_site_id
 _symmetry_equiv_pos_as_xyz
  1  'x, y, z'
loop_
 _atom_site_type_symbol
 _atom_site_label
 _atom_site_symmetry_multiplicity
 _atom_site_fract_x
 _atom_site_fract_y
 _atom_site_fract_z
 _atom_site_occupancy
 _atom_site_hle17_bader_spin_density
 _atom_site_hle17_ddec_charge
 _atom_site_hle17_ddec_spin_density
 _atom_site_hle17_ddec_sum_bond_order
 _atom_site_hle17_magmom
 _atom_site_hse06_10hf_bader_spin_density
 _atom_site_hse06_10hf_ddec_charge
 _atom_site_hse06_10hf_ddec_spin_density
 _atom_site_hse06_10hf_ddec_sum_bond_order
 _atom_site_hse06_10hf_magmom
 _atom_site_hse06_bader_spin_density
 _atom_site_hse06_ddec_charge
 _atom_site_hse06_ddec_spin_density
 _atom_site_hse06_ddec_sum_bond_order
 _atom_site_hse06_magmom
 _atom_site_pbe_bader_spin_density
 _atom_site_pbe_cm5_charge
 _atom_site_pbe_ddec_charge
 _atom_site_pbe_ddec_spin_density
 _atom_site_pbe_ddec_sum_bond_order
 _atom_site_pbe_magmom
Pr  Pr0  1  0.15859477  0.27899925  0.89673788  1  0  2.327395  0  1.596558  0  0  2.207992  0  1.961402  0  0  2.242482  0  1.922642  0  0  1.486936  2.129285  0  2.089515  0
Pr  Pr1  1  0.84140439  0.22100425  0.39673938  1  0  2.327449  0  1.596496  0  0  2.208047  0  1.961334  0  0  2.242538  0  1.922574  0  0  1.486984  2.129336  0  2.089458  0
Pr  Pr2  1  0.84140930  0.72100396  0.10326409  1  0  2.327385  0  1.596529  0  0  2.207989  0  1.961363  0  0  2.242479  0  1.922606  0  0  1.486988  2.129211  0  2.089615  0
Pr  Pr3  1  0.15859484  0.77899694  0.60326408  1  0  2.327381  0  1.596546  0  0  2.208009  0  1.961373  0  0  2.242497  0  1.922615  0  0  1.487014  2.129284  0  2.089522  0
P  P4  1  0.77946439  0.07553731  0.05331682  1  0  1.525266  0  4.75431  0  0  1.362651  0  5.272005  0  0  1.413416  0  5.229712  0  0  0.383685  1.326919  0  5.29689  0
P  P5  1  0.22053219  0.42446276  0.55331520  1  0  1.52509  0  4.754449  0  0  1.362508  0  5.272118  0  0  1.413267  0  5.229834  0  0  0.38368  1.326784  0  5.296992  0
P  P6  1  0.22053274  0.92444994  0.94668368  1  0  1.525197  0  4.754072  0  0  1.362624  0  5.271785  0  0  1.413393  0  5.229492  0  0  0.383745  1.326894  0  5.296668  0
P  P7  1  0.77946717  0.57555037  0.44668084  1  0  1.525155  0  4.754134  0  0  1.36262  0  5.27185  0  0  1.413391  0  5.229556  0  0  0.383675  1.326893  0  5.296727  0
H  H8  1  0.54313257  0.19908149  0.05521669  1  0  0.439055  0  0.854769  0  0  0.404715  0  0.926586  0  0  0.417356  0  0.908268  0  0  0.318499  0.395827  0  0.939503  0
H  H9  1  0.45685891  0.30091557  0.55521691  1  0  0.439045  0  0.854764  0  0  0.404726  0  0.926555  0  0  0.417364  0  0.908241  0  0  0.318521  0.395838  0  0.939472  0
H  H10  1  0.45686375  0.80091969  0.94478306  1  0  0.439125  0  0.854707  0  0  0.404795  0  0.926475  0  0  0.417436  0  0.908157  0  0  0.318532  0.395904  0  0.939396  0
H  H11  1  0.54313640  0.69908162  0.44478061  1  0  0.439126  0  0.854724  0  0  0.404792  0  0.926492  0  0  0.417434  0  0.908172  0  0  0.318529  0.395898  0  0.939417  0
H  H12  1  0.90716626  0.99023092  0.25432853  1  0  0.401162  0  0.882586  0  0  0.375538  0  0.953635  0  0  0.386612  0  0.941188  0  0  0.317237  0.367913  0  0.961207  0
H  H13  1  0.09282792  0.50976769  0.75432581  1  0  0.401159  0  0.882622  0  0  0.375631  0  0.953524  0  0  0.386705  0  0.94107  0  0  0.317252  0.368008  0  0.961093  0
H  H14  1  0.09282905  0.00976627  0.74567270  1  0  0.40113  0  0.882689  0  0  0.375631  0  0.953534  0  0  0.386703  0  0.941082  0  0  0.317231  0.368005  0  0.96111  0
H  H15  1  0.90717710  0.49023353  0.24567320  1  0  0.401185  0  0.882596  0  0  0.375578  0  0.953604  0  0  0.386647  0  0.941164  0  0  0.317261  0.367953  0  0.961173  0
H  H16  1  0.78524691  0.34172599  0.94485918  1  0  0.422532  0  0.859781  0  0  0.393581  0  0.934993  0  0  0.402836  0  0.92428  0  0  0.313458  0.387279  0  0.941188  0
H  H17  1  0.21474755  0.15826944  0.44486243  1  0  0.422503  0  0.859806  0  0  0.393558  0  0.935026  0  0  0.402812  0  0.924317  0  0  0.313446  0.387251  0  0.941234  0
H  H18  1  0.21474431  0.65827217  0.05514131  1  0  0.422549  0  0.859795  0  0  0.393598  0  0.935023  0  0  0.402853  0  0.924309  0  0  0.313442  0.387294  0  0.941224  0
H  H19  1  0.78525468  0.84172082  0.55514474  1  0  0.422536  0  0.859776  0  0  0.393592  0  0.934994  0  0  0.402847  0  0.924282  0  0  0.313437  0.387282  0  0.941213  0
H  H20  1  0.87073353  0.48617012  0.89962155  1  0  0.432885  0  0.869838  0  0  0.400201  0  0.936567  0  0  0.41171  0  0.919825  0  0  0.300855  0.392095  0  0.948148  0
H  H21  1  0.12926923  0.01383041  0.39961896  1  0  0.432888  0  0.869834  0  0  0.400206  0  0.936563  0  0  0.411715  0  0.91982  0  0  0.300874  0.392103  0  0.948137  0
H  H22  1  0.12926494  0.51382808  0.10037523  1  0  0.432915  0  0.869767  0  0  0.400244  0  0.936486  0  0  0.411753  0  0.919741  0  0  0.300893  0.39214  0  0.948064  0
H  H23  1  0.87073408  0.98616981  0.60037411  1  0  0.43293  0  0.869753  0  0  0.40026  0  0.93647  0  0  0.41177  0  0.919724  0  0  0.300904  0.392159  0  0.948041  0
H  H24  1  0.60351900  0.32891985  0.81421120  1  0  0.441117  0  0.842002  0  0  0.417533  0  0.891661  0  0  0.427184  0  0.877478  0  0  0.30604  0.410208  0  0.902349  0
H  H25  1  0.39647858  0.17108477  0.31421682  1  0  0.441072  0  0.842069  0  0  0.417489  0  0.891731  0  0  0.427143  0  0.877545  0  0  0.305983  0.410169  0  0.902417  0
H  H26  1  0.39647131  0.67106338  0.18578187  1  0  0.441077  0  0.842036  0  0  0.417518  0  0.891656  0  0  0.42717  0  0.877474  0  0  0.306082  0.410198  0  0.902338  0
H  H27  1  0.60352947  0.82892841  0.68578442  1  0  0.441054  0  0.842069  0  0  0.417491  0  0.891699  0  0  0.427143  0  0.877514  0  0  0.306025  0.410172  0  0.902378  0
H  H28  1  0.46008488  0.34075861  0.72335150  1  0  0.440909  0  0.848064  0  0  0.412056  0  0.906566  0  0  0.422122  0  0.891667  0  0  0.305074  0.404749  0  0.917283  0
H  H29  1  0.53991110  0.15924714  0.22335578  1  0  0.440954  0  0.848024  0  0  0.412098  0  0.906526  0  0  0.422166  0  0.891624  0  0  0.305061  0.404791  0  0.917239  0
H  H30  1  0.53990671  0.65922960  0.27664379  1  0  0.44092  0  0.848038  0  0  0.412088  0  0.906503  0  0  0.422153  0  0.891607  0  0  0.305135  0.404782  0  0.917218  0
H  H31  1  0.46009261  0.84076601  0.77664620  1  0  0.44092  0  0.848037  0  0  0.41207  0  0.906534  0  0  0.422136  0  0.891635  0  0  0.305095  0.404762  0  0.91725  0
H  H32  1  0.09564851  0.09763370  0.13462613  1  0  0.134153  0  0.906378  0  0  0.140669  0  0.962121  0  0  0.144499  0  0.959456  0  0  0.141585  0.13797  0  0.963826  0
H  H33  1  0.90434214  0.40236422  0.63462440  1  0  0.13409  0  0.906338  0  0  0.140589  0  0.962127  0  0  0.144419  0  0.959461  0  0  0.141544  0.137895  0  0.963831  0
H  H34  1  0.90434340  0.90236149  0.86537362  1  0  0.134088  0  0.90637  0  0  0.140627  0  0.962138  0  0  0.144455  0  0.959476  0  0  0.141557  0.13793  0  0.963841  0
H  H35  1  0.09565827  0.59763598  0.36537535  1  0  0.134102  0  0.906381  0  0  0.14064  0  0.962183  0  0  0.14447  0  0.959522  0  0  0.141582  0.137944  0  0.963885  0
C  C36  1  0.95946979  0.13502982  0.15263543  1  0  -0.225575  0  3.690941  0  0  -0.233838  0  3.959323  0  0  -0.239421  0  3.960748  0  0  0.000824  -0.229268  0  3.955  0
C  C37  1  0.04052775  0.36497209  0.65263075  1  0  -0.225333  0  3.690739  0  0  -0.233663  0  3.959192  0  0  -0.239242  0  3.960631  0  0  0.000865  -0.229105  0  3.954871  0
C  C38  1  0.04052458  0.86496936  0.84736655  1  0  -0.225313  0  3.690485  0  0  -0.233748  0  3.959178  0  0  -0.239331  0  3.960609  0  0  0.000865  -0.229185  0  3.954857  0
C  C39  1  0.95947752  0.63503013  0.34736751  1  0  -0.22525  0  3.690459  0  0  -0.233786  0  3.959348  0  0  -0.239381  0  3.960808  0  0  0.000837  -0.229218  0  3.955021  0
C  C40  1  0.00549452  0.28599174  0.15804635  1  0  0.734152  0  3.800639  0  0  0.677063  0  4.110577  0  0  0.712506  0  4.098562  0  0  0.242424  0.652765  0  4.115311  0
C  C41  1  0.99450348  0.21400618  0.65804270  1  0  0.734026  0  3.800857  0  0  0.677036  0  4.110682  0  0  0.712455  0  4.098712  0  0  0.242418  0.652759  0  4.115384  0
C  C42  1  0.99449978  0.71400147  0.84195636  1  0  0.734039  0  3.80075  0  0  0.676953  0  4.110776  0  0  0.71239  0  4.098772  0  0  0.242357  0.652666  0  4.115499  0
C  C43  1  0.00550110  0.78599902  0.34195334  1  0  0.734173  0  3.800639  0  0  0.677082  0  4.11071  0  0  0.712518  0  4.098716  0  0  0.24243  0.652788  0  4.115439  0
C  C44  1  0.45280844  0.55505395  0.97484114  1  0  0.558001  0  3.924266  0  0  0.513128  0  4.223953  0  0  0.543204  0  4.213647  0  0  0.225806  0.492991  0  4.225896  0
C  C45  1  0.54718617  0.94493634  0.47484212  1  0  0.557841  0  3.924766  0  0  0.513091  0  4.224274  0  0  0.543165  0  4.213972  0  0  0.225758  0.492958  0  4.226212  0
C  C46  1  0.54718593  0.44494523  0.02515564  1  0  0.557677  0  3.924913  0  0  0.512803  0  4.224601  0  0  0.542878  0  4.2143  0  0  0.22568  0.492664  0  4.226542  0
C  C47  1  0.45282866  0.05505797  0.52515243  1  0  0.557796  0  3.924121  0  0  0.51288  0  4.22386  0  0  0.542961  0  4.213558  0  0  0.225811  0.49274  0  4.225799  0
O  O48  1  0.58453428  0.12233997  0.09271978  1  0  -0.732992  0  2.020073  0  0  -0.650411  0  2.233714  0  0  -0.672663  0  2.206636  0  0  -0.365404  -0.63572  0  2.253747  0
O  O49  1  0.41545618  0.37765801  0.59271691  1  0  -0.732911  0  2.020139  0  0  -0.650351  0  2.233795  0  0  -0.672587  0  2.206697  0  0  -0.36542  -0.635665  0  2.253852  0
O  O50  1  0.41545675  0.87766317  0.90728293  1  0  -0.732987  0  2.020246  0  0  -0.65041  0  2.233865  0  0  -0.672649  0  2.206767  0  0  -0.365399  -0.635722  0  2.253913  0
O  O51  1  0.58454417  0.62233622  0.40728061  1  0  -0.733006  0  2.020267  0  0  -0.650441  0  2.233868  0  0  -0.672677  0  2.206763  0  0  -0.365394  -0.635759  0  2.25394  0
O  O52  1  0.84679222  0.14279079  0.95592194  1  0  -0.931914  0  1.964145  0  0  -0.864834  0  2.230264  0  0  -0.888549  0  2.209688  0  0  -0.440513  -0.8414  0  2.245406  0
O  O53  1  0.15320533  0.35721658  0.45592044  1  0  -0.931852  0  1.964179  0  0  -0.864762  0  2.230285  0  0  -0.888466  0  2.209691  0  0  -0.440498  -0.841325  0  2.245425  0
O  O54  1  0.15320165  0.85720639  0.04407781  1  0  -0.931848  0  1.964213  0  0  -0.864763  0  2.23034  0  0  -0.888488  0  2.209786  0  0  -0.440524  -0.841323  0  2.245491  0
O  O55  1  0.84679863  0.64279757  0.54407782  1  0  -0.93185  0  1.964088  0  0  -0.86476  0  2.230201  0  0  -0.888489  0  2.209655  0  0  -0.440484  -0.841318  0  2.245345  0
O  O56  1  0.74954890  0.92535294  0.05773912  1  0  -0.920293  0  1.973235  0  0  -0.855934  0  2.25676  0  0  -0.87941  0  2.234581  0  0  -0.468099  -0.831401  0  2.273634  0
O  O57  1  0.25045119  0.57465001  0.55774016  1  0  -0.920321  0  1.973245  0  0  -0.855989  0  2.25678  0  0  -0.879468  0  2.234604  0  0  -0.468139  -0.831458  0  2.273646  0
O  O58  1  0.25044340  0.07465518  0.94226731  1  0  -0.920455  0  1.972914  0  0  -0.856098  0  2.256432  0  0  -0.879592  0  2.234262  0  0  -0.468189  -0.831568  0  2.273293  0
O  O59  1  0.74955307  0.42534823  0.44226701  1  0  -0.920423  0  1.972959  0  0  -0.856033  0  2.256437  0  0  -0.879528  0  2.234265  0  0  -0.468153  -0.831506  0  2.273307  0
O  O60  1  0.87426263  0.08119021  0.24325680  1  0  -0.600015  0  2.285627  0  0  -0.551407  0  2.524779  0  0  -0.567122  0  2.514586  0  0  -0.436376  -0.534475  0  2.530944  0
O  O61  1  0.12573337  0.41880955  0.74325510  1  0  -0.600097  0  2.285672  0  0  -0.551548  0  2.524741  0  0  -0.567269  0  2.514556  0  0  -0.436388  -0.534611  0  2.530901  0
O  O62  1  0.12573565  0.91881297  0.75674518  1  0  -0.600084  0  2.28571  0  0  -0.551503  0  2.524771  0  0  -0.567215  0  2.514578  0  0  -0.436366  -0.534564  0  2.530928  0
O  O63  1  0.87427234  0.58118870  0.25674465  1  0  -0.600132  0  2.285622  0  0  -0.551481  0  2.524908  0  0  -0.567192  0  2.514727  0  0  -0.436397  -0.53454  0  2.531069  0
O  O64  1  0.08105437  0.34932793  0.08212886  1  0  -0.702682  0  2.045322  0  0  -0.652474  0  2.287901  0  0  -0.677327  0  2.276904  0  0  -0.332394  -0.630049  0  2.296392  0
O  O65  1  0.91895683  0.15067218  0.58212670  1  0  -0.702638  0  2.045631  0  0  -0.652453  0  2.288168  0  0  -0.677304  0  2.277195  0  0  -0.332326  -0.630035  0  2.29665  0
O  O66  1  0.91894793  0.65066831  0.91786792  1  0  -0.702604  0  2.045611  0  0  -0.652358  0  2.288165  0  0  -0.677212  0  2.277188  0  0  -0.332296  -0.629927  0  2.296654  0
O  O67  1  0.08106054  0.84933210  0.41786711  1  0  -0.702661  0  2.045484  0  0  -0.652405  0  2.288032  0  0  -0.677249  0  2.277042  0  0  -0.332302  -0.629974  0  2.296517  0
O  O68  1  0.96176782  0.34053378  0.23832545  1  0  -0.673759  0  1.996623  0  0  -0.615407  0  2.230684  0  0  -0.638935  0  2.217759  0  0  -0.355072  -0.592935  0  2.240661  0
O  O69  1  0.03823710  0.15946703  0.73832547  1  0  -0.673712  0  1.996585  0  0  -0.615447  0  2.230611  0  0  -0.638961  0  2.217688  0  0  -0.355132  -0.592982  0  2.240577  0
O  O70  1  0.03823814  0.65946546  0.76167726  1  0  -0.67375  0  1.996611  0  0  -0.615421  0  2.230665  0  0  -0.638947  0  2.217743  0  0  -0.355111  -0.592948  0  2.240642  0
O  O71  1  0.96176672  0.84053518  0.26167725  1  0  -0.673832  0  1.996713  0  0  -0.615443  0  2.230783  0  0  -0.638976  0  2.217869  0  0  -0.355152  -0.592963  0  2.240765  0
O  O72  1  0.30191404  0.51990243  0.92256145  1  0  -0.633093  0  2.061218  0  0  -0.59315  0  2.306191  0  0  -0.613901  0  2.296543  0  0  -0.357528  -0.573204  0  2.313762  0
O  O73  1  0.69808533  0.98010190  0.42256103  1  0  -0.633138  0  2.06113  0  0  -0.593252  0  2.306072  0  0  -0.614009  0  2.296425  0  0  -0.357584  -0.573301  0  2.31364  0
O  O74  1  0.69809199  0.48010278  0.07743979  1  0  -0.633099  0  2.061213  0  0  -0.593167  0  2.306198  0  0  -0.613925  0  2.296552  0  0  -0.357543  -0.573206  0  2.313766  0
O  O75  1  0.30188964  0.01988921  0.57744762  1  0  -0.633249  0  2.060369  0  0  -0.593302  0  2.305372  0  0  -0.614068  0  2.295726  0  0  -0.357755  -0.573342  0  2.31294  0
O  O76  1  0.53395820  0.67485587  0.99359151  1  0  -0.659552  0  2.1244  0  0  -0.602085  0  2.356805  0  0  -0.62697  0  2.347562  0  0  -0.34255  -0.579967  0  2.3636  0
O  O77  1  0.46604830  0.82515236  0.49359107  1  0  -0.659339  0  2.124919  0  0  -0.601927  0  2.357276  0  0  -0.626805  0  2.348029  0  0  -0.342451  -0.579827  0  2.364078  0
O  O78  1  0.46605105  0.32515632  0.00640972  1  0  -0.659277  0  2.125021  0  0  -0.601813  0  2.357436  0  0  -0.626691  0  2.348192  0  0  -0.342432  -0.579715  0  2.364231  0
O  O79  1  0.53395306  0.17484586  0.50641313  1  0  -0.659273  0  2.125024  0  0  -0.60181  0  2.357465  0  0  -0.626685  0  2.348217  0  0  -0.342425  -0.579715  0  2.364267  0
O  O80  1  0.84610043  0.38737144  0.88584845  1  0  -0.879719  0  1.901403  0  0  -0.829059  0  2.090046  0  0  -0.847455  0  2.06137  0  0  -0.609568  -0.810652  0  2.111401  0
O  O81  1  0.15390176  0.11262712  0.38584872  1  0  -0.879679  0  1.901403  0  0  -0.829069  0  2.090061  0  0  -0.847466  0  2.061388  0  0  -0.609575  -0.810659  0  2.111427  0
O  O82  1  0.15389797  0.61262080  0.11415056  1  0  -0.879731  0  1.901334  0  0  -0.829136  0  2.089988  0  0  -0.847532  0  2.061314  0  0  -0.60958  -0.810716  0  2.111347  0
O  O83  1  0.84610256  0.88737708  0.61415177  1  0  -0.879711  0  1.901321  0  0  -0.829118  0  2.089978  0  0  -0.847515  0  2.061304  0  0  -0.609592  -0.810712  0  2.111341  0
O  O84  1  0.46814766  0.30119972  0.78974872  1  0  -0.897029  0  1.80047  0  0  -0.85649  0  1.962822  0  0  -0.872127  0  1.932024  0  0  -0.63493  -0.838878  0  1.989272  0
O  O85  1  0.53185007  0.19880594  0.28975220  1  0  -0.897035  0  1.80049  0  0  -0.856493  0  1.962842  0  0  -0.872131  0  1.932042  0  0  -0.634868  -0.838884  0  1.989278  0
O  O86  1  0.53184827  0.69878852  0.21024732  1  0  -0.897016  0  1.800464  0  0  -0.856499  0  1.96278  0  0  -0.872134  0  1.931981  0  0  -0.63506  -0.838883  0  1.989222  0
O  O87  1  0.46815194  0.80120622  0.71024903  1  0  -0.896974  0  1.800478  0  0  -0.856451  0  1.962804  0  0  -0.872087  0  1.932005  0  0  -0.63495  -0.83885  0  1.989241  0
