# generated using pymatgen
data_Zn2H12C21O8
_symmetry_space_group_name_H-M   'P 1'
_cell_length_a   24.37830587
_cell_length_b   24.58091502
_cell_length_c   24.99619928
_cell_angle_alpha   62.26394452
_cell_angle_beta   61.37435541
_cell_angle_gamma   60.90734428
_symmetry_Int_Tables_number   1
_chemical_formula_structural   Zn2H12C21O8
_chemical_formula_sum   'Zn8 H48 C84 O32'
_cell_volume   10948.74293811
_cell_formula_units_Z   4
loop_
 _symmetry_equiv_pos_site_id
 _symmetry_equiv_pos_as_xyz
  1  'x, y, z'
loop_
 _atom_site_type_symbol
 _atom_site_label
 _atom_site_symmetry_multiplicity
 _atom_site_fract_x
 _atom_site_fract_y
 _atom_site_fract_z
 _atom_site_occupancy
 _atom_site_pbe_bader_charge
 _atom_site_pbe_bader_spin_density
 _atom_site_pbe_cm5_charge
 _atom_site_pbe_ddec_charge
 _atom_site_pbe_ddec_spin_density
 _atom_site_pbe_ddec_sum_bond_order
 _atom_site_pbe_magmom
Zn  Zn0  1  0.98827047  0.92445082  0.12804780  1  1.303885  0  0.669201  0.953514  0  2.443277  0
Zn  Zn1  1  0.11825113  0.92300139  0.00618086  1  1.322876  0  0.671074  0.96789  0  2.358922  0
Zn  Zn2  1  0.98728053  0.05018935  0.00916241  1  1.311934  0  0.669551  0.960768  0  2.392621  0
Zn  Zn3  1  0.98648406  0.92198878  0.00202500  1  1.313494  0  0.670408  0.972581  0  2.312748  0
Zn  Zn4  1  0.55545084  0.48652063  0.43890527  1  1.304919  0  0.669913  0.965114  0  2.360453  0
Zn  Zn5  1  0.42529643  0.49082932  0.56499138  1  1.312378  0  0.670387  0.965178  0  2.373557  0
Zn  Zn6  1  0.55698671  0.49090431  0.56346156  1  1.312181  0  0.668844  0.957119  0  2.415786  0
Zn  Zn7  1  0.55489931  0.36130738  0.56569379  1  1.319933  0  0.671184  0.965829  0  2.371405  0
H  H8  1  0.07232199  0.84493191  0.26272546  1  0.074977  0  0.109381  0.114493  0  0.991377  0
H  H9  1  0.13145452  0.81546052  0.33676556  1  0.081148  0  0.109886  0.122489  0  0.987235  0
H  H10  1  0.31677136  0.79504277  0.18178990  1  0.071032  0  0.108082  0.119978  0  0.998336  0
H  H11  1  0.25733909  0.82560699  0.10802975  1  0.101757  0  0.109556  0.113298  0  0.988953  0
H  H12  1  0.38478713  0.73708893  0.24987502  1  0.074553  0  0.108387  0.120385  0  0.99504  0
H  H13  1  0.45662454  0.63504303  0.30876595  1  0.113367  0  0.109327  0.113749  0  0.988163  0
H  H14  1  0.28648811  0.62107585  0.47786548  1  0.116109  0  0.109408  0.11457  0  0.989448  0
H  H15  1  0.21396780  0.72323988  0.41908968  1  0.087281  0  0.109535  0.122356  0  0.988022  0
H  H16  1  0.83733473  0.00575042  0.26263742  1  0.10835  0  0.109806  0.115187  0  0.990773  0
H  H17  1  0.73113531  0.06521116  0.33357453  1  0.10391  0  0.110162  0.122576  0  0.985018  0
H  H18  1  0.73358770  0.24709598  0.18311116  1  0.071615  0  0.107678  0.119234  0  1.000234  0
H  H19  1  0.83834174  0.18726045  0.11237007  1  0.100074  0  0.108772  0.112484  0  0.98917  0
H  H20  1  0.66170683  0.31298446  0.24797073  1  0.0609  0  0.108211  0.120234  0  0.996927  0
H  H21  1  0.63730359  0.38349822  0.30887309  1  0.120265  0  0.109686  0.114119  0  0.989122  0
H  H22  1  0.62810903  0.22200176  0.48151439  1  0.100857  0  0.109759  0.114  0  0.989793  0
H  H23  1  0.65227048  0.15076460  0.42086998  1  0.08523  0  0.110288  0.122998  0  0.986438  0
H  H24  1  0.91100345  0.78972100  0.25579763  1  0.106688  0  0.109312  0.114667  0  0.99173  0
H  H25  1  0.88605525  0.68603068  0.32950350  1  0.105728  0  0.110135  0.122824  0  0.986416  0
H  H26  1  0.88199269  0.65952230  0.17328365  1  0.066307  0  0.108471  0.119989  0  0.996788  0
H  H27  1  0.90738979  0.76267608  0.09994171  1  0.07464  0  0.109508  0.11274  0  0.987796  0
H  H28  1  0.80580884  0.60366713  0.24264701  1  0.061681  0  0.107302  0.118616  0  1.00092  0
H  H29  1  0.70313710  0.57284737  0.30492575  1  0.099588  0  0.108713  0.113107  0  0.988433  0
H  H30  1  0.71025270  0.56007964  0.47879347  1  0.095245  0  0.109324  0.11389  0  0.991279  0
H  H31  1  0.81434637  0.58948497  0.41679732  1  0.055526  0  0.109963  0.122766  0  0.987583  0
H  H32  1  0.25428468  0.02104060  0.91731154  1  0.080347  0  0.109094  0.113471  0  0.99154  0
H  H33  1  0.32061035  0.09177360  0.88109840  1  0.050519  0  0.108171  0.11984  0  0.992625  0
H  H34  1  0.14339344  0.26089434  0.88143267  1  0.094272  0  0.109041  0.121386  0  0.988926  0
H  H35  1  0.07727794  0.18982829  0.91818943  1  0.110984  0  0.109423  0.114247  0  0.989033  0
H  H36  1  0.21904128  0.33880880  0.80460517  1  0.085376  0  0.108862  0.120957  0  0.989469  0
H  H37  1  0.28500073  0.40264385  0.70312268  1  0.101227  0  0.109807  0.114813  0  0.990306  0
H  H38  1  0.45832279  0.23007827  0.69959689  1  0.089305  0  0.108619  0.11299  0  0.99056  0
H  H39  1  0.39274530  0.16599452  0.80107858  1  0.080387  0  0.108204  0.1202  0  0.992558  0
H  H40  1  0.25432190  0.85052905  0.85989310  1  0.102454  0  0.10965  0.114521  0  0.989983  0
H  H41  1  0.32573103  0.82465636  0.75591409  1  0.060262  0  0.109492  0.122462  0  0.986993  0
H  H42  1  0.15900167  0.81578713  0.74588198  1  0.087085  0  0.107856  0.119568  0  0.994894  0
H  H43  1  0.08802241  0.84242632  0.84910251  1  0.09683  0  0.109302  0.11395  0  0.988825  0
H  H44  1  0.22829547  0.74567705  0.67908023  1  0.050329  0  0.10779  0.119422  0  0.994774  0
H  H45  1  0.29023277  0.64192788  0.64951735  1  0.094879  0  0.109346  0.113962  0  0.990375  0
H  H46  1  0.47178960  0.63918111  0.64075621  1  0.105166  0  0.109331  0.113936  0  0.991325  0
H  H47  1  0.41004870  0.74332276  0.67032618  1  0.079853  0  0.109984  0.122692  0  0.986931  0
H  H48  1  0.85661737  0.18481973  0.92363380  1  0.104282  0  0.109801  0.115427  0  0.990791  0
H  H49  1  0.75617975  0.26367348  0.88960202  1  0.087284  0  0.109749  0.122642  0  0.986923  0
H  H50  1  0.73459239  0.10618425  0.87805549  1  0.059337  0  0.107269  0.119123  0  1.000357  0
H  H51  1  0.83387111  0.02786864  0.91314810  1  0.100894  0  0.109394  0.113578  0  0.986827  0
H  H52  1  0.66887874  0.17333902  0.81254099  1  0.079475  0  0.107822  0.1196  0  0.998667  0
H  H53  1  0.64012505  0.23004845  0.71163756  1  0.103729  0  0.109539  0.113937  0  0.988735  0
H  H54  1  0.64714937  0.40756943  0.69748654  1  0.101572  0  0.110011  0.115108  0  0.991147  0
H  H55  1  0.67679255  0.35086512  0.79839786  1  0.050249  0  0.109593  0.121987  0  0.985016  0
C  C56  1  0.12358972  0.86225808  0.13700081  1  1.552937  0  0.226049  0.605515  0  4.170942  0
C  C57  1  0.16122608  0.83733197  0.18103857  1  0.005729  0  -0.024573  -0.060858  0  3.989112  0
C  C58  1  0.12585810  0.83334237  0.24576421  1  -0.031746  0  -0.078441  -0.062842  0  3.98113  0
C  C59  1  0.15846219  0.81689675  0.28680518  1  0.027077  0  -0.097894  -0.199691  0  4.003435  0
C  C60  1  0.22696726  0.80396874  0.26322193  1  0.411692  0  0.089556  0.276031  0  4.042152  0
C  C61  1  0.26340890  0.80516253  0.19942324  1  -0.030424  0  -0.098826  -0.204342  0  3.999161  0
C  C62  1  0.23029618  0.82219548  0.15841008  1  -0.015598  0  -0.077782  -0.062536  0  3.976845  0
C  C63  1  0.29552900  0.73546776  0.33156842  1  0.420747  0  0.089587  0.275614  0  4.043166  0
C  C64  1  0.36334883  0.71078344  0.29936406  1  0.021193  0  -0.098556  -0.203208  0  4.003039  0
C  C65  1  0.40328946  0.65422047  0.33214695  1  -0.037483  0  -0.078027  -0.063215  0  3.975185  0
C  C66  1  0.37581297  0.62235063  0.39674465  1  -0.021653  0  -0.024063  -0.059131  0  3.985996  0
C  C67  1  0.30722150  0.64638764  0.42771266  1  -0.099382  0  -0.077997  -0.064324  0  3.97702  0
C  C68  1  0.26703548  0.70280894  0.39526244  1  0.018028  0  -0.097576  -0.199503  0  4.000537  0
C  C69  1  0.41948048  0.56643443  0.43398275  1  1.558571  0  0.225399  0.605036  0  4.172058  0
C  C70  1  0.90341569  0.05594672  0.14029918  1  1.579312  0  0.224798  0.605206  0  4.172916  0
C  C71  1  0.84401753  0.09299693  0.18329289  1  -0.01772  0  -0.025099  -0.060647  0  3.991056  0
C  C72  1  0.81436850  0.05856664  0.24595421  1  -0.026395  0  -0.078437  -0.065221  0  3.982954  0
C  C73  1  0.75580900  0.09136549  0.28535990  1  -0.039094  0  -0.096954  -0.196741  0  4.001856  0
C  C74  1  0.72691984  0.15907269  0.26243076  1  0.412845  0  0.089991  0.275964  0  4.039963  0
C  C75  1  0.75684847  0.19440342  0.20067232  1  0.047506  0  -0.099251  -0.204695  0  3.99895  0
C  C76  1  0.81514697  0.16104334  0.16121406  1  -0.087616  0  -0.077641  -0.062041  0  3.979793  0
C  C77  1  0.65879384  0.22776507  0.33135066  1  0.485705  0  0.089407  0.274725  0  4.040425  0
C  C78  1  0.65558301  0.29287078  0.29880366  1  -0.017776  0  -0.098786  -0.204156  0  4.002058  0
C  C79  1  0.64172299  0.33220715  0.33273469  1  -0.001759  0  -0.078249  -0.063007  0  3.978596  0
C  C80  1  0.63126835  0.30692091  0.39867916  1  -0.02264  0  -0.024609  -0.061421  0  3.991008  0
C  C81  1  0.63628761  0.24110291  0.43029996  1  -0.068039  0  -0.077623  -0.062022  0  3.978698  0
C  C82  1  0.64985091  0.20156576  0.39682674  1  -0.041177  0  -0.097427  -0.19884  0  3.999444  0
C  C83  1  0.61048474  0.35046255  0.43598911  1  1.543182  0  0.225736  0.607153  0  4.168836  0
C  C84  1  0.93196681  0.84038931  0.13038117  1  1.559967  0  0.225963  0.606878  0  4.169262  0
C  C85  1  0.91080942  0.78218702  0.17359745  1  -0.028393  0  -0.02473  -0.061451  0  3.988017  0
C  C86  1  0.90376402  0.76115112  0.23854941  1  -0.021232  0  -0.078632  -0.063475  0  3.980228  0
C  C87  1  0.88983355  0.70396668  0.27938124  1  -0.030635  0  -0.096951  -0.197522  0  4.005282  0
C  C88  1  0.88262246  0.66746597  0.25536665  1  0.402237  0  0.08891  0.272826  0  4.044569  0
C  C89  1  0.88740736  0.68879033  0.19123805  1  -0.004371  0  -0.098081  -0.202177  0  3.998117  0
C  C90  1  0.90171828  0.74607673  0.15044098  1  0.013194  0  -0.076977  -0.061488  0  3.976143  0
C  C91  1  0.81563412  0.59790640  0.32671725  1  0.443035  0  0.089924  0.275167  0  4.043891  0
C  C92  1  0.78436731  0.59473480  0.29422683  1  0.016686  0  -0.099158  -0.203179  0  3.999878  0
C  C93  1  0.72727754  0.57757765  0.32886343  1  -0.012518  0  -0.077814  -0.062913  0  3.979145  0
C  C94  1  0.70085715  0.56441805  0.39549117  1  -0.003309  0  -0.02573  -0.063152  0  3.994174  0
C  C95  1  0.73153641  0.56998212  0.42708805  1  -0.0266  0  -0.078116  -0.062083  0  3.979665  0
C  C96  1  0.78891787  0.58641798  0.39292439  1  -0.034089  0  -0.098991  -0.201211  0  4.004139  0
C  C97  1  0.64276488  0.54133189  0.43355660  1  1.535385  0  0.226063  0.606603  0  4.17299  0
C  C98  1  0.12118451  0.05867585  0.94928190  1  1.550996  0  0.226508  0.606981  0  4.172788  0
C  C99  1  0.16190729  0.10129714  0.92039294  1  0.006678  0  -0.024677  -0.062144  0  3.992072  0
C  C100  1  0.23071392  0.07368631  0.90854570  1  0.003559  0  -0.077794  -0.062922  0  3.980976  0
C  C101  1  0.26754153  0.11282170  0.88829077  1  0.005103  0  -0.098592  -0.201441  0  4.001543  0
C  C102  1  0.23525209  0.17985640  0.87988170  1  0.474715  0  0.089943  0.275839  0  4.047332  0
C  C103  1  0.16724966  0.20845378  0.88861420  1  -0.080428  0  -0.097561  -0.200225  0  4.003144  0
C  C104  1  0.13070634  0.16906134  0.90904129  1  -0.060124  0  -0.078175  -0.062687  0  3.979007  0
C  C105  1  0.30270546  0.24937831  0.80839677  1  0.425584  0  0.089618  0.274596  0  4.048761  0
C  C106  1  0.27122006  0.31535333  0.78059505  1  -0.033154  0  -0.097452  -0.198631  0  4.002133  0
C  C107  1  0.30782500  0.35063377  0.72447515  1  -0.009384  0  -0.078302  -0.065523  0  3.980744  0
C  C108  1  0.37565533  0.32015383  0.69591747  1  -0.012925  0  -0.024894  -0.059941  0  3.988555  0
C  C109  1  0.40567275  0.25309267  0.72246436  1  -0.008357  0  -0.078115  -0.063496  0  3.977116  0
C  C110  1  0.36935621  0.21752250  0.77861568  1  -0.014686  0  -0.098808  -0.201682  0  4.001829  0
C  C111  1  0.41685608  0.35982852  0.64138117  1  1.551717  0  0.226087  0.606681  0  4.172501  0
C  C112  1  0.12378898  0.86915235  0.91916610  1  1.5459  0  0.227004  0.609279  0  4.167993  0
C  C113  1  0.16700222  0.84803219  0.86052051  1  -0.013656  0  -0.024852  -0.061266  0  3.988962  0
C  C114  1  0.23424791  0.84214652  0.83481749  1  -0.011407  0  -0.078202  -0.063771  0  3.979842  0
C  C115  1  0.27390127  0.82755601  0.77742327  1  -0.001053  0  -0.096932  -0.198178  0  4.001616  0
C  C116  1  0.24641166  0.81840648  0.74564825  1  0.446377  0  0.088638  0.273241  0  4.044357  0
C  C117  1  0.17992754  0.82234583  0.77153792  1  -0.060128  0  -0.098335  -0.201597  0  3.999508  0
C  C118  1  0.14039319  0.83737660  0.82883969  1  -0.019143  0  -0.07823  -0.064604  0  3.977216  0
C  C119  1  0.31607082  0.74995089  0.67634180  1  0.426186  0  0.089996  0.274952  0  4.043537  0
C  C120  1  0.28138415  0.72159997  0.67169582  1  0.037812  0  -0.099217  -0.202098  0  3.998344  0
C  C121  1  0.31589506  0.66399985  0.65501629  1  -0.083031  0  -0.078376  -0.065554  0  3.981267  0
C  C122  1  0.38470756  0.63459489  0.64310333  1  0.021792  0  -0.024877  -0.059948  0  3.989046  0
C  C123  1  0.41840583  0.66258573  0.64989702  1  0.009242  0  -0.077982  -0.062779  0  3.98136  0
C  C124  1  0.38429412  0.72010013  0.66644629  1  -0.031845  0  -0.098018  -0.199307  0  4.003903  0
C  C125  1  0.42312056  0.57640988  0.61946093  1  1.53461  0  0.224732  0.603575  0  4.172368  0
C  C126  1  0.90681519  0.05548429  0.94669520  1  1.549799  0  0.225337  0.60756  0  4.172983  0
C  C127  1  0.85093248  0.10170605  0.92071750  1  -0.059788  0  -0.02475  -0.06049  0  3.985646  0
C  C128  1  0.82967225  0.16836512  0.91316746  1  0.021  0  -0.078737  -0.06443  0  3.981853  0
C  C129  1  0.77437302  0.21204807  0.89411766  1  -0.064641  0  -0.099042  -0.200689  0  4.006041  0
C  C130  1  0.74010795  0.18932117  0.88205005  1  0.430093  0  0.090408  0.276469  0  4.040685  0
C  C131  1  0.76191522  0.12339554  0.88725725  1  -0.017557  0  -0.099304  -0.204294  0  3.997914  0
C  C132  1  0.81713004  0.07974782  0.90696059  1  0.019101  0  -0.078344  -0.064869  0  3.975586  0
C  C133  1  0.67406371  0.25941854  0.81096108  1  0.394281  0  0.089732  0.274748  0  4.041069  0
C  C134  1  0.66543341  0.22420216  0.78656431  1  -0.077995  0  -0.098562  -0.203718  0  3.999097  0
C  C135  1  0.64915683  0.25584274  0.73052481  1  0.049416  0  -0.07842  -0.064137  0  3.976697  0
C  C136  1  0.64146583  0.32222612  0.69895453  1  -0.034728  0  -0.025293  -0.061121  0  3.990668  0
C  C137  1  0.65292543  0.35612546  0.72267344  1  -0.053286  0  -0.078507  -0.064578  0  3.984221  0
C  C138  1  0.66934781  0.32487995  0.77839362  1  0.060972  0  -0.097305  -0.19682  0  4.000974  0
C  C139  1  0.61610916  0.35866813  0.64368490  1  1.573657  0  0.225836  0.606089  0  4.173715  0
O  O140  1  0.02073965  0.95439221  0.03469642  1  -1.213655  0  -0.571157  -1.025763  0  2.528209  0
O  O141  1  0.15550197  0.87342949  0.07700570  1  -1.168991  0  -0.316844  -0.548559  0  2.312962  0
O  O142  1  0.06125712  0.87196620  0.16320369  1  -1.189062  0  -0.320663  -0.5543  0  2.361272  0
O  O143  1  0.25583062  0.79638691  0.30364282  1  -1.123191  0  -0.177587  -0.25899  0  2.540598  0
O  O144  1  0.39079038  0.54033848  0.49274935  1  -1.185406  0  -0.320066  -0.554309  0  2.340857  0
O  O145  1  0.48213222  0.55005280  0.40465085  1  -1.177628  0  -0.31718  -0.54943  0  2.327284  0
O  O146  1  0.92246940  0.08678924  0.08074857  1  -1.178231  0  -0.317335  -0.551305  0  2.31863  0
O  O147  1  0.93016449  0.99526595  0.16657524  1  -1.184764  0  -0.31964  -0.551326  0  2.352526  0
O  O148  1  0.66511302  0.18841931  0.30147507  1  -1.12263  0  -0.176922  -0.258281  0  2.533173  0
O  O149  1  0.60515099  0.32326472  0.49525155  1  -1.175058  0  -0.319202  -0.55234  0  2.339153  0
O  O150  1  0.59852205  0.41148545  0.40612440  1  -1.178487  0  -0.316405  -0.549658  0  2.331754  0
O  O151  1  0.94746610  0.85400706  0.07003941  1  -1.175381  0  -0.315056  -0.547554  0  2.298734  0
O  O152  1  0.93403387  0.87170805  0.15791180  1  -1.185149  0  -0.323549  -0.557931  0  2.366497  0
O  O153  1  0.87694428  0.60671691  0.29589576  1  -1.118629  0  -0.177008  -0.256833  0  2.539345  0
O  O154  1  0.61962283  0.53449774  0.49338530  1  -1.17701  0  -0.318814  -0.551349  0  2.351642  0
O  O155  1  0.62129818  0.52927696  0.40395614  1  -1.164826  0  -0.318055  -0.55081  0  2.324123  0
O  O156  1  0.05820519  0.08733018  0.96392292  1  -1.178419  0  -0.318698  -0.548894  0  2.347173  0
O  O157  1  0.15185106  0.99736058  0.95844771  1  -1.174864  0  -0.317417  -0.553167  0  2.329271  0
O  O158  1  0.26914238  0.21760977  0.86962289  1  -1.118146  0  -0.179996  -0.261255  0  2.544219  0
O  O159  1  0.47868838  0.32954267  0.61876494  1  -1.187825  0  -0.319097  -0.554851  0  2.338883  0
O  O160  1  0.38711866  0.42150678  0.62284591  1  -1.180438  0  -0.318024  -0.549241  0  2.33547  0
O  O161  1  0.06144697  0.88179304  0.93610900  1  -1.176719  0  -0.316048  -0.550306  0  2.323329  0
O  O162  1  0.15295538  0.87383900  0.94712180  1  -1.173141  0  -0.321389  -0.55563  0  2.342469  0
O  O163  1  0.28538829  0.81130306  0.68503728  1  -1.117748  0  -0.178827  -0.259909  0  2.53335  0
O  O164  1  0.48570696  0.55345288  0.60926190  1  -1.185804  0  -0.319178  -0.550609  0  2.350518  0
O  O165  1  0.39119893  0.55477847  0.61015173  1  -1.172824  0  -0.317044  -0.551479  0  2.323789  0
O  O166  1  0.91881597  0.99415528  0.96278155  1  -1.166927  0  -0.316461  -0.550295  0  2.305321  0
O  O167  1  0.93780397  0.08150249  0.95170932  1  -1.179355  0  -0.322058  -0.55696  0  2.359351  0
O  O168  1  0.68073672  0.23362342  0.87097739  1  -1.114137  0  -0.17566  -0.2562  0  2.548328  0
O  O169  1  0.60616400  0.41995639  0.62113604  1  -1.188724  0  -0.31829  -0.552036  0  2.356666  0
O  O170  1  0.60477882  0.32656011  0.62415263  1  -1.17487  0  -0.318046  -0.550249  0  2.32262  0
O  O171  1  0.52279687  0.45713892  0.53299904  1  -1.213144  0  -0.571222  -1.025438  0  2.530564  0
