# generated using pymatgen
data_V2ZnH8C12(NO2)3
_symmetry_space_group_name_H-M   'P 1'
_cell_length_a   8.04282882
_cell_length_b   8.95845911
_cell_length_c   11.07369101
_cell_angle_alpha   105.84863653
_cell_angle_beta   102.10228076
_cell_angle_gamma   108.24180868
_symmetry_Int_Tables_number   1
_chemical_formula_structural   V2ZnH8C12(NO2)3
_chemical_formula_sum   'V4 Zn2 H16 C24 N6 O12'
_cell_volume   689.88657106
_cell_formula_units_Z   2
loop_
 _symmetry_equiv_pos_site_id
 _symmetry_equiv_pos_as_xyz
  1  'x, y, z'
loop_
 _atom_site_type_symbol
 _atom_site_label
 _atom_site_symmetry_multiplicity
 _atom_site_fract_x
 _atom_site_fract_y
 _atom_site_fract_z
 _atom_site_occupancy
 _atom_site_pbe_bader_spin_density
 _atom_site_pbe_cm5_charge
 _atom_site_pbe_ddec_charge
 _atom_site_pbe_ddec_spin_density
 _atom_site_pbe_ddec_sum_bond_order
 _atom_site_pbe_magmom
V  V0  1  0.47415149  0.27856582  0.07147995  1  0  1.443877  1.980404  0  3.461625  0
V  V1  1  0.52584910  0.72143527  0.92852054  1  0  1.443891  1.980425  0  3.461614  0
V  V2  1  0.72779541  0.06817041  0.19456157  1  0  1.434359  1.960938  0  3.497858  0
V  V3  1  0.27220463  0.93182941  0.80543765  1  0  1.434358  1.960958  0  3.497824  0
Zn  Zn4  1  0.16381383  0.35527496  0.25120442  1  0  0.704417  0.873781  0  2.457115  0
Zn  Zn5  1  0.83618549  0.64472613  0.74879498  1  0  0.704415  0.873787  0  2.457129  0
H  H6  1  0.21426148  0.54523211  0.05971557  1  0  0.122329  0.108897  0  1.020703  0
H  H7  1  0.78573911  0.45476898  0.94028492  1  0  0.122333  0.108891  0  1.020702  0
H  H8  1  0.17639033  0.80334543  0.03325607  1  0  0.114701  0.124372  0  1.035352  0
H  H9  1  0.82360972  0.19665440  0.96674405  1  0  0.114708  0.124375  0  1.035348  0
H  H10  1  0.06547769  0.96923513  0.19598150  1  0  0.113504  0.108352  0  1.021735  0
H  H11  1  0.93452363  0.03076469  0.80401883  1  0  0.113498  0.10834  0  1.021741  0
H  H12  1  0.98949065  0.86839846  0.37440997  1  0  0.11358  0.125139  0  1.004251  0
H  H13  1  0.01050994  0.13160263  0.62558962  1  0  0.113596  0.12517  0  1.004239  0
H  H14  1  0.69607959  0.65465674  0.27415584  1  0  0.114405  0.139384  0  1.038756  0
H  H15  1  0.30392100  0.34534435  0.72584465  1  0  0.114408  0.139383  0  1.038772  0
H  H16  1  0.47955077  0.79596563  0.29102962  1  0  0.112434  0.105305  0  1.019715  0
H  H17  1  0.52044928  0.20403420  0.70897051  1  0  0.112427  0.105306  0  1.019689  0
H  H18  1  0.39781199  0.86737841  0.50425374  1  0  0.106272  0.122289  0  1.032661  0
H  H19  1  0.60218751  0.13262015  0.49574603  1  0  0.106265  0.122292  0  1.032641  0
H  H20  1  0.55636533  0.80757467  0.69183834  1  0  0.116408  0.093501  0  1.064899  0
H  H21  1  0.44363417  0.19242390  0.30816143  1  0  0.116412  0.093514  0  1.064886  0
C  C22  1  0.15759036  0.61652342  0.12402109  1  0  0.059068  0.099543  0  3.923256  0
C  C23  1  0.84241023  0.38347767  0.87597940  1  0  0.059073  0.099566  0  3.923284  0
C  C24  1  0.14150270  0.76293310  0.11218758  1  0  -0.066706  -0.104061  0  3.891024  0
C  C25  1  0.85849789  0.23706799  0.88781291  1  0  -0.066726  -0.104085  0  3.891028  0
C  C26  1  0.07862903  0.85384567  0.20208980  1  0  -0.050345  0.001861  0  3.902317  0
C  C27  1  0.92137101  0.14615416  0.79791033  1  0  -0.050331  0.001893  0  3.9023  0
C  C28  1  0.03179530  0.79566027  0.30005582  1  0  -0.0665  -0.134633  0  3.895694  0
C  C29  1  0.96820475  0.20433956  0.69994341  1  0  -0.066514  -0.13467  0  3.895642  0
C  C30  1  0.04256656  0.64386635  0.30199406  1  0  0.12956  0.186875  0  3.950277  0
C  C31  1  0.95743094  0.35613348  0.69800478  1  0  0.129604  0.186964  0  3.950162  0
C  C32  1  0.00520159  0.57125333  0.40383105  1  0  0.154063  0.141598  0  3.89723  0
C  C33  1  0.99479845  0.42874649  0.59616908  1  0  0.15403  0.141559  0  3.897199  0
C  C34  1  0.88994454  0.58873538  0.48286737  1  0  0.153738  0.147244  0  3.908285  0
C  C35  1  0.11005605  0.41126571  0.51713312  1  0  0.153774  0.147291  0  3.908247  0
C  C36  1  0.75630418  0.67107839  0.47896113  1  0  0.122984  0.172545  0  3.965386  0
C  C37  1  0.24369587  0.32892144  0.52103900  1  0  0.122988  0.172572  0  3.965326  0
C  C38  1  0.67015513  0.69663127  0.36777011  1  0  -0.067753  -0.14609  0  3.894823  0
C  C39  1  0.32984491  0.30336856  0.63223002  1  0  -0.06776  -0.146119  0  3.894832  0
C  C40  1  0.54285200  0.77153573  0.37633757  1  0  -0.057275  0.002846  0  3.923901  0
C  C41  1  0.45714877  0.22846284  0.62366239  1  0  -0.057268  0.002844  0  3.923893  0
C  C42  1  0.49887994  0.81206354  0.49271887  1  0  -0.079321  -0.12072  0  3.935302  0
C  C43  1  0.50111829  0.18793503  0.50728071  1  0  -0.079315  -0.120709  0  3.935273  0
C  C44  1  0.58668416  0.77870969  0.59872213  1  0  0.05158  0.10089  0  3.92449  0
C  C45  1  0.41331461  0.22129014  0.40127780  1  0  0.051579  0.100872  0  3.924505  0
N  N46  1  0.10841176  0.55847558  0.21590192  1  0  -0.31762  -0.272864  0  3.521134  0
N  N47  1  0.89158829  0.44152425  0.78409821  1  0  -0.317657  -0.272954  0  3.521196  0
N  N48  1  0.10593210  0.48188579  0.42524688  1  0  -0.305877  -0.298055  0  3.595646  0
N  N49  1  0.89406976  0.51811530  0.57475380  1  0  -0.305842  -0.298017  0  3.595626  0
N  N50  1  0.71264524  0.71100081  0.59237388  1  0  -0.317068  -0.275377  0  3.521393  0
N  N51  1  0.28735481  0.28899902  0.40762625  1  0  -0.31707  -0.275383  0  3.521403  0
O  O52  1  0.65050455  0.44787715  0.09561025  1  0  -0.592354  -0.755665  0  1.558063  0
O  O53  1  0.34949549  0.55212268  0.90438987  1  0  -0.592351  -0.755658  0  1.558051  0
O  O54  1  0.32461842  0.33021228  0.14431747  1  0  -0.632228  -0.864048  0  1.861594  0
O  O55  1  0.67538163  0.66978754  0.85568176  1  0  -0.63224  -0.864083  0  1.861597  0
O  O56  1  0.55675625  0.15045086  0.14781557  1  0  -0.695578  -1.025208  0  1.974413  0
O  O57  1  0.44324379  0.84954897  0.85218456  1  0  -0.695584  -1.025218  0  1.974424  0
O  O58  1  0.36904706  0.15576689  0.89526088  1  0  -0.686873  -0.966538  0  1.853629  0
O  O59  1  0.63095244  0.84423167  0.10473889  1  0  -0.686886  -0.966533  0  1.853629  0
O  O60  1  0.92015150  0.16365232  0.16008561  1  0  -0.619651  -0.863895  0  1.887111  0
O  O61  1  0.07984854  0.83634751  0.83991452  1  0  -0.61965  -0.863893  0  1.887097  0
O  O62  1  0.78045409  0.10440905  0.35360983  1  0  -0.612139  -0.768632  0  1.523855  0
O  O63  1  0.21954596  0.89559078  0.64638939  1  0  -0.612154  -0.768656  0  1.52384  0
