# generated using pymatgen
data_CuH16(C3N7)2
_symmetry_space_group_name_H-M   'P 1'
_cell_length_a   7.26625894
_cell_length_b   8.18209930
_cell_length_c   11.26896753
_cell_angle_alpha   91.21573329
_cell_angle_beta   82.17947631
_cell_angle_gamma   73.70469157
_symmetry_Int_Tables_number   1
_chemical_formula_structural   CuH16(C3N7)2
_chemical_formula_sum   'Cu2 H32 C12 N28'
_cell_volume   635.83755582
_cell_formula_units_Z   2
loop_
 _symmetry_equiv_pos_site_id
 _symmetry_equiv_pos_as_xyz
  1  'x, y, z'
loop_
 _atom_site_type_symbol
 _atom_site_label
 _atom_site_symmetry_multiplicity
 _atom_site_fract_x
 _atom_site_fract_y
 _atom_site_fract_z
 _atom_site_occupancy
 _atom_site_hle17_ddec_charge
 _atom_site_hle17_ddec_spin_density
 _atom_site_hle17_ddec_sum_bond_order
 _atom_site_hle17_magmom
 _atom_site_hse06_10hf_ddec_charge
 _atom_site_hse06_10hf_ddec_spin_density
 _atom_site_hse06_10hf_ddec_sum_bond_order
 _atom_site_hse06_10hf_magmom
 _atom_site_hse06_ddec_charge
 _atom_site_hse06_ddec_spin_density
 _atom_site_hse06_ddec_sum_bond_order
 _atom_site_hse06_magmom
 _atom_site_pbe_cm5_charge
 _atom_site_pbe_ddec_charge
 _atom_site_pbe_ddec_spin_density
 _atom_site_pbe_ddec_sum_bond_order
 _atom_site_pbe_magmom
Cu  Cu0  1  0.50000743  0.99997547  0.99998274  1  0.738513  0.657406  1.849525  0.483  0.687557  0.748026  2.258805  0.589  0.768445  0.804042  2.195368  0.661  0.728275  0.640871  0.712416  2.298798  0.547
Cu  Cu1  1  0.49999415  0.50001106  0.50000363  1  0.774574  0.645189  1.770292  0.473  0.737286  0.732141  2.157275  0.576  0.810725  0.787258  2.101987  0.645  0.741079  0.693029  0.696095  2.19595  0.533
H  H2  1  0.87499845  0.22256151  0.40892312  1  0.066971  2e-06  0.971771  0.0  0.069247  -4.5e-05  1.055238  0.0  0.070032  -6.6e-05  1.05446  0.0  0.098545  0.068512  -2e-05  1.05599  0.0
H  H3  1  0.12499919  0.77746497  0.59107901  1  0.067161  6e-06  0.971905  0.0  0.069444  -4.5e-05  1.055278  0.0  0.070228  -6.6e-05  1.054503  0.0  0.098576  0.06871  -2e-05  1.056019  0.0
H  H4  1  0.80479234  0.59455327  0.45354340  1  0.278196  -0.001112  0.940032  -0.001  0.253735  0.000222  1.027841  0.0  0.261423  -0.000155  1.022328  0.0  0.282499  0.248338  0.00052  1.031938  0.0
H  H5  1  0.19519390  0.40548049  0.54646511  1  0.278162  -0.001111  0.940167  -0.001  0.253752  0.000223  1.027941  0.0  0.261439  -0.000154  1.022427  0.0  0.282627  0.248354  0.000522  1.032047  0.0
H  H6  1  0.02158665  0.34625999  0.34028168  1  0.061651  0.003033  0.945165  0.004  0.071872  0.002196  1.01737  0.003  0.072648  0.001612  1.016182  0.002  0.09667  0.071334  0.002641  1.01817  0.003
H  H7  1  0.97838778  0.65378343  0.65972326  1  0.061787  0.003036  0.945351  0.004  0.072084  0.002196  1.017429  0.003  0.072865  0.001611  1.016237  0.002  0.096805  0.071545  0.002641  1.018231  0.003
H  H8  1  0.13635678  0.03661663  0.08654112  1  0.288848  -0.001267  0.939286  -0.002  0.271374  0.00025  1.01149  0.0  0.279123  -4.5e-05  1.006383  -0.001  0.287277  0.265969  0.000483  1.015265  0.0
H  H9  1  0.86366133  0.96334036  0.91343901  1  0.288836  -0.00127  0.939251  -0.002  0.271369  0.000249  1.011429  0.0  0.279117  -4.5e-05  1.006319  -0.001  0.287275  0.265964  0.000482  1.015204  0.0
H  H10  1  0.50403042  0.29151387  0.32732816  1  0.283985  -0.001537  0.946039  -0.002  0.263889  -9.8e-05  1.023805  0.0  0.271796  -0.000415  1.01816  -0.001  0.280357  0.25834  0.000168  1.027947  0.0
H  H11  1  0.49596626  0.70850266  0.67267569  1  0.284188  -0.001535  0.946083  -0.002  0.264025  -9.7e-05  1.023913  0.0  0.271934  -0.000414  1.018266  -0.001  0.280408  0.258467  0.000169  1.028067  0.0
H  H12  1  0.44850716  0.48843188  0.28063686  1  0.281345  -0.001865  0.93524  -0.002  0.261749  -4.1e-05  1.015371  -0.001  0.269663  -0.00038  1.009233  -0.001  0.286877  0.256181  0.000251  1.019936  0.0
H  H13  1  0.55147824  0.51157901  0.71936353  1  0.281418  -0.001865  0.935065  -0.002  0.261786  -4.3e-05  1.015239  -0.001  0.269703  -0.000382  1.009097  -0.001  0.286852  0.256221  0.00025  1.019807  0.0
H  H14  1  0.75489716  0.49920387  0.23385063  1  0.057666  -7.6e-05  0.955754  0.0  0.071305  -7.5e-05  1.024636  0.0  0.071952  -5.7e-05  1.024724  0.0  0.101261  0.070749  -8.2e-05  1.024666  0.0
H  H15  1  0.24508431  0.50082529  0.76615258  1  0.057735  -7.4e-05  0.955672  0.0  0.071316  -7.5e-05  1.024624  0.0  0.071965  -5.7e-05  1.024706  0.0  0.101258  0.070764  -8.2e-05  1.024658  0.0
H  H16  1  0.84488395  0.43982310  0.54917277  1  0.280442  -0.001384  0.962121  -0.002  0.265206  9.1e-05  1.027038  -0.001  0.272928  -0.000185  1.022892  -0.001  0.284137  0.259912  0.000317  1.029984  0.0
H  H17  1  0.15510262  0.56019609  0.45082330  1  0.28034  -0.00139  0.962117  -0.002  0.265087  9e-05  1.027088  -0.001  0.272811  -0.000186  1.022936  -0.001  0.284084  0.2598  0.000316  1.030013  0.0
H  H18  1  0.50242227  0.27569545  0.10792742  1  0.288612  -0.000634  0.891338  -0.001  0.284911  0.001043  0.941678  0.0  0.290595  0.000481  0.939305  0.0  0.299134  0.280831  0.001513  0.943862  0.001
H  H19  1  0.49760030  0.72423451  0.89206833  1  0.288385  -0.000627  0.891418  -0.001  0.284794  0.001045  0.94166  0.0  0.290476  0.000483  0.939291  0.0  0.299083  0.280723  0.001516  0.94384  0.001
H  H20  1  0.61796675  0.26442318  0.96697662  1  0.27867  -0.001498  0.966525  -0.002  0.255238  3.5e-05  1.049708  -0.001  0.263419  -0.000253  1.044407  -0.001  0.282866  0.249545  0.000275  1.053584  0.0
H  H21  1  0.38204217  0.73554954  0.03301527  1  0.278642  -0.001495  0.966623  -0.002  0.255287  3.5e-05  1.049692  -0.001  0.263469  -0.000252  1.044387  -0.001  0.282878  0.249593  0.000275  1.05357  0.0
H  H22  1  0.79783677  0.27485726  0.20556790  1  0.055821  0.002614  0.924928  0.003  0.075297  0.002027  0.982853  0.002  0.075392  0.001495  0.982898  0.002  0.098716  0.075147  0.002435  0.98291  0.003
H  H23  1  0.20215482  0.72517590  0.79443636  1  0.055799  0.002616  0.924902  0.003  0.075296  0.002028  0.982796  0.002  0.075391  0.001496  0.982841  0.002  0.098683  0.075145  0.002436  0.982864  0.003
H  H24  1  0.28375928  0.48369032  0.00669071  1  0.056185  0.003195  0.972101  0.004  0.068201  0.002486  1.042597  0.003  0.068974  0.001807  1.041503  0.002  0.098575  0.067619  0.003013  1.043336  0.003
H  H25  1  0.71625571  0.51629091  0.99334179  1  0.056132  0.003189  0.972143  0.004  0.068258  0.002485  1.04259  0.003  0.069034  0.001807  1.041494  0.002  0.098638  0.067676  0.003012  1.04333  0.003
H  H26  1  0.01197765  0.34666079  0.02579585  1  0.054416  0.002955  0.957097  0.004  0.067212  0.002136  1.026277  0.003  0.066897  0.00154  1.027172  0.002  0.098272  0.067383  0.002589  1.025647  0.003
H  H27  1  0.98802271  0.65331697  0.97422186  1  0.054291  0.002955  0.957167  0.004  0.067151  0.002136  1.026338  0.003  0.066842  0.00154  1.027232  0.002  0.098229  0.06732  0.002589  1.025704  0.003
H  H28  1  0.32497162  0.32429384  0.88723738  1  0.070637  0.000112  0.969641  0.0  0.081793  5.7e-05  1.038662  0.0  0.082708  2.1e-05  1.037947  0.0  0.106365  0.080935  9.3e-05  1.039383  0.0
H  H29  1  0.67502973  0.67570177  0.11276285  1  0.07077  0.000106  0.969562  0.0  0.081941  5.6e-05  1.0386  0.0  0.082885  2.1e-05  1.037854  0.0  0.106442  0.081084  9.2e-05  1.039318  0.0
H  H30  1  0.16269994  0.07139891  0.94080971  1  0.284602  -0.001714  0.92478  -0.002  0.269329  -0.000169  0.994732  0.0  0.275985  -0.000483  0.991173  -0.001  0.287345  0.264665  8.9e-05  0.997507  0.0
H  H31  1  0.83730092  0.92858575  0.05916810  1  0.284676  -0.001712  0.924935  -0.002  0.269441  -0.000168  0.994805  0.0  0.276094  -0.000482  0.991247  -0.001  0.287443  0.264775  9e-05  0.997575  0.0
H  H32  1  0.14822041  0.30206854  0.14734713  1  0.067209  -0.000138  0.942598  0.0  0.080089  -0.000118  1.011483  0.0  0.08029  -0.000104  1.011574  0.0  0.106252  0.079776  -0.000113  1.011602  0.0
H  H33  1  0.85180510  0.69787153  0.85266540  1  0.067231  -0.00014  0.942342  0.0  0.080114  -0.000118  1.011341  0.0  0.080318  -0.000104  1.011436  0.0  0.106184  0.079791  -0.000112  1.011474  0.0
C  C34  1  0.33216840  0.02048813  0.41712164  1  0.341438  7.6e-05  3.838006  0.0  0.312488  1.1e-05  4.130256  0.0  0.316917  -5e-06  4.151276  0.0  0.294618  0.309868  1.5e-05  4.11575  0.0
C  C35  1  0.66783331  0.97952375  0.58287651  1  0.341792  6.7e-05  3.838181  0.0  0.312749  1e-05  4.130525  0.0  0.317181  -7e-06  4.151543  0.0  0.294733  0.31013  1.5e-05  4.11602  0.0
C  C36  1  0.87203746  0.34723631  0.37408823  1  0.033455  -0.001663  3.64317  -0.002  -0.021885  0.001166  3.915936  0.0  -0.017266  8.3e-05  3.928552  -0.001  -0.086978  -0.024754  0.002041  3.907333  0.001
C  C37  1  0.12794552  0.65280191  0.62591593  1  0.032732  -0.001688  3.644007  -0.002  -0.022609  0.001167  3.91673  0.0  -0.017988  8.3e-05  3.929337  -0.001  -0.087161  -0.025473  0.002043  3.90812  0.001
C  C38  1  0.74649749  0.38073919  0.27497451  1  0.053  -0.003002  3.628265  -0.004  -0.000573  0.000507  3.892819  -0.001  0.004161  -0.000419  3.905127  -0.002  -0.078933  -0.003489  0.001279  3.884253  -0.001
C  C39  1  0.25350125  0.61927995  0.72502978  1  0.053003  -0.002997  3.628338  -0.004  -0.000519  0.00051  3.892731  -0.001  0.004212  -0.000417  3.905047  -0.002  -0.078971  -0.003442  0.00128  3.884169  -0.001
C  C40  1  0.15431678  0.28057343  0.05022471  1  0.048748  -0.002905  3.631856  -0.003  -0.004847  0.000386  3.898692  -0.001  -0.00019  -0.000535  3.91259  -0.001  -0.078805  -0.007743  0.001146  3.889345  0.0
C  C41  1  0.84568789  0.71938807  0.94978641  1  0.048966  -0.002911  3.631463  -0.003  -0.004772  0.000384  3.898571  -0.001  -0.000141  -0.000535  3.912509  -0.001  -0.078659  -0.007646  0.001144  3.889195  0.0
C  C42  1  0.31273000  0.34672640  0.98471927  1  0.030387  -0.002435  3.644091  -0.003  -0.026254  0.000927  3.911653  0.0  -0.021551  -0.000173  3.923579  -0.001  -0.08581  -0.02918  0.001823  3.903767  0.0
C  C43  1  0.68726462  0.65325107  0.01529654  1  0.03023  -0.002401  3.643825  -0.003  -0.026572  0.000926  3.911766  0.0  -0.02188  -0.000173  3.923672  -0.001  -0.086123  -0.02951  0.001825  3.903885  0.0
C  C44  1  0.03792999  0.16513559  0.69269600  1  0.366093  0.000265  3.824214  0.0  0.330564  0.000157  4.120185  0.0  0.337498  8.8e-05  4.138389  0.0  0.306015  0.325926  0.000261  4.107921  0.0
C  C45  1  0.96206866  0.83487569  0.30729812  1  0.365916  0.000246  3.824695  0.0  0.330499  0.000158  4.120474  0.0  0.337431  8.8e-05  4.138681  0.0  0.305998  0.325861  0.000261  4.108202  0.0
N  N46  1  0.78329529  0.47819504  0.47300210  1  -0.585515  0.09141  3.175825  0.116  -0.555546  0.062249  3.456416  0.081  -0.585971  0.051401  3.456914  0.072  -0.652797  -0.536223  0.068331  3.456883  0.085
N  N47  1  0.21668075  0.52181910  0.52701183  1  -0.585182  0.091434  3.176135  0.116  -0.555325  0.062254  3.456749  0.081  -0.585745  0.051403  3.457251  0.072  -0.652838  -0.536011  0.068338  3.457202  0.085
N  N48  1  0.20530866  0.09459998  0.02143789  1  -0.584047  0.090579  3.131716  0.115  -0.557143  0.062429  3.407741  0.081  -0.588222  0.050801  3.409162  0.072  -0.641875  -0.537974  0.069358  3.407814  0.086
N  N49  1  0.79471047  0.90535716  0.97855194  1  -0.584103  0.09059  3.131776  0.115  -0.557195  0.062432  3.407911  0.081  -0.588274  0.050804  3.409355  0.072  -0.641971  -0.538032  0.069363  3.407978  0.086
N  N50  1  0.39566657  0.09219073  0.31787247  1  -0.315047  -0.000115  2.990338  0.0  -0.2797  -0.000151  3.268965  0.0  -0.28831  -0.000259  3.28414  0.0  -0.207548  -0.273605  5e-06  3.258916  0.0
N  N51  1  0.60433665  0.90781704  0.68211504  1  -0.315187  -0.000104  2.990611  0.0  -0.279761  -0.000154  3.269254  0.0  -0.288372  -0.000255  3.284432  0.0  -0.207541  -0.273659  5e-06  3.259199  0.0
N  N52  1  0.48905711  0.96169400  0.23971604  1  -0.144294  -0.001984  3.021229  0.0  -0.131002  -0.002113  3.339829  -0.001  -0.137988  -0.002257  3.3537  -0.001  -0.117037  -0.12701  -0.001885  3.331244  0.0
N  N53  1  0.51095284  0.03830864  0.76027987  1  -0.144276  -0.001992  3.021228  0.0  -0.131022  -0.002112  3.339846  -0.001  -0.13801  -0.002258  3.353712  -0.001  -0.11703  -0.127029  -0.001886  3.331267  0.0
N  N54  1  0.22157163  0.12568921  0.51394327  1  -0.151024  3.5e-05  3.015511  0.0  -0.1204  2.7e-05  3.294066  0.0  -0.117418  -4.2e-05  3.298423  0.0  -0.127474  -0.122559  0.00031  3.291334  0.0
N  N55  1  0.77841149  0.87432072  0.48605928  1  -0.151027  2.2e-05  3.014695  0.0  -0.12042  2.8e-05  3.2933  0.0  -0.117438  -4.3e-05  3.297659  0.0  -0.127507  -0.122585  0.000311  3.290566  0.0
N  N56  1  0.16429135  0.05151324  0.60422126  1  -0.150332  -2.6e-05  2.940755  0.0  -0.127485  3.8e-05  3.22239  0.0  -0.125127  -1.4e-05  3.226548  0.0  -0.133844  -0.129018  0.000249  3.219736  0.0
N  N57  1  0.83571809  0.94850918  0.39576170  1  -0.150348  3e-06  2.940062  0.0  -0.127496  3.8e-05  3.221654  0.0  -0.125135  -1.3e-05  3.22581  0.0  -0.13384  -0.129034  0.000249  3.219009  0.0
N  N58  1  0.38639237  0.84742271  0.40068776  1  -0.310929  -0.001239  2.939392  0.0  -0.297861  -0.001525  3.245296  0.0  -0.308308  -0.001687  3.260859  0.0  -0.208701  -0.291273  -0.001226  3.235355  0.0
N  N59  1  0.61360928  0.15258904  0.59930951  1  -0.311475  -0.001234  2.939478  0.0  -0.298397  -0.001525  3.2454  0.0  -0.308845  -0.001688  3.260955  0.0  -0.208938  -0.291809  -0.001226  3.235471  0.0
N  N60  1  0.48300358  0.81408926  0.28989154  1  -0.099515  -0.000302  2.970749  0.0  -0.083033  -0.000389  3.284301  0.0  -0.085529  -0.000405  3.300776  0.0  -0.104912  -0.080764  -0.000366  3.27349  0.0
N  N61  1  0.51700430  0.18591837  0.71011234  1  -0.099181  -0.000317  2.970641  0.0  -0.082604  -0.000386  3.28405  0.0  -0.085092  -0.000407  3.300514  0.0  -0.104764  -0.080339  -0.000366  3.273252  0.0
N  N62  1  0.82962105  0.38423894  0.78540063  1  -0.10496  0.000167  3.000681  0.0  -0.084752  0.000166  3.28813  0.0  -0.086299  5.3e-05  3.300359  0.0  -0.099828  -0.083351  0.000325  3.279755  0.0
N  N63  1  0.17037248  0.61575919  0.21459957  1  -0.104908  0.000147  3.000646  0.0  -0.084731  0.000166  3.288081  0.0  -0.086272  5.3e-05  3.300303  0.0  -0.099869  -0.083333  0.000325  3.279706  0.0
N  N64  1  0.94696277  0.33176404  0.68211795  1  -0.311459  5.9e-05  3.022354  0.0  -0.27101  0.000255  3.287438  0.0  -0.282581  7.6e-05  3.303945  0.0  -0.200601  -0.263171  0.000498  3.276355  0.001
N  N65  1  0.05303656  0.66824878  0.31788671  1  -0.311383  8.3e-05  3.022271  0.0  -0.270929  0.000255  3.287277  0.0  -0.282501  7.3e-05  3.303779  0.0  -0.200549  -0.263093  0.000497  3.27619  0.001
N  N66  1  0.97891782  0.11486543  0.80141252  1  -0.332543  0.000136  2.965144  0.0  -0.299825  0.00021  3.234107  0.0  -0.309576  3.8e-05  3.247425  0.0  -0.214653  -0.293042  0.000409  3.224995  0.001
N  N67  1  0.02109008  0.88513459  0.19858295  1  -0.332293  0.000152  2.965269  0.0  -0.29962  0.000208  3.234208  0.0  -0.30937  4.1e-05  3.247529  0.0  -0.214581  -0.292836  0.00041  3.225084  0.001
N  N68  1  0.54180533  0.40453604  0.32707606  1  -0.589383  0.090124  3.146612  0.114  -0.559044  0.064015  3.422636  0.083  -0.588163  0.052763  3.421229  0.074  -0.641064  -0.54059  0.070526  3.424575  0.087
N  N69  1  0.45818037  0.59549100  0.67292138  1  -0.589511  0.090108  3.146488  0.114  -0.559291  0.064009  3.422894  0.083  -0.588413  0.052759  3.421486  0.074  -0.641055  -0.540831  0.070516  3.424849  0.087
N  N70  1  0.49774028  0.24636473  0.01982379  1  -0.574955  0.088995  3.160077  0.113  -0.545048  0.061521  3.436077  0.08  -0.575798  0.050139  3.437545  0.07  -0.643302  -0.526187  0.068328  3.436241  0.085
N  N71  1  0.50226841  0.75360964  0.98017070  1  -0.574701  0.088957  3.159936  0.113  -0.544903  0.061509  3.436004  0.08  -0.575642  0.050132  3.437473  0.07  -0.643258  -0.526055  0.068309  3.436186  0.085
N  N72  1  0.84990794  0.25504350  0.85759011  1  -0.13094  -0.00016  3.059483  0.0  -0.10046  3.9e-05  3.344793  0.0  -0.103653  -0.000109  3.35717  0.0  -0.106225  -0.097977  0.00015  3.336241  0.0
N  N73  1  0.15009504  0.74495042  0.14240734  1  -0.131139  -0.000147  3.059727  0.0  -0.100705  3.8e-05  3.345088  0.0  -0.103898  -0.000107  3.357463  0.0  -0.10629  -0.098223  0.00015  3.336536  0.0
