# generated using pymatgen
data_CoH15C23(NO2)2
_symmetry_space_group_name_H-M   'P 1'
_cell_length_a   12.95782863
_cell_length_b   12.95789450
_cell_length_c   14.95507074
_cell_angle_alpha   67.18600970
_cell_angle_beta   67.18615637
_cell_angle_gamma   63.11611180
_symmetry_Int_Tables_number   1
_chemical_formula_structural   CoH15C23(NO2)2
_chemical_formula_sum   'Co4 H60 C92 N8 O16'
_cell_volume   1994.36443487
_cell_formula_units_Z   4
loop_
 _symmetry_equiv_pos_site_id
 _symmetry_equiv_pos_as_xyz
  1  'x, y, z'
loop_
 _atom_site_type_symbol
 _atom_site_label
 _atom_site_symmetry_multiplicity
 _atom_site_fract_x
 _atom_site_fract_y
 _atom_site_fract_z
 _atom_site_occupancy
 _atom_site_pbe_bader_charge
 _atom_site_pbe_bader_spin_density
 _atom_site_pbe_cm5_charge
 _atom_site_pbe_ddec_charge
 _atom_site_pbe_ddec_spin_density
 _atom_site_pbe_ddec_sum_bond_order
 _atom_site_pbe_magmom
Co  Co0  1  0.08615912  0.53102535  0.85216182  1  1.302904  2.619783  0.691338  0.888175  2.86439  2.502268  2.594
Co  Co1  1  0.46897825  0.91383738  0.64783990  1  1.302999  2.61978  0.691348  0.888216  2.864385  2.502062  2.594
Co  Co2  1  0.91384132  0.46897517  0.14783969  1  1.302967  2.619783  0.691324  0.888123  2.864389  2.502245  2.594
Co  Co3  1  0.53102308  0.08616198  0.35215902  1  1.303004  2.619785  0.691345  0.888213  2.864403  2.502201  2.594
H  H4  1  0.23881323  0.68547335  0.86978375  1  0.141463  0.0006  0.111381  0.128226  0.000292  1.026128  0.0
H  H5  1  0.31452710  0.76118667  0.63021520  1  0.14146  0.0006  0.111394  0.128247  0.000292  1.026127  0.0
H  H6  1  0.76118722  0.31452465  0.13021459  1  0.141515  0.0006  0.111359  0.128142  0.000292  1.026067  0.0
H  H7  1  0.68547334  0.23881385  0.36978162  1  0.141426  0.0006  0.111392  0.128247  0.000292  1.026135  0.0
H  H8  1  0.27404645  0.91181412  0.99546618  1  0.065138  0.000417  0.1017  0.10672  0.000215  1.024899  0.0
H  H9  1  0.08818414  0.72595366  0.50453509  1  0.065127  0.000417  0.101705  0.106741  0.000215  1.02486  0.0
H  H10  1  0.72595130  0.08818566  0.00453314  1  0.065065  0.000417  0.10172  0.106722  0.000215  1.024866  0.0
H  H11  1  0.91181270  0.27405063  0.49546368  1  0.06512  0.000417  0.10175  0.106759  0.000215  1.024786  0.0
H  H12  1  0.03148088  0.71816150  0.16892252  1  0.113712  0.00027  0.101975  0.110992  -3e-05  1.035021  0.0
H  H13  1  0.28183875  0.96851754  0.33107637  1  0.113807  0.00027  0.101968  0.110939  -3e-05  1.03504  0.0
H  H14  1  0.96851867  0.28183681  0.83107602  1  0.113678  0.00027  0.101976  0.110987  -3e-05  1.035008  0.0
H  H15  1  0.71816347  0.03148235  0.66892006  1  0.113775  0.00027  0.101974  0.110964  -3e-05  1.035056  0.0
H  H16  1  0.24225373  0.75774267  0.25000126  1  0.035359  4.7e-05  0.098459  0.100724  2.9e-05  1.020921  0.0
H  H17  1  0.75774044  0.24225669  0.74999873  1  0.03533  4.7e-05  0.098452  0.100697  2.9e-05  1.020933  0.0
H  H18  1  0.95298353  0.01842870  0.11694033  1  0.076823  -3e-06  0.097725  0.102164  -3e-05  1.022579  0.0
H  H19  1  0.98156995  0.04701656  0.38305891  1  0.076859  -3e-06  0.097753  0.102198  -3e-05  1.022543  0.0
H  H20  1  0.04701243  0.98157255  0.88305910  1  0.076312  -3e-06  0.097725  0.10217  -3e-05  1.022648  0.0
H  H21  1  0.01842959  0.95298511  0.61694050  1  0.076776  -3e-06  0.097718  0.102138  -3e-05  1.022647  0.0
H  H22  1  0.87548165  0.12451819  0.24999929  1  0.115613  0.000212  0.10542  0.108366  0.000139  1.021989  0.0
H  H23  1  0.12451879  0.87548233  0.74999954  1  0.115555  0.000212  0.105434  0.108365  0.000139  1.022019  0.0
H  H24  1  0.98919314  0.77281608  0.88620316  1  0.076951  0.001365  0.112758  0.078877  0.000192  1.039413  0.001
H  H25  1  0.22718661  0.01080650  0.61379570  1  0.076852  0.001366  0.11279  0.07895  0.000192  1.039356  0.001
H  H26  1  0.01080998  0.22718434  0.11379680  1  0.076999  0.001365  0.112786  0.078881  0.000192  1.039422  0.001
H  H27  1  0.77281740  0.98919359  0.38619939  1  0.076979  0.001366  0.112783  0.078909  0.000192  1.03939  0.001
H  H28  1  0.80315359  0.94845463  0.89539126  1  0.059518  0.000685  0.099555  0.099944  0.000334  1.054295  0.0
H  H29  1  0.05154740  0.19684578  0.60460991  1  0.059537  0.000685  0.09954  0.099939  0.000334  1.054385  0.0
H  H30  1  0.19684775  0.05154642  0.10461177  1  0.059578  0.000685  0.099556  0.099984  0.000334  1.054314  0.0
H  H31  1  0.94845483  0.80315494  0.39538758  1  0.059567  0.000685  0.099531  0.099928  0.000334  1.054387  0.0
H  H32  1  0.63943875  0.75376932  0.84878051  1  0.113619  0.000744  0.110493  0.124454  0.000275  0.998465  0.0
H  H33  1  0.24623403  0.36056336  0.65121801  1  0.113597  0.000744  0.110496  0.12435  0.000275  0.998471  0.0
H  H34  1  0.36056169  0.24623204  0.15122205  1  0.113634  0.000744  0.110505  0.124476  0.000275  0.998377  0.0
H  H35  1  0.75377177  0.63943611  0.34877870  1  0.11362  0.000744  0.110477  0.124423  0.000275  0.998417  0.0
H  H36  1  0.83647452  0.58602720  0.83771450  1  0.106454  0.001412  0.116691  0.087238  0.000215  1.009705  0.001
H  H37  1  0.41397539  0.16352551  0.66228433  1  0.106436  0.001411  0.116701  0.087241  0.000215  1.009686  0.001
H  H38  1  0.16352591  0.41397416  0.16228672  1  0.106462  0.001412  0.1167  0.087286  0.000215  1.009659  0.001
H  H39  1  0.58602952  0.83647343  0.33771286  1  0.10657  0.001411  0.116687  0.087236  0.000215  1.009751  0.001
H  H40  1  0.51904956  0.94977128  0.86573640  1  0.115616  1.8e-05  0.106164  0.120952  -3.5e-05  1.035581  0.0
H  H41  1  0.05023331  0.48095421  0.63426256  1  0.115634  1.8e-05  0.106128  0.120823  -3.5e-05  1.03555  0.0
H  H42  1  0.48095446  0.05022966  0.13426576  1  0.115547  1.8e-05  0.106123  0.12088  -3.5e-05  1.035592  0.0
H  H43  1  0.94976892  0.51904652  0.36573760  1  0.115672  1.8e-05  0.106141  0.120853  -3.5e-05  1.035507  0.0
H  H44  1  0.64392365  0.09957538  0.87332068  1  0.046307  -9.2e-05  0.09573  0.088319  -6e-05  1.047307  0.0
H  H45  1  0.90042666  0.35607252  0.62668287  1  0.04677  -9.2e-05  0.095711  0.088267  -6e-05  1.047216  0.0
H  H46  1  0.35607499  0.90042661  0.12668094  1  0.046752  -9.2e-05  0.095738  0.088312  -6e-05  1.047299  0.0
H  H47  1  0.09957649  0.64392287  0.37332079  1  0.046906  -9.2e-05  0.095733  0.088293  -6e-05  1.047178  0.0
H  H48  1  0.52827860  0.30975782  0.85986971  1  0.059412  0.000825  0.103828  0.109344  0.000428  1.003255  0.0
H  H49  1  0.69024397  0.47171900  0.64013149  1  0.059422  0.000826  0.103822  0.109346  0.000428  1.003178  0.0
H  H50  1  0.47171915  0.69024531  0.14012915  1  0.059261  0.000826  0.10384  0.10935  0.000428  1.00316  0.0
H  H51  1  0.30975738  0.52827702  0.35986989  1  0.059484  0.000826  0.103803  0.109308  0.000428  1.003201  0.0
H  H52  1  0.33714405  0.48283450  0.84515277  1  0.097918  0.001343  0.119422  0.096569  0.000194  0.99745  0.001
H  H53  1  0.51716359  0.66285454  0.65484598  1  0.097917  0.001342  0.119423  0.096548  0.000194  0.997449  0.001
H  H54  1  0.66285370  0.51716612  0.15484560  1  0.097931  0.001342  0.119419  0.09657  0.000194  0.997464  0.001
H  H55  1  0.48283775  0.33714230  0.34515111  1  0.097928  0.001342  0.119418  0.096554  0.000194  0.997439  0.001
H  H56  1  0.17172432  0.26725692  0.85902156  1  0.108902  0.001312  0.115097  0.090026  0.000311  1.023454  0.001
H  H57  1  0.73274332  0.82827715  0.64097759  1  0.108912  0.001313  0.115078  0.089942  0.000311  1.023462  0.001
H  H58  1  0.82827523  0.73274140  0.14097831  1  0.108929  0.001312  0.115092  0.090011  0.000311  1.023458  0.001
H  H59  1  0.26725532  0.17172484  0.35902135  1  0.108885  0.001312  0.115072  0.089968  0.000311  1.023443  0.001
H  H60  1  0.35459383  0.08643658  0.86943056  1  0.096162  0.000772  0.108216  0.122008  0.00035  1.019043  0.0
H  H61  1  0.91356428  0.64540623  0.63057021  1  0.096124  0.000772  0.108241  0.122018  0.00035  1.019067  0.0
H  H62  1  0.64540662  0.91356226  0.13057017  1  0.096129  0.000772  0.108215  0.121975  0.00035  1.019068  0.0
H  H63  1  0.08643527  0.35459460  0.36943082  1  0.096049  0.000772  0.108245  0.122029  0.00035  1.019057  0.0
C  C64  1  0.07787573  0.60391496  0.03296077  1  1.551317  -0.000562  0.219101  0.571302  -0.00168  4.189599  0.002
C  C65  1  0.39608475  0.92212321  0.46703910  1  1.55136  -0.000565  0.219117  0.571259  -0.001683  4.189678  0.002
C  C66  1  0.92212381  0.39608587  0.96703960  1  1.551471  -0.000564  0.219044  0.571181  -0.00168  4.189816  0.002
C  C67  1  0.60391479  0.07787594  0.53295849  1  1.551263  -0.000561  0.219057  0.571179  -0.001679  4.189936  0.002
C  C68  1  0.13232608  0.68997573  0.02194942  1  -0.053584  0.010843  -0.020899  -0.037648  0.005479  3.993389  0.009
C  C69  1  0.31002225  0.86767478  0.47804698  1  -0.053446  0.010844  -0.020881  -0.037635  0.00548  3.993198  0.009
C  C70  1  0.86767435  0.31002311  0.97804797  1  -0.053639  0.010844  -0.020873  -0.037581  0.00548  3.993212  0.009
C  C71  1  0.68997639  0.13232552  0.52194852  1  -0.053485  0.010844  -0.020895  -0.037585  0.00548  3.993309  0.009
C  C72  1  0.21556776  0.72108092  0.93298666  1  -0.033115  -0.001476  -0.075249  -0.110421  -0.00202  3.902474  -0.001
C  C73  1  0.27891831  0.78443235  0.56701453  1  -0.033183  -0.001477  -0.075311  -0.110497  -0.002021  3.902329  -0.001
C  C74  1  0.78443178  0.27891739  0.06701188  1  -0.032974  -0.001476  -0.075229  -0.110328  -0.00202  3.902349  -0.001
C  C75  1  0.72108123  0.21556848  0.43298517  1  -0.033121  -0.001476  -0.075261  -0.110459  -0.002019  3.90246  -0.001
C  C76  1  0.26665793  0.80067148  0.92403047  1  -0.016656  0.004835  -0.018257  -0.02024  0.002606  3.987708  0.004
C  C77  1  0.19932962  0.73334079  0.57597051  1  -0.016645  0.004836  -0.018192  -0.020197  0.002606  3.987693  0.004
C  C78  1  0.73333893  0.19932862  0.07597105  1  -0.016715  0.004835  -0.018297  -0.020334  0.002606  3.987904  0.004
C  C79  1  0.80066991  0.26666172  0.42402929  1  -0.016716  0.004836  -0.018306  -0.020346  0.002606  3.987961  0.004
C  C80  1  0.23393045  0.84919882  0.00431748  1  -0.0166  -0.003095  -0.08234  -0.147526  -0.003432  3.932203  -0.002
C  C81  1  0.15080030  0.76606723  0.49568486  1  -0.016686  -0.003096  -0.082407  -0.147659  -0.003433  3.93213  -0.002
C  C82  1  0.76606552  0.15080160  0.99568290  1  -0.016629  -0.003095  -0.08239  -0.147571  -0.003432  3.932165  -0.002
C  C83  1  0.84919656  0.23393371  0.50431504  1  -0.016578  -0.003094  -0.082401  -0.147559  -0.003431  3.932117  -0.002
C  C84  1  0.14788876  0.82151398  0.09246934  1  -0.02758  0.001688  -0.009625  0.063579  0.000719  4.019555  0.001
C  C85  1  0.17848167  0.85211267  0.40753346  1  -0.027461  0.001688  -0.009643  0.063605  0.000719  4.01941  0.001
C  C86  1  0.85210990  0.17848382  0.90753235  1  -0.027646  0.001688  -0.009601  0.063644  0.000719  4.01936  0.001
C  C87  1  0.82151430  0.14788859  0.59246997  1  -0.027524  0.001688  -0.009611  0.063635  0.000719  4.019352  0.001
C  C88  1  0.09795487  0.74134342  0.10077911  1  -0.068734  -0.003038  -0.080488  -0.132736  -0.003571  3.911906  -0.002
C  C89  1  0.25865634  0.90204305  0.39922087  1  -0.068909  -0.003039  -0.08048  -0.13264  -0.003571  3.91193  -0.002
C  C90  1  0.90204288  0.25865721  0.89921993  1  -0.068762  -0.003039  -0.08049  -0.132756  -0.003571  3.911868  -0.002
C  C91  1  0.74134499  0.09795715  0.60077643  1  -0.068733  -0.003037  -0.080481  -0.132741  -0.003569  3.911962  -0.002
C  C92  1  0.34981038  0.83921021  0.82648564  1  1.535718  -0.005475  0.195532  0.545561  -0.007343  4.216747  -0.007
C  C93  1  0.16078981  0.65018849  0.67351708  1  1.535751  -0.005475  0.195538  0.545633  -0.007343  4.216573  -0.007
C  C94  1  0.65018827  0.16079010  0.17351454  1  1.535643  -0.005477  0.195575  0.54568  -0.007344  4.216619  -0.007
C  C95  1  0.83920795  0.34981130  0.32648424  1  1.535718  -0.005475  0.195544  0.545673  -0.007342  4.216695  -0.007
C  C96  1  0.10330852  0.88178777  0.17408290  1  -0.022021  0.000109  -0.008048  0.071847  5.8e-05  4.017728  0.0
C  C97  1  0.11820750  0.89669359  0.32591960  1  -0.022065  0.000109  -0.00798  0.071838  5.8e-05  4.017669  0.0
C  C98  1  0.89669103  0.11821054  0.82591765  1  -0.021968  0.000109  -0.00802  0.071855  5.8e-05  4.017623  0.0
C  C99  1  0.88179116  0.10330587  0.67408019  1  -0.022081  0.000109  -0.008085  0.071774  5.8e-05  4.017697  0.0
C  C100  1  0.16180622  0.83819194  0.25000052  1  -0.059126  1.4e-05  -0.09449  -0.200301  1.4e-05  3.974106  0.0
C  C101  1  0.83819153  0.16180785  0.74999880  1  -0.059104  1.4e-05  -0.094465  -0.20024  1.4e-05  3.97392  0.0
C  C102  1  0.99943719  0.98467937  0.17530866  1  -0.066195  -2.5e-05  -0.090506  -0.137004  -6.9e-05  3.953459  0.0
C  C103  1  0.01531895  0.00056289  0.32469164  1  -0.066226  -2.5e-05  -0.090507  -0.136944  -6.9e-05  3.953437  0.0
C  C104  1  0.00056056  0.01532125  0.82469238  1  -0.065667  -2.5e-05  -0.090474  -0.136992  -6.9e-05  3.953553  0.0
C  C105  1  0.98467791  0.99943721  0.67530987  1  -0.066168  -2.5e-05  -0.090452  -0.136915  -6.9e-05  3.953576  0.0
C  C106  1  0.95593005  0.04406945  0.24999956  1  -0.054919  5.2e-05  -0.08385  -0.061867  -4.7e-05  4.010722  0.0
C  C107  1  0.04406680  0.95593233  0.75000006  1  -0.054768  5.2e-05  -0.083898  -0.061869  -4.7e-05  4.01078  0.0
C  C108  1  0.90959371  0.77172009  0.87858237  1  0.478513  -0.008455  0.037809  0.092267  -0.009007  3.962237  -0.005
C  C109  1  0.22827926  0.09041185  0.62141882  1  0.47873  -0.008452  0.037821  0.092137  -0.009005  3.962538  -0.005
C  C110  1  0.09040852  0.22827980  0.12141941  1  0.478538  -0.008455  0.037821  0.092239  -0.009008  3.962316  -0.005
C  C111  1  0.77172116  0.90959118  0.37857917  1  0.478744  -0.008454  0.037811  0.092121  -0.009005  3.962524  -0.005
C  C112  1  0.80449194  0.87005122  0.88367197  1  -0.018666  0.002258  -0.086726  -0.172097  0.000757  3.94857  0.003
C  C113  1  0.12994888  0.19550504  0.61632813  1  -0.01882  0.002259  -0.086758  -0.172104  0.000757  3.948621  0.003
C  C114  1  0.19550760  0.12994962  0.11633173  1  -0.018766  0.002258  -0.086721  -0.17212  0.000757  3.948701  0.003
C  C115  1  0.87005245  0.80449600  0.38367089  1  -0.018755  0.002258  -0.086742  -0.17206  0.000757  3.948595  0.003
C  C116  1  0.70280719  0.86796702  0.87207705  1  0.007691  -0.013773  0.002616  0.138759  -0.014392  4.02977  -0.008
C  C117  1  0.13203471  0.29719859  0.62792203  1  0.008008  -0.013777  0.002676  0.13867  -0.014397  4.029548  -0.008
C  C118  1  0.29719684  0.13203224  0.12792701  1  0.007933  -0.013776  0.002592  0.138704  -0.014396  4.029694  -0.008
C  C119  1  0.86796662  0.70280329  0.37207671  1  0.007784  -0.013777  0.002728  0.138791  -0.014396  4.029602  -0.008
C  C120  1  0.71518385  0.76125799  0.85777768  1  -0.045501  0.002357  -0.080357  -0.172308  0.000453  3.918658  0.003
C  C121  1  0.23874333  0.28481279  0.64222216  1  -0.045438  0.002359  -0.080316  -0.172087  0.000453  3.918907  0.003
C  C122  1  0.28481480  0.23874401  0.14222593  1  -0.045528  0.002358  -0.080321  -0.17225  0.000453  3.918687  0.003
C  C123  1  0.76125979  0.71518678  0.35777675  1  -0.045598  0.002358  -0.080365  -0.172294  0.000453  3.91898  0.003
C  C124  1  0.82441610  0.66739132  0.85213630  1  0.438828  -0.010554  0.042622  0.102939  -0.011092  3.952946  -0.006
C  C125  1  0.33260557  0.17559154  0.64786439  1  0.438599  -0.010554  0.042477  0.10278  -0.011092  3.952979  -0.006
C  C126  1  0.17558972  0.33260731  0.14786470  1  0.438585  -0.010553  0.04249  0.102708  -0.011091  3.953054  -0.006
C  C127  1  0.66739575  0.82440950  0.35213397  1  0.438639  -0.010554  0.042523  0.102831  -0.011092  3.953005  -0.006
C  C128  1  0.59053421  0.96828093  0.87103599  1  -0.031191  -0.010777  -0.080688  -0.115877  -0.011577  3.93462  -0.005
C  C129  1  0.03170536  0.40946597  0.62896643  1  -0.031431  -0.01077  -0.080675  -0.115643  -0.011568  3.935425  -0.005
C  C130  1  0.40946626  0.03171372  0.12896681  1  -0.03127  -0.010774  -0.080645  -0.115723  -0.011573  3.935011  -0.005
C  C131  1  0.96829776  0.59053360  0.37103315  1  -0.031239  -0.010772  -0.080724  -0.115774  -0.011572  3.935458  -0.005
C  C132  1  0.57123762  0.08017832  0.87124661  1  -0.070013  -0.010463  -0.086675  -0.125106  -0.011202  3.961863  -0.005
C  C133  1  0.91983361  0.42876160  0.62875580  1  -0.070491  -0.010455  -0.086645  -0.125106  -0.011193  3.962636  -0.005
C  C134  1  0.42876100  0.91982870  0.12875465  1  -0.070444  -0.010462  -0.086683  -0.125191  -0.0112  3.962269  -0.005
C  C135  1  0.08016594  0.57123756  0.37124780  1  -0.070731  -0.010451  -0.086649  -0.125058  -0.011189  3.962582  -0.005
C  C136  1  0.45999801  0.18113285  0.86545363  1  -0.005642  -0.013713  0.001815  0.142435  -0.014421  4.034982  -0.008
C  C137  1  0.81886514  0.53999858  0.63454730  1  -0.005556  -0.013719  0.001798  0.142415  -0.014428  4.034686  -0.008
C  C138  1  0.53999885  0.81886808  0.13454694  1  -0.005621  -0.013716  0.001827  0.142511  -0.014424  4.034744  -0.008
C  C139  1  0.18113531  0.46000111  0.36545449  1  -0.005619  -0.013723  0.001802  0.142413  -0.014432  4.034454  -0.008
C  C140  1  0.45157869  0.29616939  0.85879767  1  -0.073357  0.002186  -0.088747  -0.185905  0.000436  3.945133  0.003
C  C141  1  0.70382825  0.54842694  0.64120277  1  -0.073419  0.002188  -0.088745  -0.185946  0.000438  3.945371  0.003
C  C142  1  0.54842264  0.70383082  0.14120163  1  -0.07323  0.002186  -0.08878  -0.185937  0.000437  3.945201  0.003
C  C143  1  0.29617310  0.45156907  0.35879795  1  -0.073458  0.002188  -0.088741  -0.185907  0.000438  3.945353  0.003
C  C144  1  0.34561149  0.39302048  0.85109246  1  0.497747  -0.011318  0.042671  0.099765  -0.012123  3.953654  -0.007
C  C145  1  0.60698384  0.65438261  0.64890589  1  0.497358  -0.011318  0.042659  0.099822  -0.012124  3.95361  -0.007
C  C146  1  0.65438446  0.60698161  0.14890535  1  0.49754  -0.011318  0.042663  0.099728  -0.012123  3.953733  -0.007
C  C147  1  0.39301929  0.34561444  0.35109320  1  0.497417  -0.011322  0.042606  0.099755  -0.012128  3.953628  -0.007
C  C148  1  0.25346786  0.27255053  0.85839000  1  0.445933  -0.006953  0.03753  0.082863  -0.007215  3.980146  -0.004
C  C149  1  0.72744999  0.74652849  0.64161093  1  0.446173  -0.006956  0.03753  0.082834  -0.007217  3.98052  -0.004
C  C150  1  0.74653079  0.72744977  0.14160884  1  0.446051  -0.006953  0.037552  0.082874  -0.007216  3.980264  -0.004
C  C151  1  0.27254777  0.25346961  0.35838962  1  0.445997  -0.006954  0.037547  0.082914  -0.007217  3.980522  -0.004
C  C152  1  0.35590871  0.17179303  0.86520578  1  0.018261  0.001532  -0.084273  -0.173724  0.000214  3.929355  0.002
C  C153  1  0.82821139  0.64409153  0.63479357  1  0.018188  0.001533  -0.084242  -0.173605  0.000215  3.929215  0.002
C  C154  1  0.64409173  0.82820749  0.13479438  1  0.018172  0.001531  -0.084238  -0.173649  0.000214  3.929298  0.002
C  C155  1  0.17178996  0.35590448  0.36520781  1  0.018201  0.001535  -0.084227  -0.173613  0.000216  3.929166  0.002
N  N156  1  0.92183202  0.67092343  0.86222147  1  -1.205584  0.047153  -0.334387  -0.259287  0.024821  3.592902  0.045
N  N157  1  0.32907771  0.07816871  0.63777828  1  -1.20555  0.04715  -0.334315  -0.259124  0.024819  3.592641  0.045
N  N158  1  0.07817020  0.32907813  0.13777774  1  -1.205556  0.047153  -0.334334  -0.259111  0.024821  3.592673  0.045
N  N159  1  0.67092541  0.92183254  0.36221940  1  -1.205698  0.047153  -0.334302  -0.259094  0.024819  3.592699  0.045
N  N160  1  0.24649876  0.38295570  0.85061128  1  -1.207272  0.047574  -0.330702  -0.254383  0.025047  3.564123  0.046
N  N161  1  0.61704911  0.75350318  0.64938944  1  -1.207026  0.047573  -0.33072  -0.254405  0.025047  3.564137  0.046
N  N162  1  0.75350167  0.61704482  0.14938822  1  -1.207057  0.047571  -0.330722  -0.254378  0.025046  3.564046  0.046
N  N163  1  0.38295403  0.24649304  0.35060993  1  -1.206818  0.047578  -0.330682  -0.254464  0.025049  3.564132  0.046
O  O164  1  0.11625668  0.55321824  0.96274279  1  -1.158801  0.089037  -0.308985  -0.566109  0.04617  2.511675  0.073
O  O165  1  0.44677657  0.88374182  0.53726057  1  -1.15878  0.089027  -0.308973  -0.56606  0.046165  2.511643  0.073
O  O166  1  0.88374198  0.44677955  0.03725823  1  -1.158913  0.089026  -0.308941  -0.566036  0.046163  2.511867  0.073
O  O167  1  0.55321850  0.11625891  0.46274201  1  -1.158843  0.089025  -0.308947  -0.566028  0.046164  2.511794  0.073
O  O168  1  0.99829195  0.58384868  0.11406517  1  -1.155812  0.095287  -0.300308  -0.536297  0.050373  2.403837  0.079
O  O169  1  0.41615296  0.00170955  0.38593495  1  -1.15582  0.095294  -0.300327  -0.536301  0.050375  2.403877  0.079
O  O170  1  0.00170939  0.41615153  0.88593614  1  -1.155789  0.095286  -0.300288  -0.536251  0.050373  2.403856  0.079
O  O171  1  0.58385016  0.99829254  0.61406311  1  -1.155772  0.095286  -0.300307  -0.536267  0.050373  2.403867  0.079
O  O172  1  0.35675952  0.81406158  0.74918243  1  -1.137854  0.091431  -0.305435  -0.534459  0.047082  2.278101  0.08
O  O173  1  0.18593508  0.64323956  0.75082140  1  -1.137743  0.091435  -0.305438  -0.534498  0.047086  2.278143  0.08
O  O174  1  0.64323914  0.18593538  0.25082021  1  -1.137678  0.091436  -0.305452  -0.534497  0.047086  2.27807  0.08
O  O175  1  0.81406447  0.35675876  0.24918114  1  -1.137812  0.091428  -0.305413  -0.534455  0.047081  2.278185  0.08
O  O176  1  0.40974869  0.89906631  0.81885423  1  -1.159293  0.073772  -0.311886  -0.557742  0.037817  2.19336  0.064
O  O177  1  0.10093322  0.59024923  0.68114963  1  -1.159316  0.073776  -0.311888  -0.557718  0.037819  2.193291  0.064
O  O178  1  0.59024996  0.10093316  0.18114689  1  -1.159275  0.073776  -0.311882  -0.55775  0.037819  2.19334  0.064
O  O179  1  0.89906454  0.40974972  0.31885397  1  -1.159319  0.073781  -0.31188  -0.557753  0.037821  2.193295  0.064
