# generated using pymatgen
data_CuH8C10S2IN2
_symmetry_space_group_name_H-M   'P 1'
_cell_length_a   8.13598970
_cell_length_b   10.07081338
_cell_length_c   11.04329626
_cell_angle_alpha   117.16314957
_cell_angle_beta   95.70128396
_cell_angle_gamma   94.96688649
_symmetry_Int_Tables_number   1
_chemical_formula_structural   CuH8C10S2IN2
_chemical_formula_sum   'Cu2 H16 C20 S4 I2 N4'
_cell_volume   792.12149319
_cell_formula_units_Z   2
loop_
 _symmetry_equiv_pos_site_id
 _symmetry_equiv_pos_as_xyz
  1  'x, y, z'
loop_
 _atom_site_type_symbol
 _atom_site_label
 _atom_site_symmetry_multiplicity
 _atom_site_fract_x
 _atom_site_fract_y
 _atom_site_fract_z
 _atom_site_occupancy
 _atom_site_pbe_bader_charge
 _atom_site_pbe_bader_spin_density
 _atom_site_pbe_cm5_charge
 _atom_site_pbe_ddec_charge
 _atom_site_pbe_ddec_spin_density
 _atom_site_pbe_ddec_sum_bond_order
 _atom_site_pbe_magmom
Cu  Cu0  1  0.38151478  0.38665846  0.44421993  1  0.515027  0  0.352404  0.210523  0  2.697211  0
Cu  Cu1  1  0.61847571  0.61333582  0.55577779  1  0.512914  0  0.352402  0.210547  0  2.697188  0
H  H2  1  0.41968023  0.08809418  0.42137426  1  0.073834  0  0.102734  0.076905  0  1.021448  0
H  H3  1  0.58032280  0.91190123  0.57862395  1  0.07386  0  0.102716  0.076864  0  1.021441  0
H  H4  1  0.28968838  0.91588016  0.50334121  1  0.120897  0  0.093859  0.116552  0  1.035395  0
H  H5  1  0.71031977  0.08411638  0.49665965  1  0.120987  0  0.093817  0.116432  0  1.035392  0
H  H6  1  0.04529570  0.28467041  0.76568880  1  0.08519  0  0.097263  0.107685  0  1.033679  0
H  H7  1  0.95471634  0.71532726  0.23431916  1  0.085241  0  0.097253  0.107708  0  1.033764  0
H  H8  1  0.18146863  0.43878929  0.66892174  1  0.085573  0  0.098471  0.077277  0  1.035668  0
H  H9  1  0.81854057  0.56120612  0.33108054  1  0.086038  0  0.098484  0.077262  0  1.035618  0
H  H10  1  0.03828236  0.38686222  0.33347112  1  0.105252  0  0.09541  0.075496  0  1.045316  0
H  H11  1  0.96170838  0.61314109  0.66652857  1  0.105305  0  0.095432  0.075517  0  1.045281  0
H  H12  1  0.85287913  0.26195611  0.10841622  1  0.061674  0  0.101117  0.117464  0  1.004125  0
H  H13  1  0.14710809  0.73804832  0.89158277  1  0.061694  0  0.101126  0.117459  0  1.004187  0
H  H14  1  0.28677635  0.10347853  0.91807872  1  0.124877  0  0.097951  0.11008  0  1.035891  0
H  H15  1  0.71321365  0.89652027  0.08192266  1  0.124822  0  0.097969  0.110104  0  1.035842  0
H  H16  1  0.45316488  0.23001309  0.15513987  1  0.116261  0  0.09808  0.07603  0  1.029412  0
H  H17  1  0.54682444  0.76998910  0.84486195  1  0.116131  0  0.098075  0.076063  0  1.029385  0
C  C18  1  0.33502531  0.12683666  0.49736426  1  0.483092  0  0.029527  0.085227  0  3.960065  0
C  C19  1  0.66498018  0.87315875  0.50263503  1  0.483655  0  0.029557  0.085234  0  3.960027  0
C  C20  1  0.26355724  0.03167727  0.54362863  1  -0.047979  0  -0.099679  -0.183457  0  3.967868  0
C  C21  1  0.73644949  0.96831814  0.45637076  1  -0.048715  0  -0.099634  -0.183297  0  3.967873  0
C  C22  1  0.15596793  0.08700637  0.64199293  1  -0.228522  0  -0.003256  0.088096  0  4.018031  0
C  C23  1  0.84403775  0.91299017  0.35800866  1  -0.228543  0  -0.003264  0.088014  0  4.018256  0
C  C24  1  0.12736667  0.23627858  0.68931635  1  0.08019  0  -0.09881  -0.183953  0  3.994528  0
C  C25  1  0.87264272  0.76371796  0.31068733  1  0.08068  0  -0.098788  -0.183959  0  3.994785  0
C  C26  1  0.20288405  0.32241898  0.63572417  1  0.470159  0  0.035359  0.101284  0  3.93842  0
C  C27  1  0.79712657  0.67757757  0.36427960  1  0.469699  0  0.035286  0.101241  0  3.938265  0
C  C28  1  0.08925614  0.32262874  0.23912505  1  0.449199  0  0.030385  0.091848  0  3.948941  0
C  C29  1  0.91073356  0.67737570  0.76087412  1  0.449152  0  0.0305  0.092087  0  3.948667  0
C  C30  1  0.98593888  0.25359036  0.11223481  1  0.063204  0  -0.098227  -0.18411  0  3.970955  0
C  C31  1  0.01405205  0.74641409  0.88776536  1  0.063226  0  -0.098232  -0.184169  0  3.970899  0
C  C32  1  0.05546019  0.17211629  0.99294766  1  -0.196654  0  -0.00382  0.093572  0  4.036573  0
C  C33  1  0.94452857  0.82788251  0.00704910  1  -0.196645  0  -0.003825  0.09363  0  4.036478  0
C  C34  1  0.22689702  0.16517830  0.00760088  1  -0.126715  0  -0.10057  -0.188765  0  3.998303  0
C  C35  1  0.77309477  0.83482389  0.99240294  1  -0.126779  0  -0.100642  -0.188913  0  3.998291  0
C  C36  1  0.31970681  0.23539866  0.13901634  1  0.538505  0  0.034061  0.096259  0  3.949096  0
C  C37  1  0.68028356  0.76460240  0.86098600  1  0.538534  0  0.034069  0.096332  0  3.949065  0
S  S38  1  0.06352747  0.96053968  0.69518784  1  0.105166  0  0.061816  0.057314  0  2.920015  0
S  S39  1  0.93647963  0.03945799  0.30481433  1  0.105054  0  0.061806  0.057335  0  2.920017  0
S  S40  1  0.91844561  0.08314687  0.83390979  1  0.064697  0  0.046118  0.009559  0  2.767617  0
S  S41  1  0.08155266  0.91684967  0.16608764  1  0.064743  0  0.046142  0.009562  0  2.767448  0
I  I42  1  0.30682540  0.66292816  0.58422331  1  -0.499261  0  -0.238492  -0.447574  0  1.84505  0
I  I43  1  0.69316954  0.33707064  0.41577209  1  -0.499217  0  -0.238492  -0.447556  0  1.84503  0
N  N44  1  0.30506625  0.27022388  0.54043136  1  -1.216275  0  -0.366353  -0.203908  0  3.659675  0
N  N45  1  0.69493801  0.72977153  0.45956965  1  -1.216646  0  -0.366307  -0.203837  0  3.659465  0
N  N46  1  0.25391057  0.31282744  0.25446492  1  -1.226361  0  -0.365362  -0.199421  0  3.647807  0
N  N47  1  0.74607590  0.68717249  0.74553576  1  -1.226221  0  -0.365438  -0.199646  0  3.647939  0
