# generated using pymatgen
data_MnH36C48N4(ClO4)2
_symmetry_space_group_name_H-M   'P 1'
_cell_length_a   7.35659168
_cell_length_b   11.44627944
_cell_length_c   13.30499677
_cell_angle_alpha   106.95620756
_cell_angle_beta   99.22951027
_cell_angle_gamma   100.22224445
_symmetry_Int_Tables_number   1
_chemical_formula_structural   MnH36C48N4(ClO4)2
_chemical_formula_sum   'Mn1 H36 C48 N4 Cl2 O8'
_cell_volume   1027.50933891
_cell_formula_units_Z   1
loop_
 _symmetry_equiv_pos_site_id
 _symmetry_equiv_pos_as_xyz
  1  'x, y, z'
loop_
 _atom_site_type_symbol
 _atom_site_label
 _atom_site_symmetry_multiplicity
 _atom_site_fract_x
 _atom_site_fract_y
 _atom_site_fract_z
 _atom_site_occupancy
 _atom_site_hle17_ddec_charge
 _atom_site_hle17_ddec_spin_density
 _atom_site_hle17_ddec_sum_bond_order
 _atom_site_hle17_magmom
 _atom_site_hse06_10hf_ddec_charge
 _atom_site_hse06_10hf_ddec_spin_density
 _atom_site_hse06_10hf_ddec_sum_bond_order
 _atom_site_hse06_10hf_magmom
 _atom_site_hse06_ddec_charge
 _atom_site_hse06_ddec_spin_density
 _atom_site_hse06_ddec_sum_bond_order
 _atom_site_hse06_magmom
 _atom_site_pbe_cm5_charge
 _atom_site_pbe_ddec_charge
 _atom_site_pbe_ddec_spin_density
 _atom_site_pbe_ddec_sum_bond_order
 _atom_site_pbe_magmom
Mn  Mn0  1  0.00043082  0.00004456  0.00010406  1  1.124053  4.804586  1.774065  4.68  0.96177  4.730544  2.255563  4.539  1.017473  4.772097  2.189797  4.6  0.606086  0.920896  4.684774  2.303567  4.475
H  H1  1  0.70263733  0.18686200  0.61615451  1  0.115108  1e-05  0.975736  0.0  0.115458  -5e-06  1.050776  0.0  0.119878  -2e-06  1.047969  0.0  0.100408  0.11218  -1.1e-05  1.052959  0.0
H  H2  1  0.29737076  0.81313699  0.38384267  1  0.115162  1e-05  0.975679  0.0  0.115511  -5e-06  1.050715  0.0  0.119956  -1e-06  1.047884  0.0  0.100439  0.112241  -1.1e-05  1.05289  0.0
H  H3  1  0.26597261  0.54748596  0.42907259  1  0.088329  -3.8e-05  0.952383  0.0  0.097151  7e-06  1.017042  0.0  0.10091  -3e-06  1.013914  0.0  0.098415  0.094417  1.3e-05  1.01938  0.0
H  H4  1  0.73401820  0.45251118  0.57094136  1  0.088432  -3.6e-05  0.952342  0.0  0.097176  7e-06  1.01709  0.0  0.100942  -2e-06  1.013956  0.0  0.098411  0.094457  1.4e-05  1.019415  0.0
H  H5  1  0.27534811  0.14103644  0.63665140  1  0.111349  1.4e-05  0.96381  0.0  0.118363  -1e-06  1.028335  0.0  0.121598  3e-06  1.027197  0.0  0.102973  0.115949  -6e-06  1.02933  0.0
H  H6  1  0.72465721  0.85895504  0.36334137  1  0.111369  1.5e-05  0.963831  0.0  0.118404  -1e-06  1.028335  0.0  0.121639  3e-06  1.027196  0.0  0.102989  0.115989  -6e-06  1.029329  0.0
H  H7  1  0.97996751  0.46767199  0.16720379  1  0.104295  0.000267  0.958504  0.0  0.114363  0.000384  1.019705  0.0  0.117407  0.000271  1.018764  0.0  0.10701  0.112293  0.000515  1.020399  0.0
H  H8  1  0.02020939  0.53235902  0.83282415  1  0.104096  0.000271  0.958381  0.0  0.114313  0.000386  1.01943  0.0  0.117365  0.000272  1.018482  0.0  0.106949  0.11223  0.000518  1.020147  0.0
H  H9  1  0.09001439  0.57167790  0.57703923  1  0.090962  4.8e-05  0.964957  0.0  0.101464  5.1e-05  1.027261  0.0  0.104398  3.7e-05  1.025463  0.0  0.095402  0.099375  4.8e-05  1.028692  0.0
H  H10  1  0.91000988  0.42835014  0.42298703  1  0.091039  4.4e-05  0.964652  0.0  0.101566  5.2e-05  1.026916  0.0  0.104506  3.7e-05  1.025113  0.0  0.095423  0.099449  4.8e-05  1.028374  0.0
H  H11  1  0.17138070  0.92797824  0.65568671  1  0.107103  -3.9e-05  0.932029  0.0  0.116531  3e-06  0.991157  0.0  0.119794  -1.4e-05  0.989145  0.0  0.108803  0.114058  1.9e-05  0.992819  0.0
H  H12  1  0.82861670  0.07201046  0.34430390  1  0.107078  -4.3e-05  0.932167  0.0  0.116531  3e-06  0.991244  0.0  0.119788  -1.4e-05  0.989266  0.0  0.108819  0.11406  1.9e-05  0.9929  0.0
H  H13  1  0.03188326  0.36296597  0.83425422  1  0.0972  0.000282  0.986933  0.0  0.103393  0.000365  1.057145  0.0  0.106437  0.000262  1.056226  0.0  0.100354  0.101312  0.000476  1.057882  0.0
H  H14  1  0.96829836  0.63705933  0.16578547  1  0.097348  0.000279  0.987095  0.0  0.103391  0.000364  1.057382  0.0  0.10644  0.000261  1.056456  0.0  0.100416  0.1013  0.000477  1.058135  0.0
H  H15  1  0.59862713  0.97177656  0.62719928  1  0.094449  -2.8e-05  0.944313  0.0  0.107603  -1e-05  0.998782  0.0  0.109843  -9e-06  0.998543  0.0  0.104392  0.105923  -1.4e-05  0.999111  0.0
H  H16  1  0.40138438  0.02822429  0.37280318  1  0.094527  -3.6e-05  0.944271  0.0  0.107682  -1e-05  0.99874  0.0  0.109929  -9e-06  0.998505  0.0  0.104444  0.105993  -1.4e-05  0.999073  0.0
H  H17  1  0.99479415  0.25238165  0.16104141  1  0.091202  0.000276  0.974144  0.0  0.097895  0.000713  1.040156  0.001  0.100206  0.000528  1.038146  0.0  0.121122  0.096246  0.000905  1.041736  0.001
H  H18  1  0.00477202  0.74752464  0.83888664  1  0.091134  0.000276  0.973762  0.0  0.098027  0.000718  1.039627  0.001  0.100339  0.000531  1.03761  0.0  0.121277  0.096366  0.000914  1.041237  0.001
H  H19  1  0.03444408  0.14965976  0.84115773  1  0.083501  0.000267  0.956965  0.0  0.091719  0.000736  1.022277  0.001  0.092864  0.000557  1.022619  0.0  0.118786  0.090948  0.000908  1.022075  0.001
H  H20  1  0.96504513  0.85024320  0.15875807  1  0.08405  0.000272  0.956458  0.0  0.092011  0.000739  1.021955  0.001  0.093188  0.000559  1.022233  0.0  0.119173  0.091179  0.000913  1.021821  0.001
H  H21  1  0.25468163  0.70721644  0.76303093  1  0.093396  -7.6e-05  0.970005  0.0  0.101182  -4e-05  1.038091  0.0  0.104982  -4.4e-05  1.034835  0.0  0.102065  0.098372  -3.6e-05  1.040578  0.0
H  H22  1  0.74535234  0.29281912  0.23698908  1  0.093518  -8.1e-05  0.97023  0.0  0.101439  -3.8e-05  1.038109  0.0  0.105241  -4.3e-05  1.034851  0.0  0.102189  0.098621  -3e-05  1.040605  0.0
H  H23  1  0.60162898  0.66627516  0.46888966  1  0.08748  4e-06  0.981282  0.0  0.09038  -4e-06  1.058948  0.0  0.093909  -3e-06  1.057312  0.0  0.091055  0.087834  2e-06  1.060196  0.0
H  H24  1  0.39837419  0.33370312  0.53110485  1  0.08747  1.7e-05  0.981265  0.0  0.090402  -4e-06  1.058893  0.0  0.093939  -4e-06  1.057239  0.0  0.091073  0.087863  1e-06  1.060132  0.0
H  H25  1  0.29968439  0.92484697  0.89568159  1  0.415339  0.000269  0.864666  0.001  0.387818  0.001051  0.935724  0.002  0.397134  0.000717  0.922146  0.002  0.295395  0.381319  0.001371  0.945144  0.002
H  H26  1  0.70052531  0.07515367  0.10435365  1  0.415325  0.00026  0.864594  0.001  0.387721  0.001041  0.935919  0.002  0.397038  0.000708  0.922336  0.002  0.295274  0.381203  0.001364  0.945371  0.002
H  H27  1  0.34346643  0.06024401  0.97817165  1  0.405554  1e-06  0.912155  0.0  0.372088  0.000662  0.980787  0.001  0.384486  0.000442  0.962837  0.001  0.281783  0.363278  0.000858  0.993492  0.001
H  H28  1  0.65683650  0.93980339  0.02183341  1  0.405412  -2e-06  0.912431  0.0  0.371969  0.000654  0.981082  0.001  0.384368  0.000436  0.963129  0.001  0.281668  0.363162  0.000851  0.993788  0.001
H  H29  1  0.54699402  0.48509818  0.70015161  1  0.067831  -1e-06  0.949003  0.0  0.078332  -5e-06  1.011954  0.0  0.07941  -5e-06  1.012063  0.0  0.107713  0.077563  -5e-06  1.01194  0.0
H  H30  1  0.45298037  0.51490286  0.29984982  1  0.067807  -4e-06  0.948975  0.0  0.078251  -6e-06  1.011982  0.0  0.079329  -5e-06  1.01209  0.0  0.107683  0.07748  -6e-06  1.011969  0.0
H  H31  1  0.51764231  0.28814504  0.98050273  1  0.11513  -4.6e-05  0.967852  0.0  0.123452  -2.7e-05  1.030395  0.0  0.127221  -4.2e-05  1.028448  0.0  0.105862  0.120642  -8e-06  1.03203  0.0
H  H32  1  0.48240943  0.71186782  0.01951014  1  0.115191  -4.9e-05  0.96788  0.0  0.123538  -2.8e-05  1.030361  0.0  0.1273  -4.2e-05  1.028416  0.0  0.105911  0.120742  -1e-05  1.031975  0.0
H  H33  1  0.50691916  0.61242911  0.87509127  1  0.106378  -2.8e-05  0.97838  0.0  0.113381  -1.2e-05  1.045216  0.0  0.116348  -2e-05  1.044776  0.0  0.102621  0.111226  1e-06  1.045667  0.0
H  H34  1  0.49308754  0.38757364  0.12491274  1  0.106251  -1.5e-05  0.97859  0.0  0.113276  -1.2e-05  1.045405  0.0  0.116241  -2e-05  1.044961  0.0  0.10259  0.111111  1e-06  1.045871  0.0
H  H35  1  0.56013058  0.17616199  0.80142621  1  0.071198  -1.5e-05  0.923397  0.0  0.08392  3.8e-05  0.978095  0.0  0.086189  5e-06  0.976633  0.0  0.111265  0.082164  7.7e-05  0.979344  0.0
H  H36  1  0.43988643  0.82383883  0.19857524  1  0.071098  -1.5e-05  0.92352  0.0  0.083904  3.8e-05  0.978144  0.0  0.086188  5e-06  0.976662  0.0  0.111223  0.082129  7.6e-05  0.979412  0.0
C  C37  1  0.80315979  0.12824198  0.62166380  1  -0.147457  -0.000557  3.748781  0.0  -0.166854  -0.00023  4.000823  0.0  -0.171547  -0.000335  4.020784  0.0  -0.098813  -0.163728  -0.000399  3.987775  0.0
C  C38  1  0.19684488  0.87175516  0.37832810  1  -0.147428  -0.00059  3.748639  0.0  -0.166786  -0.000231  4.000555  0.0  -0.171506  -0.000325  4.020533  0.0  -0.09876  -0.163642  -0.000392  3.987467  0.0
C  C39  1  0.33632591  0.60818413  0.51094829  1  -0.052629  0.000851  3.772111  0.001  -0.069508  0.001181  4.02751  0.001  -0.069523  0.000945  4.047418  0.001  -0.089106  -0.069236  0.001688  4.013739  0.001
C  C40  1  0.66368106  0.39181200  0.48906309  1  -0.05268  0.000882  3.771892  0.001  -0.069561  0.001196  4.027293  0.001  -0.069585  0.000961  4.047217  0.001  -0.089034  -0.069267  0.001697  4.013472  0.001
C  C41  1  0.87963026  0.93745423  0.64338844  1  -0.044924  -0.000851  3.76668  0.0  -0.032646  -0.00061  4.008939  0.0  -0.039443  -0.000686  4.031591  0.0  -0.020009  -0.028214  -0.000679  3.994308  -0.001
C  C42  1  0.12037198  0.06254385  0.35660948  1  -0.045135  -0.000859  3.766698  0.0  -0.032873  -0.000614  4.009002  0.0  -0.039673  -0.00067  4.031675  0.0  -0.02  -0.028447  -0.000679  3.994352  -0.001
C  C43  1  0.61625210  0.75279549  0.63791873  1  -0.026322  0.000613  3.749276  0.001  -0.013637  0.000969  3.977744  0.001  -0.015352  0.000794  3.998488  0.001  -0.010889  -0.012075  0.001292  3.96384  0.001
C  C44  1  0.38376252  0.24720252  0.36207803  1  -0.026252  0.000652  3.749353  0.001  -0.013605  0.000985  3.977711  0.001  -0.015301  0.000811  3.998467  0.001  -0.010792  -0.012052  0.001304  3.963783  0.001
C  C45  1  0.51810631  0.76457168  0.72146481  1  -0.110695  0.000352  3.761854  0.0  -0.096938  0.000529  3.999042  0.001  -0.104613  0.000227  4.020655  0.0  -0.024611  -0.092437  0.000775  3.984965  0.001
C  C46  1  0.48192213  0.23544510  0.27853869  1  -0.110752  0.000329  3.762583  0.0  -0.096811  0.000507  3.999559  0.0  -0.10452  0.000211  4.021209  0.0  -0.024574  -0.09228  0.000737  3.985437  0.001
C  C47  1  0.12835403  0.10271168  0.63559486  1  -0.144024  -0.000577  3.75559  0.0  -0.165422  -0.00027  4.008997  0.0  -0.170389  -0.000348  4.030608  0.0  -0.094363  -0.162096  -0.000501  3.994812  0.0
C  C48  1  0.87164511  0.89728172  0.36439710  1  -0.143944  -0.000607  3.755713  0.0  -0.165389  -0.000268  4.009066  0.0  -0.170352  -0.000339  4.030697  0.0  -0.094238  -0.162048  -0.000492  3.994847  0.0
C  C49  1  0.00293498  0.43594244  0.00018481  1  0.095274  0.002666  3.753764  0.002  0.107356  0.004053  3.981241  0.003  0.111306  0.003639  4.002946  0.003  0.014456  0.104998  0.004588  3.96609  0.004
C  C50  1  0.99724119  0.56408291  0.99984690  1  0.095221  0.002751  3.753901  0.002  0.107006  0.004117  3.981663  0.003  0.110961  0.003693  4.003373  0.003  0.014406  0.104587  0.004748  3.966542  0.004
C  C51  1  0.99138725  0.40134885  0.09228206  1  -0.146819  -0.000638  3.696245  0.0  -0.164351  0.000119  3.941582  0.0  -0.172072  -0.00058  3.963428  0.0  -0.077675  -0.159193  0.000704  3.926538  0.001
C  C52  1  0.00875453  0.59867291  0.90774716  1  -0.146237  -0.000735  3.69514  0.0  -0.163908  5.8e-05  3.940772  0.0  -0.171626  -0.000649  3.962579  0.0  -0.07742  -0.158723  0.000565  3.92576  0.001
C  C53  1  0.23855546  0.61974080  0.59355568  1  -0.074706  -0.000688  3.776729  0.0  -0.092566  -0.000436  4.034656  0.0  -0.094746  -0.000563  4.054348  0.0  -0.09564  -0.091076  -0.000455  4.021183  0.0
C  C54  1  0.76146668  0.38027031  0.40646235  1  -0.07471  -0.00071  3.776318  0.0  -0.092583  -0.000444  4.0343  0.0  -0.094776  -0.000572  4.054001  0.0  -0.095693  -0.091056  -0.00046  4.020809  0.0
C  C55  1  0.07031935  0.98504262  0.64551888  1  -0.033461  0.000417  3.697126  0.0  -0.056936  0.000394  3.949327  0.0  -0.054898  0.000234  3.967029  0.0  -0.072042  -0.058482  0.001085  3.937811  0.001
C  C56  1  0.92968011  0.01494794  0.35447614  1  -0.033288  0.000433  3.697272  0.0  -0.056765  0.000384  3.949483  0.0  -0.054744  0.000223  3.967195  0.0  -0.071993  -0.058282  0.001042  3.937928  0.001
C  C57  1  0.99433767  0.17381111  0.62564568  1  0.150246  0.000689  3.780293  0.001  0.160367  0.000896  4.042895  0.001  0.165189  0.000569  4.063937  0.0  0.020602  0.156719  0.002008  4.028938  0.002
C  C58  1  0.00566769  0.82618415  0.37434354  1  0.150095  0.000708  3.780471  0.001  0.160314  0.000885  4.042931  0.001  0.165104  0.000559  4.064021  0.0  0.020584  0.156687  0.001966  4.028945  0.002
C  C59  1  0.02061443  0.34364247  0.90860183  1  -0.152459  -0.000918  3.703874  0.0  -0.172561  -0.000333  3.953868  0.0  -0.18048  -0.000959  3.975845  0.0  -0.080314  -0.167234  0.000144  3.938708  0.0
C  C60  1  0.97948848  0.65637103  0.09142256  1  -0.15293  -0.000959  3.70442  0.0  -0.17271  -0.000344  3.95439  0.0  -0.18063  -0.000998  3.976378  0.0  -0.080234  -0.167407  0.000157  3.939267  0.0
C  C61  1  0.74707241  0.00909954  0.62974347  1  -0.050228  0.000496  3.719976  0.0  -0.07251  0.000468  3.968603  0.0  -0.071921  0.000324  3.98918  0.0  -0.076255  -0.073056  0.001069  3.95508  0.001
C  C62  1  0.25293466  0.99090041  0.37025235  1  -0.050257  0.000534  3.719888  0.001  -0.072579  0.000476  3.968554  0.0  -0.072007  0.00032  3.989162  0.0  -0.076325  -0.073118  0.001088  3.95501  0.001
C  C63  1  0.82335383  0.81317448  0.65732464  1  0.416897  0.00043  3.724712  0.001  0.391357  0.001185  3.996149  0.001  0.416034  0.000279  3.994247  0.0  0.167448  0.373305  0.003391  3.998584  0.003
C  C64  1  0.17665319  0.18682543  0.34268094  1  0.416962  0.000431  3.724706  0.001  0.391395  0.001174  3.996172  0.001  0.416058  0.000272  3.994286  0.0  0.167463  0.373371  0.003335  3.998569  0.003
C  C65  1  0.99694367  0.27999286  0.08924423  1  0.125142  0.003018  3.698617  0.003  0.096542  0.005254  3.947842  0.005  0.102869  0.004516  3.966653  0.004  0.053008  0.092382  0.006023  3.934871  0.005
C  C66  1  0.00271742  0.71994303  0.91070885  1  0.125404  0.003076  3.69672  0.003  0.096602  0.005333  3.945975  0.005  0.102954  0.004581  3.964753  0.004  0.05299  0.092398  0.0062  3.933059  0.005
C  C67  1  0.61268461  0.84795685  0.83433095  1  0.64882  0.002957  3.900551  0.003  0.596661  0.006215  4.195651  0.006  0.631544  0.004558  4.188698  0.005  0.214077  0.572905  0.008041  4.199087  0.007
C  C68  1  0.38742948  0.15211988  0.16566080  1  0.648959  0.003026  3.901134  0.003  0.596672  0.006327  4.196269  0.006  0.63158  0.004651  4.189316  0.005  0.214183  0.572889  0.008158  4.199688  0.007
C  C69  1  0.02215434  0.22356138  0.91133666  1  0.140111  0.003187  3.687541  0.003  0.111715  0.005342  3.936496  0.005  0.118733  0.004667  3.955662  0.004  0.057595  0.10719  0.006036  3.923134  0.005
C  C70  1  0.97747744  0.77635863  0.08861654  1  0.140553  0.003207  3.687097  0.003  0.112202  0.005378  3.936108  0.005  0.119221  0.004707  3.955265  0.004  0.057397  0.107706  0.00609  3.922792  0.005
C  C71  1  0.32962379  0.69694374  0.69804755  1  -0.05798  0.001057  3.746609  0.001  -0.083197  0.001454  4.001286  0.001  -0.081457  0.001176  4.018675  0.001  -0.08661  -0.084193  0.001992  3.989703  0.002
C  C72  1  0.67041080  0.30307862  0.30196843  1  -0.057946  0.0011  3.746803  0.001  -0.08334  0.001469  4.001415  0.001  -0.081592  0.00119  4.018819  0.001  -0.086441  -0.08433  0.002002  3.989802  0.002
C  C73  1  0.52449322  0.67469679  0.53308148  1  -0.102198  -0.00071  3.738263  0.0  -0.120741  -0.000484  3.98628  0.0  -0.124685  -0.000628  4.008212  0.0  -0.09131  -0.117954  -0.000416  3.971216  0.0
C  C74  1  0.47551720  0.32528993  0.46691582  1  -0.101953  -0.000802  3.738141  -0.001  -0.120554  -0.00049  3.986182  0.0  -0.124493  -0.000642  4.008093  0.0  -0.091159  -0.117742  -0.000422  3.971063  0.0
C  C75  1  0.54097577  0.44388333  0.76435410  1  0.107896  -3.5e-05  3.781093  0.0  0.082774  3.1e-05  4.044029  0.0  0.087942  1.6e-05  4.062976  0.0  0.033655  0.079494  5.4e-05  4.030923  0.0
C  C76  1  0.45902235  0.55611854  0.23564592  1  0.10788  4e-06  3.781022  0.0  0.082795  3e-05  4.043985  0.0  0.08797  1.7e-05  4.062916  0.0  0.033661  0.079516  5e-05  4.030881  0.0
C  C77  1  0.51027450  0.46316117  0.94621575  1  0.08517  -2.7e-05  3.757605  0.0  0.098303  8e-06  3.986549  0.0  0.101503  -4e-06  4.008287  0.0  0.005159  0.096279  2.3e-05  3.971759  0.0
C  C78  1  0.48974972  0.53684055  0.05378882  1  0.085232  -2e-05  3.757535  0.0  0.098494  1.2e-05  3.98636  0.0  0.101696  -3e-06  4.00809  0.0  0.005243  0.096458  3.3e-05  3.971585  0.0
C  C79  1  0.52394326  0.33742083  0.92189938  1  -0.161184  -4.4e-05  3.695788  0.0  -0.179324  -5.8e-05  3.940766  0.0  -0.185683  -7.8e-05  3.961369  0.0  -0.087605  -0.175262  -2e-05  3.927134  0.0
C  C80  1  0.47608340  0.66258746  0.07810632  1  -0.161149  -4.5e-05  3.695886  0.0  -0.179317  -6.3e-05  3.940815  0.0  -0.185677  -8.2e-05  3.961433  0.0  -0.087536  -0.175238  -3.2e-05  3.92715  0.0
C  C81  1  0.51758601  0.51586387  0.86347272  1  -0.164145  2.1e-05  3.709411  0.0  -0.183632  5e-06  3.957768  0.0  -0.190777  -1.6e-05  3.980085  0.0  -0.090111  -0.178949  4.2e-05  3.942756  0.0
C  C82  1  0.48242243  0.48413982  0.13652943  1  -0.16408  -2.9e-05  3.709571  0.0  -0.183613  8e-06  3.957896  0.0  -0.190744  -1.6e-05  3.980191  0.0  -0.090136  -0.178946  4.7e-05  3.942924  0.0
C  C83  1  0.54749093  0.27358409  0.82027456  1  0.115014  -8e-05  3.760241  0.0  0.093528  8e-06  4.017009  0.0  0.098698  -1.9e-05  4.035055  0.0  0.037406  0.090244  3.4e-05  4.004661  0.0
C  C84  1  0.45251889  0.72641960  0.17972471  1  0.114998  -7.2e-05  3.76029  0.0  0.093425  9e-06  4.017094  0.0  0.09858  -1.7e-05  4.035145  0.0  0.037361  0.090154  4.1e-05  4.004743  0.0
N  N85  1  0.00987117  0.19167252  0.99997093  1  -0.326641  0.026413  3.25409  0.013  -0.253963  0.028163  3.522595  0.01  -0.273541  0.025487  3.537981  0.008  -0.323884  -0.240013  0.030256  3.511899  0.011
N  N86  1  0.98922779  0.80815543  0.99988611  1  -0.327879  0.026399  3.254025  0.013  -0.255037  0.028156  3.522514  0.01  -0.274634  0.025455  3.537904  0.008  -0.32467  -0.241094  0.030279  3.511829  0.011
N  N87  1  0.55714617  0.32442659  0.74152476  1  -0.333322  2.6e-05  3.104108  0.0  -0.29348  8e-06  3.375614  0.0  -0.305419  -2e-06  3.391427  0.0  -0.32569  -0.28497  3.3e-05  3.364334  0.0
N  N88  1  0.44284576  0.67557342  0.25847498  1  -0.333268  1.4e-05  3.103876  0.0  -0.29344  4e-06  3.375436  0.0  -0.305379  -5e-06  3.391259  0.0  -0.325669  -0.284925  2.1e-05  3.364142  0.0
Cl  Cl89  1  0.06924788  0.32405810  0.62038841  1  -0.081523  4.2e-05  1.375419  0.0  -0.056009  0.000178  1.613001  0.0  -0.061694  0.000102  1.610128  0.0  0.033439  -0.052047  0.000359  1.615217  0.0
Cl  Cl90  1  0.93076159  0.67594090  0.37960664  1  -0.081417  3.8e-05  1.375551  0.0  -0.055943  0.000177  1.613087  0.0  -0.061625  0.000101  1.61023  0.0  0.033503  -0.051957  0.000352  1.615288  0.0
O  O91  1  0.78006523  0.91443530  0.84956640  1  -0.63806  0.028688  2.041011  0.018  -0.571045  0.034231  2.30013  0.02  -0.603832  0.031466  2.291367  0.018  -0.297317  -0.546362  0.036372  2.304802  0.021
O  O92  1  0.22002926  0.08559925  0.15037837  1  -0.638269  0.028915  2.042387  0.018  -0.570747  0.03433  2.301413  0.019  -0.603598  0.031592  2.292591  0.018  -0.297367  -0.545958  0.036327  2.306084  0.021
O  O93  1  0.94019395  0.75160964  0.67405931  1  -0.467928  7.4e-05  1.963948  0.0  -0.431726  0.000843  2.187008  0.001  -0.449376  0.000242  2.18216  0.0  -0.260805  -0.420083  0.001875  2.190937  0.002
O  O94  1  0.05980973  0.24838097  0.32591506  1  -0.468023  6.5e-05  1.964035  0.0  -0.431752  0.000846  2.187037  0.001  -0.449423  0.000244  2.182217  0.0  -0.260777  -0.420085  0.001864  2.190929  0.002
O  O95  1  0.52110082  0.84686662  0.90814489  1  -0.647449  0.000983  1.984129  0.002  -0.583944  0.002794  2.200872  0.004  -0.608499  0.001846  2.188814  0.003  -0.315731  -0.566717  0.003808  2.208684  0.004
O  O96  1  0.47899769  0.15326858  0.09186775  1  -0.64711  0.001018  1.98452  0.002  -0.583722  0.002855  2.201438  0.004  -0.608284  0.001899  2.189397  0.003  -0.315652  -0.566463  0.003877  2.209232  0.005
O  O97  1  0.24315332  0.99777501  0.91459622  1  -0.828481  0.028619  1.846661  0.019  -0.773212  0.038801  2.049184  0.026  -0.795849  0.034328  2.015663  0.022  -0.576863  -0.755936  0.04314  2.072349  0.029
O  O98  1  0.75703098  0.00221711  0.08549096  1  -0.828695  0.028457  1.845814  0.019  -0.773642  0.038679  2.048268  0.026  -0.796197  0.034186  2.014703  0.022  -0.576987  -0.756477  0.043125  2.071472  0.029
