# generated using pymatgen
data_AgH5C8(NO3)2
_symmetry_space_group_name_H-M   'P 1'
_cell_length_a   5.62926477
_cell_length_b   11.66194494
_cell_length_c   14.85679133
_cell_angle_alpha   90.00130789
_cell_angle_beta   91.65873203
_cell_angle_gamma   90.00383479
_symmetry_Int_Tables_number   1
_chemical_formula_structural   AgH5C8(NO3)2
_chemical_formula_sum   'Ag4 H20 C32 N8 O24'
_cell_volume   974.91255597
_cell_formula_units_Z   4
loop_
 _symmetry_equiv_pos_site_id
 _symmetry_equiv_pos_as_xyz
  1  'x, y, z'
loop_
 _atom_site_type_symbol
 _atom_site_label
 _atom_site_symmetry_multiplicity
 _atom_site_fract_x
 _atom_site_fract_y
 _atom_site_fract_z
 _atom_site_occupancy
 _atom_site_hle17_bader_spin_density
 _atom_site_hle17_ddec_charge
 _atom_site_hle17_ddec_spin_density
 _atom_site_hle17_ddec_sum_bond_order
 _atom_site_hle17_magmom
 _atom_site_hse06_10hf_bader_spin_density
 _atom_site_hse06_10hf_ddec_charge
 _atom_site_hse06_10hf_ddec_spin_density
 _atom_site_hse06_10hf_ddec_sum_bond_order
 _atom_site_hse06_10hf_magmom
 _atom_site_hse06_bader_spin_density
 _atom_site_hse06_ddec_charge
 _atom_site_hse06_ddec_spin_density
 _atom_site_hse06_ddec_sum_bond_order
 _atom_site_hse06_magmom
 _atom_site_pbe_bader_spin_density
 _atom_site_pbe_cm5_charge
 _atom_site_pbe_ddec_charge
 _atom_site_pbe_ddec_spin_density
 _atom_site_pbe_ddec_sum_bond_order
 _atom_site_pbe_magmom
Ag  Ag0  1  0.70089827  0.96402423  0.95402525  1  0  0.619843  0  1.338903  0  0  0.496411  0  1.787336  0  0  0.53021  0  1.726799  0  0  0.41892  0.474046  0  1.828754  0
Ag  Ag1  1  0.79911208  0.46403469  0.54597066  1  0  0.619794  0  1.338883  0  0  0.496318  0  1.787358  0  0  0.530125  0  1.726819  0  0  0.418878  0.473952  0  1.828777  0
Ag  Ag2  1  0.29911687  0.03597189  0.04595471  1  0  0.619769  0  1.338893  0  0  0.496311  0  1.787355  0  0  0.530109  0  1.72683  0  0  0.418912  0.473945  0  1.828779  0
Ag  Ag3  1  0.20091152  0.53596314  0.45404031  1  0  0.619832  0  1.338845  0  0  0.496378  0  1.78731  0  0  0.530178  0  1.726779  0  0  0.418918  0.47402  0  1.828746  0
H  H4  1  0.33069222  0.05723455  0.45720500  1  0  0.143667  0  0.959764  0  0  0.145604  0  1.030928  0  0  0.150269  0  1.026392  0  0  0.122374  0.142275  0  1.034084  0
H  H5  1  0.16929320  0.55723884  0.04280602  1  0  0.1437  0  0.959601  0  0  0.145673  0  1.030786  0  0  0.150326  0  1.026237  0  0  0.122402  0.142328  0  1.033941  0
H  H6  1  0.66928088  0.94275299  0.54278889  1  0  0.143891  0  0.959652  0  0  0.145716  0  1.030845  0  0  0.150361  0  1.026379  0  0  0.122441  0.142371  0  1.034069  0
H  H7  1  0.83071461  0.44277357  0.95720958  1  0  0.143866  0  0.959658  0  0  0.14576  0  1.030866  0  0  0.150406  0  1.026325  0  0  0.122468  0.142418  0  1.034022  0
H  H8  1  0.12759759  0.88608965  0.21005216  1  0  0.128034  0  0.940812  0  0  0.133672  0  1.008817  0  0  0.137673  0  1.004896  0  0  0.119982  0.130739  0  1.011759  0
H  H9  1  0.37241054  0.38606306  0.28993190  1  0  0.128012  0  0.940789  0  0  0.133753  0  1.008563  0  0  0.137723  0  1.004673  0  0  0.120033  0.130805  0  1.011521  0
H  H10  1  0.87243182  0.11391332  0.78992921  1  0  0.127994  0  0.940866  0  0  0.133774  0  1.008725  0  0  0.137751  0  1.004818  0  0  0.119984  0.130818  0  1.011675  0
H  H11  1  0.62759359  0.61394334  0.71008099  1  0  0.128075  0  0.940823  0  0  0.133855  0  1.008541  0  0  0.137826  0  1.00465  0  0  0.120066  0.130907  0  1.011504  0
H  H12  1  0.67804893  0.23865968  0.22300165  1  0  0.132449  0  0.945453  0  0  0.148252  0  1.011674  0  0  0.150711  0  1.009922  0  0  0.097357  0.146483  0  1.012888  0
H  H13  1  0.82198058  0.73866601  0.27701071  1  0  0.132526  0  0.94546  0  0  0.148315  0  1.01167  0  0  0.150781  0  1.009965  0  0  0.097403  0.146547  0  1.012943  0
H  H14  1  0.32192397  0.76132529  0.77698753  1  0  0.132453  0  0.945366  0  0  0.148214  0  1.011673  0  0  0.150675  0  1.00992  0  0  0.097336  0.146443  0  1.012892  0
H  H15  1  0.17804482  0.26133182  0.72300094  1  0  0.132467  0  0.94541  0  0  0.148305  0  1.011588  0  0  0.150766  0  1.009831  0  0  0.097385  0.146535  0  1.012801  0
H  H16  1  0.68912606  0.27769812  0.33956531  1  0  0.115315  0  0.97338  0  0  0.133205  0  1.036669  0  0  0.13438  0  1.037319  0  0  0.091159  0.132382  0  1.036091  0
H  H17  1  0.81092021  0.77770116  0.16044645  1  0  0.115131  0  0.973559  0  0  0.133164  0  1.036683  0  0  0.134345  0  1.037331  0  0  0.091173  0.132342  0  1.036118  0
H  H18  1  0.31086260  0.72229456  0.66041856  1  0  0.115174  0  0.973505  0  0  0.133169  0  1.036695  0  0  0.134351  0  1.037329  0  0  0.091161  0.132347  0  1.036116  0
H  H19  1  0.18909645  0.22230267  0.83956852  1  0  0.115193  0  0.973512  0  0  0.133145  0  1.036733  0  0  0.134324  0  1.037373  0  0  0.091142  0.132323  0  1.036149  0
H  H20  1  0.49984340  0.16639931  0.29948724  1  0  0.131544  0  0.954835  0  0  0.152834  0  1.016218  0  0  0.153992  0  1.016733  0  0  0.096853  0.152005  0  1.015915  0
H  H21  1  0.00017302  0.66640816  0.20052431  1  0  0.131509  0  0.954801  0  0  0.152813  0  1.016197  0  0  0.153963  0  1.016721  0  0  0.096849  0.151986  0  1.015895  0
H  H22  1  0.50015100  0.83358394  0.70050608  1  0  0.131458  0  0.954941  0  0  0.15282  0  1.016285  0  0  0.153976  0  1.01678  0  0  0.096767  0.151993  0  1.015961  0
H  H23  1  0.99983808  0.33359052  0.79948524  1  0  0.131566  0  0.954872  0  0  0.152856  0  1.016277  0  0  0.154013  0  1.016772  0  0  0.096856  0.152027  0  1.015955  0
C  C24  1  0.76693861  0.02048316  0.15802469  1  0  0.655024  0  3.893234  0  0  0.602176  0  4.174647  0  0  0.63782  0  4.171816  0  0  0.213324  0.578108  0  4.175472  0
C  C25  1  0.73307795  0.52047449  0.34196934  1  0  0.655155  0  3.892991  0  0  0.602366  0  4.174318  0  0  0.638009  0  4.171462  0  0  0.21342  0.578301  0  4.175123  0
C  C26  1  0.23307300  0.97951467  0.84195592  1  0  0.655117  0  3.893296  0  0  0.602327  0  4.174657  0  0  0.637972  0  4.171788  0  0  0.213347  0.578258  0  4.175449  0
C  C27  1  0.26693685  0.47952763  0.65804360  1  0  0.655015  0  3.893392  0  0  0.602468  0  4.174391  0  0  0.638113  0  4.171516  0  0  0.213393  0.578399  0  4.175181  0
C  C28  1  0.91267529  0.03207705  0.24420738  1  0  -0.081152  0  3.648591  0  0  -0.064366  0  3.888832  0  0  -0.074031  0  3.908659  0  0  -0.001076  -0.058538  0  3.876062  0
C  C29  1  0.58734197  0.53206283  0.25578975  1  0  -0.081139  0  3.648906  0  0  -0.064446  0  3.889231  0  0  -0.074109  0  3.908979  0  0  -0.001067  -0.058626  0  3.876392  0
C  C30  1  0.08733979  0.96792077  0.75577123  1  0  -0.081425  0  3.649255  0  0  -0.064585  0  3.889578  0  0  -0.074252  0  3.909295  0  0  -0.00111  -0.058766  0  3.876706  0
C  C31  1  0.41266948  0.46794185  0.74422789  1  0  -0.081181  0  3.648887  0  0  -0.064522  0  3.889179  0  0  -0.074188  0  3.908891  0  0  -0.001066  -0.058699  0  3.876306  0
C  C32  1  0.86788491  0.11981602  0.30743719  1  0  0.160425  0  3.636096  0  0  0.160457  0  3.88652  0  0  0.168189  0  3.904486  0  0  0.02778  0.155627  0  3.873575  0
C  C33  1  0.63213454  0.61981603  0.19256969  1  0  0.160302  0  3.636101  0  0  0.160343  0  3.886588  0  0  0.168082  0  3.904485  0  0  0.027731  0.155515  0  3.873588  0
C  C34  1  0.13211080  0.88017323  0.69254537  1  0  0.160647  0  3.63652  0  0  0.160648  0  3.887158  0  0  0.168379  0  3.905013  0  0  0.027861  0.155817  0  3.874107  0
C  C35  1  0.36787680  0.38019037  0.80744525  1  0  0.160307  0  3.636285  0  0  0.160326  0  3.886879  0  0  0.168061  0  3.904716  0  0  0.027656  0.155495  0  3.873817  0
C  C36  1  0.02690439  0.12491851  0.38204278  1  0  0.035742  0  3.648071  0  0  0.020271  0  3.896327  0  0  0.02082  0  3.921228  0  0  0.082757  0.023719  0  3.882162  0
C  C37  1  0.47310174  0.62491909  0.11796596  1  0  0.035509  0  3.64823  0  0  0.020315  0  3.896598  0  0  0.020909  0  3.921476  0  0  0.082741  0.023764  0  3.882331  0
C  C38  1  0.97307926  0.87507160  0.61794847  1  0  0.035902  0  3.647968  0  0  0.020269  0  3.896534  0  0  0.020785  0  3.921312  0  0  0.082821  0.023716  0  3.882272  0
C  C39  1  0.52690598  0.37508902  0.88204762  1  0  0.035759  0  3.648133  0  0  0.02039  0  3.896617  0  0  0.020942  0  3.921398  0  0  0.08278  0.023838  0  3.882343  0
C  C40  1  0.21241849  0.04832748  0.39840105  1  0  -0.118616  0  3.68768  0  0  -0.160189  0  3.956885  0  0  -0.155584  0  3.969243  0  0  -0.067588  -0.16235  0  3.946434  0
C  C41  1  0.28758091  0.54832127  0.10160502  1  0  -0.118574  0  3.687718  0  0  -0.159909  0  3.955677  0  0  -0.155575  0  3.969165  0  0  -0.067463  -0.162323  0  3.946386  0
C  C42  1  0.78756697  0.95166349  0.60159088  1  0  -0.118883  0  3.687549  0  0  -0.159966  0  3.955629  0  0  -0.155641  0  3.969179  0  0  -0.067701  -0.162399  0  3.946354  0
C  C43  1  0.71242868  0.45168771  0.89841059  1  0  -0.118733  0  3.68775  0  0  -0.159956  0  3.955753  0  0  -0.155625  0  3.969244  0  0  -0.06758  -0.162405  0  3.946451  0
C  C44  1  0.23629356  0.95950147  0.33722105  1  0  0.09251  0  3.722191  0  0  0.073033  0  3.983231  0  0  0.074263  0  4.0068  0  0  0.080448  0.075473  0  3.969712  0
C  C45  1  0.26370321  0.45948524  0.16277288  1  0  0.092446  0  3.721893  0  0  0.078373  0  3.985791  0  0  0.074416  0  4.006493  0  0  0.080444  0.075552  0  3.969495  0
C  C46  1  0.76370937  0.04049465  0.66276423  1  0  0.092648  0  3.722162  0  0  0.078381  0  3.986065  0  0  0.074422  0  4.006766  0  0  0.080553  0.075592  0  3.969678  0
C  C47  1  0.73629578  0.54052717  0.83724403  1  0  0.092481  0  3.722396  0  0  0.07842  0  3.986209  0  0  0.074458  0  4.00692  0  0  0.080578  0.07563  0  3.969798  0
C  C48  1  0.09359884  0.95228425  0.25952279  1  0  -0.066633  0  3.676814  0  0  -0.11213  0  3.946478  0  0  -0.105544  0  3.958576  0  0  -0.062362  -0.116144  0  3.937865  0
C  C49  1  0.40641402  0.45226233  0.24046625  1  0  -0.066667  0  3.677004  0  0  -0.111797  0  3.945388  0  0  -0.105485  0  3.958611  0  0  -0.062372  -0.116086  0  3.937957  0
C  C50  1  0.90642165  0.04771701  0.74045786  1  0  -0.066681  0  3.677033  0  0  -0.112036  0  3.945615  0  0  -0.105729  0  3.958839  0  0  -0.062497  -0.116329  0  3.938143  0
C  C51  1  0.59359030  0.54774751  0.75955068  1  0  -0.066932  0  3.677419  0  0  -0.112113  0  3.945773  0  0  -0.105813  0  3.95902  0  0  -0.062589  -0.116424  0  3.938316  0
C  C52  1  0.67479993  0.20621067  0.29217702  1  0  -0.35296  0  3.709344  0  0  -0.440623  0  3.957149  0  0  -0.443368  0  3.964496  0  0  -0.250061  -0.438332  0  3.951653  0
C  C53  1  0.82522653  0.70621418  0.20783421  1  0  -0.352887  0  3.709442  0  0  -0.440665  0  3.957194  0  0  -0.443404  0  3.964605  0  0  -0.250115  -0.438373  0  3.951762  0
C  C54  1  0.32518529  0.79377858  0.70780953  1  0  -0.352871  0  3.709627  0  0  -0.44058  0  3.95734  0  0  -0.443325  0  3.964664  0  0  -0.249985  -0.438288  0  3.951826  0
C  C55  1  0.17479002  0.29378880  0.79217807  1  0  -0.352946  0  3.709599  0  0  -0.440626  0  3.957341  0  0  -0.443367  0  3.964655  0  0  -0.250046  -0.438332  0  3.951816  0
N  N56  1  0.00874448  0.21850151  0.44806680  1  0  0.476089  0  3.933143  0  0  0.542202  0  4.175684  0  0  0.54067  0  4.221833  0  0  0.058256  0.527563  0  4.170283  0
N  N57  1  0.49125998  0.71851499  0.05195861  1  0  0.476847  0  3.931928  0  0  0.542107  0  4.175709  0  0  0.540312  0  4.222261  0  0  0.058002  0.527468  0  4.170286  0
N  N58  1  0.99121420  0.78148860  0.55192231  1  0  0.475961  0  3.933414  0  0  0.542072  0  4.176064  0  0  0.540648  0  4.222054  0  0  0.058107  0.527433  0  4.170677  0
N  N59  1  0.50874961  0.28149313  0.94805700  1  0  0.476636  0  3.932309  0  0  0.542167  0  4.175714  0  0  0.54061  0  4.221901  0  0  0.058144  0.527524  0  4.17029  0
N  N60  1  0.42121306  0.87340515  0.35292067  1  0  0.476134  0  3.946166  0  0  0.539254  0  4.194229  0  0  0.541411  0  4.23352  0  0  0.060566  0.524493  0  4.189484  0
N  N61  1  0.07876411  0.37338557  0.14706415  1  0  0.476933  0  3.945207  0  0  0.520678  0  4.223924  0  0  0.541434  0  4.233477  0  0  0.060576  0.524534  0  4.189386  0
N  N62  1  0.57877775  0.12659010  0.64707196  1  0  0.476046  0  3.946254  0  0  0.520493  0  4.224169  0  0  0.541252  0  4.233716  0  0  0.060626  0.52446  0  4.189498  0
N  N63  1  0.92123647  0.62662512  0.85294873  1  0  0.476855  0  3.94494  0  0  0.520691  0  4.22359  0  0  0.541436  0  4.233165  0  0  0.060737  0.524675  0  4.188831  0
O  O64  1  0.87976858  0.99128177  0.08831192  1  0  -0.621424  0  2.166199  0  0  -0.535557  0  2.447915  0  0  -0.570382  0  2.43497  0  0  -0.320782  -0.511319  0  2.455855  0
O  O65  1  0.62023313  0.49126925  0.41168340  1  0  -0.621434  0  2.165849  0  0  -0.53553  0  2.447423  0  0  -0.570357  0  2.434482  0  0  -0.320803  -0.511289  0  2.455361  0
O  O66  1  0.12025366  0.00872378  0.91166806  1  0  -0.62129  0  2.166124  0  0  -0.535442  0  2.447816  0  0  -0.570265  0  2.434864  0  0  -0.320732  -0.511204  0  2.455745  0
O  O67  1  0.37977981  0.50872257  0.58832751  1  0  -0.621411  0  2.166068  0  0  -0.535659  0  2.447675  0  0  -0.570485  0  2.434719  0  0  -0.320822  -0.51142  0  2.455612  0
O  O68  1  0.54513849  0.03672292  0.16282072  1  0  -0.592357  0  2.107944  0  0  -0.515809  0  2.375247  0  0  -0.54997  0  2.36774  0  0  -0.310005  -0.491862  0  2.379278  0
O  O69  1  0.95487977  0.53671387  0.33717792  1  0  -0.592495  0  2.107871  0  0  -0.515979  0  2.37519  0  0  -0.550151  0  2.367709  0  0  -0.31006  -0.492034  0  2.379246  0
O  O70  1  0.45487676  0.96326633  0.83716193  1  0  -0.592533  0  2.107867  0  0  -0.51603  0  2.375189  0  0  -0.5502  0  2.367702  0  0  -0.310094  -0.492091  0  2.379241  0
O  O71  1  0.04513159  0.46329081  0.66283770  1  0  -0.592366  0  2.107995  0  0  -0.515979  0  2.375233  0  0  -0.55015  0  2.367742  0  0  -0.310014  -0.492036  0  2.379281  0
O  O72  1  0.81928488  0.22885098  0.48835235  1  0  -0.332699  0  1.787525  0  0  -0.32981  0  1.991682  0  0  -0.336376  0  1.998816  0  0  -0.115002  -0.320315  0  1.995192  0
O  O73  1  0.68070005  0.72887248  0.01166081  1  0  -0.332895  0  1.787056  0  0  -0.329806  0  1.991713  0  0  -0.33628  0  1.998941  0  0  -0.114979  -0.320309  0  1.995221  0
O  O74  1  0.18067937  0.77112627  0.51164218  1  0  -0.332715  0  1.787559  0  0  -0.329905  0  1.991978  0  0  -0.336474  0  1.998858  0  0  -0.115028  -0.320375  0  1.995293  0
O  O75  1  0.31931499  0.27113992  0.98835752  1  0  -0.332859  0  1.787417  0  0  -0.329807  0  1.991848  0  0  -0.336389  0  1.999046  0  0  -0.114957  -0.32031  0  1.995351  0
O  O76  1  0.18511398  0.28094809  0.45907156  1  0  -0.319332  0  1.776369  0  0  -0.321158  0  1.984032  0  0  -0.324193  0  1.987613  0  0  -0.104851  -0.31425  0  1.990043  0
O  O77  1  0.31490225  0.78096353  0.04097490  1  0  -0.319534  0  1.775693  0  0  -0.321045  0  1.983719  0  0  -0.323977  0  1.987411  0  0  -0.104642  -0.314133  0  1.989724  0
O  O78  1  0.81482134  0.71905745  0.54091139  1  0  -0.31923  0  1.776666  0  0  -0.320995  0  1.984283  0  0  -0.324072  0  1.987842  0  0  -0.104711  -0.314089  0  1.990314  0
O  O79  1  0.68510544  0.21904287  0.95903801  1  0  -0.319543  0  1.7758  0  0  -0.321151  0  1.983734  0  0  -0.324167  0  1.987312  0  0  -0.104804  -0.314241  0  1.989739  0
O  O80  1  0.59668101  0.89998729  0.40122778  1  0  -0.351373  0  1.78092  0  0  -0.346791  0  1.977057  0  0  -0.354311  0  1.98491  0  0  -0.127836  -0.337086  0  1.978622  0
O  O81  1  0.90328624  0.39997325  0.09876762  1  0  -0.351576  0  1.780857  0  0  -0.340311  0  1.986516  0  0  -0.354238  0  1.985127  0  0  -0.127744  -0.336998  0  1.978793  0
O  O82  1  0.40330625  0.10000796  0.59876484  1  0  -0.351398  0  1.78092  0  0  -0.340403  0  1.986386  0  0  -0.354326  0  1.984994  0  0  -0.127901  -0.337139  0  1.97863  0
O  O83  1  0.09671621  0.60004344  0.90124729  1  0  -0.351423  0  1.780506  0  0  -0.34015  0  1.98607  0  0  -0.35407  0  1.984686  0  0  -0.127722  -0.33689  0  1.978286  0
O  O84  1  0.39229031  0.77854414  0.31655049  1  0  -0.330182  0  1.778863  0  0  -0.320844  0  1.970518  0  0  -0.326598  0  1.97786  0  0  -0.11023  -0.31267  0  1.972717  0
O  O85  1  0.10768092  0.27851409  0.18341220  1  0  -0.330694  0  1.778509  0  0  -0.314733  0  1.979702  0  0  -0.326826  0  1.977783  0  0  -0.110381  -0.312918  0  1.97265  0
O  O86  1  0.60769538  0.22144940  0.68344683  1  0  -0.330062  0  1.778942  0  0  -0.314355  0  1.979862  0  0  -0.326478  0  1.977976  0  0  -0.110203  -0.312587  0  1.972769  0
O  O87  1  0.89232638  0.72149232  0.81659196  1  0  -0.330648  0  1.778465  0  0  -0.314779  0  1.97965  0  0  -0.326877  0  1.977743  0  0  -0.110485  -0.313015  0  1.972544  0
