# generated using pymatgen
data_CoH18C22(NO)4
_symmetry_space_group_name_H-M   'P 1'
_cell_length_a   7.73814431
_cell_length_b   18.54443729
_cell_length_c   18.54430572
_cell_angle_alpha   90.00173426
_cell_angle_beta   90.00020789
_cell_angle_gamma   90.00005347
_symmetry_Int_Tables_number   1
_chemical_formula_structural   CoH18C22(NO)4
_chemical_formula_sum   'Co4 H72 C88 N16 O16'
_cell_volume   2661.09919052
_cell_formula_units_Z   4
loop_
 _symmetry_equiv_pos_site_id
 _symmetry_equiv_pos_as_xyz
  1  'x, y, z'
loop_
 _atom_site_type_symbol
 _atom_site_label
 _atom_site_symmetry_multiplicity
 _atom_site_fract_x
 _atom_site_fract_y
 _atom_site_fract_z
 _atom_site_occupancy
 _atom_site_pbe_bader_charge
 _atom_site_pbe_bader_spin_density
 _atom_site_pbe_cm5_charge
 _atom_site_pbe_ddec_charge
 _atom_site_pbe_ddec_spin_density
 _atom_site_pbe_ddec_sum_bond_order
 _atom_site_pbe_magmom
Co  Co0  1  0.49995892  0.77636244  0.22365436  1  1.230852  2.590966  0.648084  0.813907  2.807783  2.398829  2.565
Co  Co1  1  0.49999171  0.22364225  0.77635313  1  1.230559  2.590964  0.648067  0.814025  2.807764  2.398899  2.565
Co  Co2  1  0.49998572  0.27635346  0.27635732  1  1.230359  2.590963  0.648056  0.813886  2.807766  2.399032  2.565
Co  Co3  1  0.50000238  0.72364099  0.72364586  1  1.230359  2.590966  0.648061  0.813902  2.807773  2.399057  2.565
H  H4  1  0.06682808  0.84742914  0.23615868  1  0.144974  0.000585  0.105072  0.117583  0.000306  1.044055  0.0
H  H5  1  0.06680503  0.15256622  0.76384438  1  0.145271  0.000584  0.104971  0.117396  0.000306  1.044213  0.0
H  H6  1  0.06677621  0.26385151  0.34742552  1  0.145282  0.000586  0.105  0.11757  0.000306  1.044016  0.0
H  H7  1  0.06677807  0.73615032  0.65257701  1  0.145205  0.000586  0.105046  0.117662  0.000306  1.044024  0.0
H  H8  1  0.93321733  0.65257035  0.73614437  1  0.145518  0.000585  0.104981  0.117524  0.000306  1.04409  0.0
H  H9  1  0.93322011  0.34743073  0.26385731  1  0.145546  0.000584  0.104971  0.117509  0.000306  1.044072  0.0
H  H10  1  0.93320184  0.23615174  0.84743638  1  0.145153  0.000586  0.104933  0.117391  0.000306  1.044224  0.0
H  H11  1  0.93325111  0.76385851  0.15255829  1  0.145496  0.000585  0.104885  0.117443  0.000306  1.044198  0.0
H  H12  1  0.69197066  0.01760664  0.25918224  1  0.10106  0.000399  0.100844  0.103191  0.000203  1.024318  0.0
H  H13  1  0.69198676  0.98237601  0.74080721  1  0.10132  0.000398  0.100818  0.103173  0.000202  1.024143  0.0
H  H14  1  0.69198496  0.24081927  0.51762775  1  0.100897  0.000398  0.100831  0.103219  0.000202  1.02432  0.0
H  H15  1  0.69199573  0.75917903  0.48237140  1  0.101074  0.000398  0.100842  0.103192  0.000202  1.024202  0.0
H  H16  1  0.30800921  0.48237021  0.75917966  1  0.100955  0.000398  0.100837  0.103144  0.000202  1.024232  0.0
H  H17  1  0.30801604  0.51762685  0.24081999  1  0.100896  0.000398  0.100854  0.103217  0.000202  1.024302  0.0
H  H18  1  0.30801091  0.25919827  0.01762951  1  0.100981  0.000398  0.100819  0.103107  0.000202  1.024228  0.0
H  H19  1  0.30800142  0.74079987  0.98234480  1  0.101063  0.000397  0.100867  0.10317  0.000202  1.024215  0.0
H  H20  1  0.30524202  0.93476622  0.25816370  1  0.147907  -1e-05  0.108782  0.131563  -9e-05  1.032131  0.0
H  H21  1  0.30523927  0.06524055  0.74183972  1  0.148056  -1.2e-05  0.108776  0.131554  -9.1e-05  1.032216  0.0
H  H22  1  0.30522004  0.24184520  0.43474813  1  0.148364  -1.2e-05  0.108866  0.131674  -9.1e-05  1.032276  0.0
H  H23  1  0.30522636  0.75815564  0.56525530  1  0.148277  -1.3e-05  0.108829  0.131627  -9.2e-05  1.032259  0.0
H  H24  1  0.69477257  0.56524903  0.75815448  1  0.148189  -1.2e-05  0.108842  0.131641  -9.1e-05  1.032254  0.0
H  H25  1  0.69477793  0.43475249  0.24185062  1  0.148172  -1.2e-05  0.108838  0.131657  -9.2e-05  1.032365  0.0
H  H26  1  0.69476265  0.25815962  0.93476038  1  0.148026  -1.2e-05  0.108792  0.131588  -9.2e-05  1.03224  0.0
H  H27  1  0.69477880  0.74184461  0.06524849  1  0.148183  -1.4e-05  0.108821  0.131672  -9.3e-05  1.032387  0.0
H  H28  1  0.93031744  0.10445150  0.28859869  1  0.077086  0.000131  0.109176  0.121621  6e-05  1.003348  0.0
H  H29  1  0.93035893  0.89554149  0.71139436  1  0.076838  0.000131  0.109211  0.121813  6e-05  1.003289  0.0
H  H30  1  0.93036804  0.21140318  0.60445468  1  0.07669  0.000131  0.109165  0.121711  6e-05  1.003289  0.0
H  H31  1  0.93038070  0.78859844  0.39554538  1  0.076586  0.00013  0.109145  0.121667  6e-05  1.003342  0.0
H  H32  1  0.06962392  0.39554458  0.78859906  1  0.076507  0.000131  0.109127  0.121675  6e-05  1.003351  0.0
H  H33  1  0.06963328  0.60445779  0.21140509  1  0.076628  0.000131  0.109193  0.121741  6e-05  1.003268  0.0
H  H34  1  0.06963634  0.28861267  0.10446236  1  0.076653  0.000131  0.109149  0.121694  6e-05  1.00352  0.0
H  H35  1  0.06958985  0.71138161  0.89552669  1  0.076447  0.000131  0.109191  0.121783  6e-05  1.003454  0.0
H  H36  1  0.37262462  0.01889080  0.38441183  1  0.118927  0.000751  0.120658  0.118557  0.0003  1.019809  0.0
H  H37  1  0.37265514  0.98111007  0.61559116  1  0.119096  0.000751  0.120645  0.11856  0.0003  1.019833  0.0
H  H38  1  0.37270027  0.11561402  0.51885618  1  0.119184  0.000751  0.120521  0.118406  0.0003  1.020016  0.0
H  H39  1  0.37271906  0.88438253  0.48115274  1  0.119011  0.000751  0.120502  0.118453  0.0003  1.019849  0.0
H  H40  1  0.62730206  0.48113999  0.88438921  1  0.119283  0.000751  0.120529  0.118382  0.0003  1.020019  0.0
H  H41  1  0.62733108  0.51886960  0.11560823  1  0.1193  0.00075  0.120619  0.118532  0.0003  1.019921  0.0
H  H42  1  0.62733567  0.38441164  0.01889026  1  0.119038  0.000751  0.120654  0.118539  0.0003  1.019855  0.0
H  H43  1  0.62731556  0.61558771  0.98111689  1  0.118886  0.000751  0.120659  0.118587  0.0003  1.019859  0.0
H  H44  1  0.13623637  0.11888026  0.16764096  1  0.057035  -5e-05  0.100901  0.148053  -2e-05  1.005617  0.0
H  H45  1  0.13625562  0.88112213  0.83235520  1  0.056897  -5e-05  0.100873  0.148059  -2e-05  1.005743  0.0
H  H46  1  0.13622694  0.33235757  0.61889107  1  0.056898  -5e-05  0.100887  0.148073  -2e-05  1.005753  0.0
H  H47  1  0.13618751  0.66765452  0.38109323  1  0.056882  -4.9e-05  0.100858  0.148049  -2e-05  1.005889  0.0
H  H48  1  0.86376080  0.38111593  0.66764263  1  0.057012  -5e-05  0.100878  0.148057  -2e-05  1.005667  0.0
H  H49  1  0.86372085  0.61886895  0.33237404  1  0.058135  -5.1e-05  0.10084  0.148023  -2e-05  1.00566  0.0
H  H50  1  0.86373363  0.16764954  0.11887472  1  0.057016  -5e-05  0.100853  0.148058  -2e-05  1.005767  0.0
H  H51  1  0.86372605  0.83234935  0.88112685  1  0.058296  -5e-05  0.100848  0.148057  -2e-05  1.005768  0.0
H  H52  1  0.32549360  0.16983219  0.14721944  1  0.068225  6.7e-05  0.105156  0.158833  -5.2e-05  0.981713  0.0
H  H53  1  0.32550645  0.83016919  0.85277971  1  0.068096  6.8e-05  0.105148  0.158871  -5.2e-05  0.981737  0.0
H  H54  1  0.32548315  0.35277097  0.66984948  1  0.068264  6.7e-05  0.105188  0.158891  -5.2e-05  0.981596  0.0
H  H55  1  0.32546133  0.64722610  0.33015613  1  0.068602  6.4e-05  0.105075  0.158579  -5.2e-05  0.981644  0.0
H  H56  1  0.67451761  0.33014936  0.64723168  1  0.068364  6.8e-05  0.105164  0.158842  -5.2e-05  0.98162  0.0
H  H57  1  0.67449862  0.66985540  0.35276907  1  0.068317  7e-05  0.105218  0.158901  -5.1e-05  0.981739  0.0
H  H58  1  0.67448949  0.14722475  0.16983331  1  0.068072  6.8e-05  0.105194  0.158918  -5.2e-05  0.981653  0.0
H  H59  1  0.67447893  0.85277516  0.83017175  1  0.067938  6.7e-05  0.105132  0.15883  -5.2e-05  0.981673  0.0
H  H60  1  0.15702453  0.21070015  0.19671005  1  0.124842  0.000506  0.104369  0.162495  8.1e-05  1.026257  0.0
H  H61  1  0.15703815  0.78930171  0.80328883  1  0.124846  0.000506  0.104359  0.16246  8.1e-05  1.026493  0.0
H  H62  1  0.15701394  0.30327262  0.71070535  1  0.126892  0.000505  0.104393  0.162571  8.1e-05  1.026254  0.0
H  H63  1  0.15703969  0.69674272  0.28928437  1  0.12644  0.000504  0.104392  0.162515  8.1e-05  1.026121  0.0
H  H64  1  0.84300133  0.28930015  0.69672455  1  0.12559  0.000506  0.104397  0.162539  8.1e-05  1.026311  0.0
H  H65  1  0.84302981  0.71068903  0.30329371  1  0.126474  0.000507  0.104328  0.162438  8.2e-05  1.026403  0.0
H  H66  1  0.84296422  0.19671571  0.21069632  1  0.125843  0.000505  0.104338  0.162431  8.1e-05  1.026386  0.0
H  H67  1  0.84294286  0.80327779  0.78930792  1  0.125707  0.000505  0.104323  0.162447  8.1e-05  1.026376  0.0
H  H68  1  0.58780554  0.13965374  0.38442623  1  0.120823  0.000735  0.118995  0.111661  0.000105  1.016658  0.0
H  H69  1  0.58780865  0.86034128  0.61556792  1  0.120675  0.000734  0.118943  0.11159  0.000105  1.016687  0.0
H  H70  1  0.58782343  0.11558030  0.63963736  1  0.120964  0.000734  0.118924  0.111606  0.000105  1.016699  0.0
H  H71  1  0.58788898  0.88440124  0.36038483  1  0.120447  0.000734  0.119047  0.111614  0.000105  1.016876  0.0
H  H72  1  0.41219997  0.36035225  0.88443144  1  0.120833  0.000734  0.118942  0.111616  0.000105  1.016686  0.0
H  H73  1  0.41225639  0.63966481  0.11555382  1  0.121017  0.000734  0.118974  0.111619  0.000106  1.016819  0.0
H  H74  1  0.41217867  0.38443284  0.13965709  1  0.120556  0.000734  0.118934  0.111576  0.000105  1.016834  0.0
H  H75  1  0.41215492  0.61556912  0.86035082  1  0.120467  0.000734  0.118946  0.111599  0.000105  1.016856  0.0
C  C76  1  0.72353593  0.87423780  0.23290144  1  1.524132  -0.00669  0.191677  0.539449  -0.008911  4.217836  -0.007
C  C77  1  0.72351285  0.12573894  0.76710424  1  1.523491  -0.006677  0.191662  0.539322  -0.008895  4.218023  -0.007
C  C78  1  0.72349580  0.26711286  0.37425910  1  1.523477  -0.006678  0.191703  0.539316  -0.008897  4.217843  -0.007
C  C79  1  0.72349095  0.73288221  0.62573202  1  1.522323  -0.006675  0.191412  0.538915  -0.00889  4.218498  -0.007
C  C80  1  0.27649266  0.62573841  0.73288155  1  1.522597  -0.006678  0.19171  0.539456  -0.008896  4.217544  -0.007
C  C81  1  0.27650844  0.37426943  0.26711914  1  1.522689  -0.006675  0.191392  0.538955  -0.008889  4.218432  -0.007
C  C82  1  0.27649800  0.23289121  0.87427373  1  1.522311  -0.006675  0.191491  0.53911  -0.008889  4.218057  -0.007
C  C83  1  0.27654058  0.76712095  0.12569892  1  1.520598  -0.006665  0.191362  0.538406  -0.008873  4.219221  -0.007
C  C84  1  0.86466032  0.92737687  0.24600287  1  0.034998  0.002446  -0.018646  -0.03665  0.001189  3.98499  0.002
C  C85  1  0.86466803  0.07261071  0.75399763  1  0.035488  0.002448  -0.018661  -0.036905  0.00119  3.98527  0.002
C  C86  1  0.86465001  0.25400841  0.42738798  1  0.035386  0.002447  -0.018734  -0.03677  0.00119  3.984907  0.002
C  C87  1  0.86465636  0.74599211  0.57261197  1  0.035979  0.002448  -0.018707  -0.036729  0.001191  3.985191  0.002
C  C88  1  0.13534253  0.57260944  0.74598655  1  0.035902  0.002446  -0.018771  -0.036907  0.00119  3.98509  0.002
C  C89  1  0.13534669  0.42739187  0.25401177  1  0.036082  0.002448  -0.018757  -0.036897  0.00119  3.985183  0.002
C  C90  1  0.13533520  0.24600157  0.92739578  1  0.035755  0.002449  -0.01878  -0.037165  0.00119  3.985377  0.002
C  C91  1  0.13535661  0.75400837  0.07258851  1  0.036539  0.002448  -0.018802  -0.036827  0.001191  3.985601  0.002
C  C92  1  0.03689724  0.90376479  0.24706528  1  -0.064656  -0.000774  -0.08064  -0.073502  -0.001234  3.938534  0.0
C  C93  1  0.03689465  0.09623109  0.75293612  1  -0.065323  -0.00077  -0.080459  -0.073043  -0.00123  3.93869  0.0
C  C94  1  0.03687651  0.25294396  0.40376284  1  -0.065386  -0.00077  -0.08043  -0.073131  -0.001229  3.938641  0.0
C  C95  1  0.03688049  0.74705839  0.59623910  1  -0.065493  -0.000769  -0.080514  -0.073347  -0.001228  3.939012  0.0
C  C96  1  0.96311338  0.59623341  0.74705201  1  -0.065443  -0.00077  -0.080426  -0.073211  -0.001229  3.938789  0.0
C  C97  1  0.96312006  0.40376768  0.25294918  1  -0.065662  -0.000768  -0.080365  -0.073065  -0.001228  3.938674  0.0
C  C98  1  0.96310849  0.24706369  0.90377246  1  -0.064945  -0.000768  -0.080354  -0.072897  -0.001228  3.938574  0.0
C  C99  1  0.96314303  0.75294603  0.09622171  1  -0.06463  -0.000764  -0.080272  -0.072967  -0.001224  3.938819  0.0
C  C100  1  0.82642795  0.00005801  0.25951156  1  -0.053231  -0.00162  -0.084902  -0.085436  -0.001929  3.983038  -0.001
C  C101  1  0.82644667  0.99992955  0.74048187  1  -0.053494  -0.001613  -0.085005  -0.085374  -0.001922  3.982753  -0.001
C  C102  1  0.82643572  0.24049278  0.50006936  1  -0.053476  -0.001614  -0.084943  -0.085489  -0.001923  3.983008  -0.001
C  C103  1  0.82644535  0.75950772  0.49993000  1  -0.053401  -0.001613  -0.084991  -0.085513  -0.001921  3.982788  -0.001
C  C104  1  0.17355839  0.49992910  0.75950499  1  -0.05338  -0.001615  -0.084966  -0.085318  -0.001924  3.982669  -0.001
C  C105  1  0.17356260  0.50007277  0.24049392  1  -0.053212  -0.001612  -0.084933  -0.085349  -0.001921  3.982876  -0.001
C  C106  1  0.17355353  0.25951937  0.00007686  1  -0.052527  -0.001611  -0.084871  -0.085007  -0.00192  3.982617  -0.001
C  C107  1  0.17355324  0.74048304  0.99990588  1  -0.052914  -0.001606  -0.084976  -0.085266  -0.001915  3.982688  -0.001
C  C108  1  0.17060124  0.95215365  0.26031493  1  -0.025095  0.001274  -0.086775  -0.159753  0.000517  3.946294  0.001
C  C109  1  0.17060877  0.04784768  0.73968506  1  -0.024939  0.001272  -0.086754  -0.159761  0.000515  3.94628  0.001
C  C110  1  0.17059481  0.23969115  0.45214147  1  -0.025342  0.001272  -0.086905  -0.160097  0.000515  3.947025  0.001
C  C111  1  0.17060098  0.76031287  0.54786175  1  -0.025277  0.001272  -0.086843  -0.160006  0.000515  3.946915  0.001
C  C112  1  0.82939656  0.54785574  0.76030754  1  -0.025125  0.001272  -0.086838  -0.159882  0.000515  3.946763  0.001
C  C113  1  0.82940066  0.45214746  0.23969560  1  -0.025104  0.001271  -0.086892  -0.160054  0.000515  3.946846  0.001
C  C114  1  0.82939449  0.26031635  0.95215453  1  -0.025095  0.001271  -0.086846  -0.159936  0.000515  3.946448  0.001
C  C115  1  0.82940661  0.73968739  0.04784861  1  -0.025419  0.001269  -0.086914  -0.16024  0.000513  3.946748  0.001
C  C116  1  0.95889265  0.04845716  0.27524444  1  -0.012841  0.001654  -0.090954  -0.172018  0.000688  3.988689  0.001
C  C117  1  0.95891629  0.95153585  0.72475027  1  -0.013148  0.001651  -0.09097  -0.172376  0.000687  3.988825  0.001
C  C118  1  0.95891729  0.22475782  0.54845766  1  -0.012736  0.001652  -0.090895  -0.172126  0.000688  3.989027  0.001
C  C119  1  0.95892653  0.77524489  0.45154244  1  -0.012691  0.001652  -0.090815  -0.17202  0.000688  3.988842  0.001
C  C120  1  0.04107703  0.45154067  0.77524214  1  -0.01267  0.001652  -0.090833  -0.172133  0.000688  3.988869  0.001
C  C121  1  0.04108379  0.54846114  0.22476088  1  -0.013099  0.001652  -0.090945  -0.172237  0.000688  3.989012  0.001
C  C122  1  0.04107884  0.27525202  0.04846867  1  -0.013199  0.001651  -0.090947  -0.172361  0.000687  3.988923  0.001
C  C123  1  0.04106389  0.72474656  0.95152249  1  -0.013254  0.00165  -0.090855  -0.172302  0.000687  3.988773  0.001
C  C124  1  0.13015904  0.02409389  0.27492960  1  0.205965  -0.002157  0.091244  0.167533  -0.002449  4.024443  -0.001
C  C125  1  0.13017628  0.97590634  0.72507032  1  0.20569  -0.002149  0.091285  0.167608  -0.002441  4.024396  -0.001
C  C126  1  0.13017327  0.22507653  0.52408082  1  0.206942  -0.00215  0.091357  0.167691  -0.002442  4.024726  -0.001
C  C127  1  0.13018014  0.77492856  0.47592234  1  0.20642  -0.002148  0.09132  0.167771  -0.002439  4.024621  -0.001
C  C128  1  0.86982097  0.47591687  0.77492390  1  0.205905  -0.00215  0.091363  0.167743  -0.002442  4.024488  -0.001
C  C129  1  0.86982510  0.52408580  0.22508145  1  0.206093  -0.002147  0.091368  0.167751  -0.002439  4.024448  -0.001
C  C130  1  0.86982007  0.27493150  0.02409577  1  0.205575  -0.002147  0.091328  0.167719  -0.002438  4.02437  -0.001
C  C131  1  0.86980920  0.72506902  0.97590527  1  0.205844  -0.002142  0.091266  0.167834  -0.002433  4.02423  -0.001
C  C132  1  0.38030336  0.06529502  0.34911276  1  0.251778  0.004413  -0.006417  -0.117553  0.002456  3.965718  0.003
C  C133  1  0.38033020  0.93470477  0.65088809  1  0.252176  0.00442  -0.006255  -0.117462  0.00246  3.965764  0.003
C  C134  1  0.38034704  0.15090240  0.56526989  1  0.251659  0.004414  -0.006213  -0.11734  0.002457  3.965768  0.003
C  C135  1  0.38036794  0.84909470  0.43473688  1  0.251711  0.004401  -0.006245  -0.117559  0.002449  3.965793  0.003
C  C136  1  0.61965920  0.43472392  0.84910327  1  0.25093  0.00442  -0.006095  -0.117102  0.00246  3.965829  0.003
C  C137  1  0.61967182  0.56528243  0.15089793  1  0.251788  0.004433  -0.006188  -0.11733  0.002468  3.965998  0.003
C  C138  1  0.61966345  0.34911712  0.06529588  1  0.249706  0.00442  -0.006337  -0.117487  0.00246  3.965903  0.003
C  C139  1  0.61963914  0.65088492  0.93471180  1  0.250175  0.004413  -0.006216  -0.11743  0.002456  3.96613  0.003
C  C140  1  0.30771587  0.13550603  0.25616933  1  0.950524  0.008299  0.230883  0.368617  0.004688  3.897365  0.006
C  C141  1  0.30773431  0.86449050  0.74382925  1  0.950807  0.008317  0.230888  0.368536  0.004698  3.897473  0.006
C  C142  1  0.30771634  0.24382727  0.63550197  1  0.948339  0.008304  0.23091  0.368636  0.00469  3.89729  0.006
C  C143  1  0.30772867  0.75617088  0.36450308  1  0.948364  0.008262  0.230927  0.368427  0.004669  3.897558  0.006
C  C144  1  0.69228853  0.36449285  0.75617617  1  0.950834  0.008321  0.230889  0.368598  0.0047  3.897375  0.006
C  C145  1  0.69230083  0.63551300  0.24382731  1  0.950927  0.008357  0.23073  0.36833  0.004718  3.897302  0.006
C  C146  1  0.69225858  0.25617388  0.13550907  1  0.95092  0.008319  0.230801  0.368419  0.004699  3.897477  0.006
C  C147  1  0.69223386  0.74382764  0.86449926  1  0.950901  0.008298  0.230832  0.368526  0.004688  3.897281  0.006
C  C148  1  0.22576830  0.15971655  0.18808997  1  -0.07097  3e-05  -0.231709  -0.48549  -0.000407  3.950912  0.0
C  C149  1  0.22578341  0.84028426  0.81190956  1  -0.07078  3e-05  -0.23169  -0.485476  -0.000409  3.951359  0.0
C  C150  1  0.22575372  0.31190194  0.65972277  1  -0.0719  3e-05  -0.231816  -0.485725  -0.000407  3.951144  0.0
C  C151  1  0.22574888  0.68810480  0.34027299  1  -0.071733  3.2e-05  -0.231664  -0.485281  -0.000404  3.951049  0.0
C  C152  1  0.77424584  0.34027810  0.68809782  1  -0.071606  2.9e-05  -0.231784  -0.485564  -0.000409  3.951026  0.0
C  C153  1  0.77423940  0.65971753  0.31191278  1  -0.073959  2.8e-05  -0.231716  -0.485452  -0.000412  3.951037  0.0
C  C154  1  0.77420978  0.18809401  0.15971499  1  -0.070772  2.9e-05  -0.231675  -0.485421  -0.000409  3.951108  0.0
C  C155  1  0.77419405  0.81190485  0.84029022  1  -0.071716  3.1e-05  -0.231587  -0.485374  -0.000407  3.950959  0.0
C  C156  1  0.48512054  0.12471229  0.34767502  1  0.422373  0.000748  -0.003186  -0.025855  -0.000154  4.050608  0.0
C  C157  1  0.48513305  0.87528376  0.65232113  1  0.422199  0.00075  -0.003175  -0.025803  -0.000153  4.050665  0.0
C  C158  1  0.48513728  0.15233070  0.62469902  1  0.422806  0.000746  -0.003136  -0.025872  -0.000154  4.050712  0.0
C  C159  1  0.48517963  0.84765889  0.37531546  1  0.422831  0.000741  -0.003307  -0.025911  -0.000156  4.051178  0.0
C  C160  1  0.51488078  0.37529366  0.84767814  1  0.422646  0.00075  -0.0032  -0.025933  -0.000153  4.050758  0.0
C  C161  1  0.51490776  0.62471697  0.15231698  1  0.421782  0.000753  -0.003186  -0.02598  -0.000151  4.050925  0.0
C  C162  1  0.51485822  0.34768253  0.12471563  1  0.424698  0.00075  -0.003131  -0.025754  -0.000153  4.050947  0.0
C  C163  1  0.51483339  0.65232001  0.87529189  1  0.424033  0.00075  -0.003223  -0.025892  -0.000153  4.051258  0.0
N  N164  1  0.26704858  0.07303553  0.29152530  1  -1.252279  0.004786  -0.223725  -0.045186  0.002116  3.746739  0.003
N  N165  1  0.26707849  0.92696584  0.70847699  1  -1.252128  0.004789  -0.223791  -0.04507  0.002117  3.746628  0.003
N  N166  1  0.26708097  0.20848472  0.57301699  1  -1.250709  0.004786  -0.223893  -0.045195  0.002117  3.746683  0.003
N  N167  1  0.26709003  0.79151718  0.42698530  1  -1.249882  0.004778  -0.223831  -0.045032  0.002114  3.746584  0.003
N  N168  1  0.73291865  0.42697951  0.79151791  1  -1.251809  0.004791  -0.223892  -0.045362  0.002118  3.746673  0.003
N  N169  1  0.73292533  0.57302527  0.20848778  1  -1.252067  0.004798  -0.223808  -0.045102  0.00212  3.746609  0.003
N  N170  1  0.73291538  0.29152694  0.07303493  1  -1.25195  0.00479  -0.223713  -0.045107  0.002118  3.746775  0.003
N  N171  1  0.73289113  0.70847406  0.92697238  1  -1.25235  0.004786  -0.223785  -0.045213  0.002117  3.746707  0.003
N  N172  1  0.43900076  0.16818051  0.29011889  1  -1.185563  0.053553  -0.355463  -0.370032  0.028961  3.530331  0.04
N  N173  1  0.43900720  0.83181391  0.70987611  1  -1.18575  0.053547  -0.355484  -0.370134  0.028962  3.530377  0.04
N  N174  1  0.43898952  0.20987637  0.66818328  1  -1.186285  0.053552  -0.355434  -0.370065  0.02896  3.530502  0.04
N  N175  1  0.43902490  0.79011374  0.33183167  1  -1.186252  0.053564  -0.355429  -0.369953  0.02896  3.530584  0.04
N  N176  1  0.56102720  0.33180914  0.79013101  1  -1.185876  0.053547  -0.355467  -0.370119  0.02896  3.53051  0.04
N  N177  1  0.56105220  0.66819665  0.20986579  1  -1.185539  0.053545  -0.355433  -0.369921  0.028959  3.530135  0.04
N  N178  1  0.56098439  0.29012685  0.16818582  1  -1.18606  0.053551  -0.355444  -0.370034  0.028963  3.530341  0.04
N  N179  1  0.56096061  0.70987570  0.83182177  1  -1.185514  0.053554  -0.355471  -0.370066  0.028963  3.530423  0.04
O  O180  1  0.56946407  0.89402948  0.21937079  1  -1.147871  0.064606  -0.313551  -0.537264  0.032991  2.177481  0.056
O  O181  1  0.56945141  0.10593371  0.78061524  1  -1.147896  0.06452  -0.313457  -0.537135  0.03295  2.177356  0.056
O  O182  1  0.56943054  0.28062122  0.39406419  1  -1.14816  0.06452  -0.313434  -0.537169  0.032949  2.177369  0.056
O  O183  1  0.56942420  0.71939050  0.60591861  1  -1.148055  0.064479  -0.313256  -0.536955  0.032931  2.177686  0.056
O  O184  1  0.43055923  0.60593553  0.71937695  1  -1.147939  0.06452  -0.313576  -0.537349  0.032949  2.177218  0.056
O  O185  1  0.43057647  0.39408153  0.28061049  1  -1.148056  0.064476  -0.313272  -0.537032  0.03293  2.177692  0.056
O  O186  1  0.43056084  0.21939207  0.89408457  1  -1.147986  0.064469  -0.313372  -0.537112  0.032927  2.177432  0.056
O  O187  1  0.43060457  0.78058833  0.10587752  1  -1.147797  0.064393  -0.313279  -0.536889  0.032888  2.178087  0.056
O  O188  1  0.75947860  0.80675026  0.23831720  1  -1.154015  0.070809  -0.315807  -0.547414  0.036655  2.298161  0.061
O  O189  1  0.75943883  0.19323296  0.76171926  1  -1.152999  0.07088  -0.315887  -0.547393  0.036696  2.298513  0.061
O  O190  1  0.75943823  0.26172694  0.30676501  1  -1.15308  0.070886  -0.315977  -0.547436  0.036697  2.298387  0.061
O  O191  1  0.75942105  0.73824765  0.69323155  1  -1.152539  0.070924  -0.315878  -0.547194  0.036719  2.298339  0.061
O  O192  1  0.24054744  0.69323258  0.73826263  1  -1.152774  0.070884  -0.315853  -0.547352  0.036699  2.298121  0.061
O  O193  1  0.24056820  0.30677201  0.26175256  1  -1.152517  0.070919  -0.315826  -0.547131  0.036717  2.298233  0.061
O  O194  1  0.24057954  0.23825890  0.80677381  1  -1.152573  0.070927  -0.315818  -0.547201  0.036717  2.298343  0.061
O  O195  1  0.24062398  0.76178613  0.19320579  1  -1.151799  0.070995  -0.315804  -0.546721  0.036754  2.298528  0.061
