# generated using pymatgen
data_CdSi2H36C32(N2Cl)2
_symmetry_space_group_name_H-M   'P 1'
_cell_length_a   8.39540892
_cell_length_b   9.27298369
_cell_length_c   13.28590526
_cell_angle_alpha   93.81942737
_cell_angle_beta   108.80452136
_cell_angle_gamma   104.43676989
_symmetry_Int_Tables_number   1
_chemical_formula_structural   CdSi2H36C32(N2Cl)2
_chemical_formula_sum   'Cd1 Si2 H36 C32 N4 Cl2'
_cell_volume   935.92405835
_cell_formula_units_Z   1
loop_
 _symmetry_equiv_pos_site_id
 _symmetry_equiv_pos_as_xyz
  1  'x, y, z'
loop_
 _atom_site_type_symbol
 _atom_site_label
 _atom_site_symmetry_multiplicity
 _atom_site_fract_x
 _atom_site_fract_y
 _atom_site_fract_z
 _atom_site_occupancy
 _atom_site_hle17_bader_spin_density
 _atom_site_hle17_ddec_charge
 _atom_site_hle17_ddec_spin_density
 _atom_site_hle17_ddec_sum_bond_order
 _atom_site_hle17_magmom
 _atom_site_hse06_10hf_bader_spin_density
 _atom_site_hse06_10hf_ddec_charge
 _atom_site_hse06_10hf_ddec_spin_density
 _atom_site_hse06_10hf_ddec_sum_bond_order
 _atom_site_hse06_10hf_magmom
 _atom_site_hse06_bader_spin_density
 _atom_site_hse06_ddec_charge
 _atom_site_hse06_ddec_spin_density
 _atom_site_hse06_ddec_sum_bond_order
 _atom_site_hse06_magmom
 _atom_site_pbe_bader_spin_density
 _atom_site_pbe_cm5_charge
 _atom_site_pbe_ddec_charge
 _atom_site_pbe_ddec_spin_density
 _atom_site_pbe_ddec_sum_bond_order
 _atom_site_pbe_magmom
Cd  Cd0  1  0.99999642  0.00000381  0.00000205  1  0  0.909162  0  1.956015  0  0  0.705113  0  2.423217  0  0  0.753751  0  2.385552  0  0  0.658729  0.671471  0  2.448292  0
Si  Si1  1  0.45270887  0.30430367  0.66022445  1  0  0.911763  0  3.350096  0  0  0.784942  0  3.733025  0  0  0.803474  0  3.727718  0  0  0.139701  0.772088  0  3.736407  0
Si  Si2  1  0.54729374  0.69569548  0.33977439  1  0  0.911667  0  3.350199  0  0  0.784812  0  3.733173  0  0  0.803338  0  3.727857  0  0  0.139672  0.771965  0  3.736557  0
H  H3  1  0.96748249  0.63820535  0.97065149  1  0  0.068991  0  0.974422  0  0  0.075559  0  1.043312  0  0  0.078198  0  1.040771  0  0  0.100498  0.073606  0  1.045183  0
H  H4  1  0.03251501  0.36179163  0.02936135  1  0  0.069118  0  0.974592  0  0  0.075663  0  1.043492  0  0  0.0783  0  1.040954  0  0  0.100562  0.07371  0  1.045362  0
H  H5  1  0.77267921  0.38852342  0.86062755  1  0  0.097766  0  0.993242  0  0  0.105206  0  1.061529  0  0  0.108637  0  1.05999  0  0  0.091179  0.102718  0  1.062786  0
H  H6  1  0.22730863  0.61147152  0.13938112  1  0  0.097769  0  0.993524  0  0  0.105233  0  1.06174  0  0  0.108662  0  1.060204  0  0  0.0912  0.102749  0  1.062989  0
H  H7  1  0.45993749  0.63644707  0.65620937  1  0  0.079211  0  0.998963  0  0  0.089784  0  1.066295  0  0  0.092249  0  1.066269  0  0  0.096205  0.088008  0  1.066468  0
H  H8  1  0.54007562  0.36355751  0.34378570  1  0  0.079182  0  0.999166  0  0  0.089755  0  1.066475  0  0  0.092219  0  1.066451  0  0  0.096181  0.087983  0  1.06665  0
H  H9  1  0.65759242  0.87160602  0.78371179  1  0  0.069086  0  0.968806  0  0  0.073698  0  1.041465  0  0  0.076671  0  1.038144  0  0  0.101611  0.071508  0  1.04388  0
H  H10  1  0.34242532  0.12840071  0.21628577  1  0  0.069182  0  0.96878  0  0  0.073851  0  1.041383  0  0  0.076825  0  1.038059  0  0  0.101673  0.071663  0  1.043806  0
H  H11  1  0.02183941  0.26136228  0.85379887  1  0  0.068224  0  0.972874  0  0  0.074415  0  1.04321  0  0  0.076786  0  1.041185  0  0  0.102287  0.072659  0  1.044682  0
H  H12  1  0.97815270  0.73864282  0.14619683  1  0  0.068277  0  0.972688  0  0  0.074406  0  1.043107  0  0  0.076798  0  1.041062  0  0  0.102295  0.072649  0  1.044586  0
H  H13  1  0.19058045  0.38507276  0.74310969  1  0  0.08809  0  0.942782  0  0  0.102626  0  0.996377  0  0  0.10532  0  0.99619  0  0  0.10544  0.100669  0  0.996686  0
H  H14  1  0.80941231  0.61493003  0.25689053  1  0  0.088137  0  0.942702  0  0  0.102611  0  0.996373  0  0  0.105299  0  0.996195  0  0  0.105468  0.1007  0  0.996632  0
H  H15  1  0.41860283  0.01269264  0.75998552  1  0  0.092685  0  0.965504  0  0  0.10424  0  1.025289  0  0  0.106804  0  1.024657  0  0  0.1005  0.102404  0  1.025864  0
H  H16  1  0.58136780  0.98730160  0.24000709  1  0  0.092693  0  0.965519  0  0  0.104257  0  1.025292  0  0  0.10682  0  1.024665  0  0  0.100488  0.10242  0  1.025875  0
H  H17  1  0.25043568  0.91307276  0.87689881  1  0  0.079099  0  0.940855  0  0  0.085282  0  1.005392  0  0  0.088409  0  1.002301  0  0  0.10798  0.083017  0  1.007597  0
H  H18  1  0.74953561  0.08692716  0.12309121  1  0  0.079045  0  0.940819  0  0  0.08519  0  1.005397  0  0  0.088318  0  1.002302  0  0  0.107932  0.082922  0  1.007604  0
H  H19  1  0.66183885  0.15628092  0.71038867  1  0  0.133225  0  0.974466  0  0  0.143869  0  1.042468  0  0  0.145839  0  1.042089  0  0  0.094879  0.14241  0  1.042798  0
H  H20  1  0.33816925  0.84370784  0.28962044  1  0  0.133211  0  0.974548  0  0  0.143831  0  1.042602  0  0  0.145796  0  1.042222  0  0  0.094833  0.142372  0  1.042939  0
H  H21  1  0.51121581  0.08778960  0.57534924  1  0  0.117679  0  0.968603  0  0  0.134906  0  1.027199  0  0  0.136316  0  1.028086  0  0  0.097927  0.133882  0  1.026611  0
H  H22  1  0.48878370  0.91220393  0.42465325  1  0  0.117636  0  0.96866  0  0  0.134884  0  1.027224  0  0  0.136285  0  1.028115  0  0  0.097931  0.133861  0  1.026641  0
H  H23  1  0.82826773  0.37663080  0.64823147  1  0  0.0599  0  0.947528  0  0  0.076358  0  1.001078  0  0  0.077733  0  1.001771  0  0  0.095414  0.075374  0  1.000659  0
H  H24  1  0.17174686  0.62336235  0.35177607  1  0  0.059945  0  0.947505  0  0  0.076396  0  1.001072  0  0  0.07777  0  1.001766  0  0  0.095441  0.075415  0  1.000654  0
H  H25  1  0.64136262  0.15788013  0.43294826  1  0  0.116016  0  0.980762  0  0  0.131858  0  1.040362  0  0  0.134574  0  1.039691  0  0  0.089215  0.129921  0  1.040893  0
H  H26  1  0.35863726  0.84212476  0.56705490  1  0  0.116046  0  0.980609  0  0  0.131874  0  1.040253  0  0  0.134591  0  1.039582  0  0  0.089209  0.129939  0  1.040774  0
H  H27  1  0.83645834  0.32512354  0.46858305  1  0  0.117528  0  0.971029  0  0  0.13248  0  1.027812  0  0  0.135771  0  1.026164  0  0  0.090181  0.130154  0  1.029026  0
H  H28  1  0.16353385  0.67487358  0.53142202  1  0  0.117472  0  0.970907  0  0  0.132415  0  1.027721  0  0  0.135709  0  1.026071  0  0  0.090162  0.130086  0  1.028937  0
H  H29  1  0.24291081  0.42553604  0.54499959  1  0  0.111141  0  0.967893  0  0  0.125783  0  1.030013  0  0  0.126969  0  1.030447  0  0  0.094202  0.124943  0  1.029687  0
H  H30  1  0.75711417  0.57447735  0.45499516  1  0  0.111103  0  0.96814  0  0  0.125742  0  1.030242  0  0  0.126928  0  1.030674  0  0  0.0942  0.124902  0  1.029915  0
H  H31  1  0.37488869  0.37055530  0.47784917  1  0  0.121235  0  0.962714  0  0  0.139996  0  1.019515  0  0  0.140906  0  1.021592  0  0  0.099012  0.139312  0  1.018102  0
H  H32  1  0.62513309  0.62943085  0.52215256  1  0  0.12128  0  0.962718  0  0  0.140019  0  1.019529  0  0  0.14093  0  1.021601  0  0  0.099041  0.139339  0  1.018115  0
H  H33  1  0.04162805  0.16967827  0.50371300  1  0  0.061535  0  0.978412  0  0  0.076352  0  1.038636  0  0  0.077444  0  1.040015  0  0  0.091214  0.075552  0  1.037775  0
H  H34  1  0.95836280  0.83033141  0.49627367  1  0  0.061435  0  0.978515  0  0  0.076296  0  1.038674  0  0  0.077377  0  1.040082  0  0  0.091177  0.075497  0  1.037813  0
H  H35  1  0.26693284  0.09609632  0.37578387  1  0  0.112683  0  0.981253  0  0  0.128439  0  1.041839  0  0  0.130429  0  1.042154  0  0  0.086004  0.126945  0  1.041799  0
H  H36  1  0.73310934  0.90391662  0.62423514  1  0  0.112546  0  0.981403  0  0  0.128411  0  1.041876  0  0  0.130407  0  1.042188  0  0  0.086008  0.126908  0  1.04184  0
H  H37  1  0.05012131  0.97994154  0.37256626  1  0  0.115268  0  1.007603  0  0  0.124706  0  1.07694  0  0  0.126496  0  1.078712  0  0  0.084114  0.123418  0  1.075734  0
H  H38  1  0.94990863  0.02006148  0.62742735  1  0  0.115272  0  1.007501  0  0  0.124721  0  1.076901  0  0  0.126565  0  1.078616  0  0  0.084127  0.123435  0  1.075674  0
C  C39  1  0.85035674  0.63041570  0.90117301  1  0  0.117888  0  3.71167  0  0  0.091674  0  3.955871  0  0  0.097212  0  3.975651  0  0  0.041368  0.08817  0  3.942361  0
C  C40  1  0.14962684  0.36956911  0.09882228  1  0  0.117586  0  3.71117  0  0  0.091353  0  3.955417  0  0  0.096889  0  3.975195  0  0  0.041185  0.087859  0  3.941898  0
C  C41  1  0.74370337  0.49295941  0.83772361  1  0  -0.097606  0  3.734942  0  0  -0.111193  0  3.972103  0  0  -0.117898  0  3.994929  0  0  -0.080296  -0.1069  0  3.956766  0
C  C42  1  0.25630521  0.50705436  0.16229068  1  0  -0.097487  0  3.734587  0  0  -0.111069  0  3.971732  0  0  -0.117774  0  3.994564  0  0  -0.08021  -0.106781  0  3.95639  0
C  C43  1  0.59862860  0.49016081  0.74669053  1  0  -0.218525  0  3.71139  0  0  -0.17868  0  3.958572  0  0  -0.180717  0  3.980581  0  0  -0.040876  -0.176903  0  3.943404  0
C  C44  1  0.40137024  0.50983501  0.25330668  1  0  -0.218617  0  3.71183  0  0  -0.178765  0  3.959002  0  0  -0.180809  0  3.981017  0  0  -0.040928  -0.176976  0  3.943819  0
C  C45  1  0.56846967  0.62912237  0.72604177  1  0  -0.107144  0  3.775436  0  0  -0.12126  0  4.013188  0  0  -0.127612  0  4.036134  0  0  -0.083584  -0.117174  0  3.997654  0
C  C46  1  0.43155462  0.37089444  0.27396508  1  0  -0.10693  0  3.774748  0  0  -0.12102  0  4.012474  0  0  -0.127369  0  4.035417  0  0  -0.083442  -0.116939  0  3.996945  0
C  C47  1  0.67904015  0.76143956  0.79521747  1  0  0.123611  0  3.716742  0  0  0.097969  0  3.961859  0  0  0.104098  0  3.980367  0  0  0.044402  0.094093  0  3.94918  0
C  C48  1  0.32095917  0.23854829  0.20477113  1  0  0.123425  0  3.716348  0  0  0.097704  0  3.961506  0  0  0.103834  0  3.98001  0  0  0.04429  0.09382  0  3.948841  0
C  C49  1  0.11383247  0.21237165  0.83172605  1  0  0.115773  0  3.725178  0  0  0.08799  0  3.973241  0  0  0.093593  0  3.993016  0  0  0.04003  0.084431  0  3.959755  0
C  C50  1  0.88614677  0.78763148  0.16827617  1  0  0.115901  0  3.725621  0  0  0.088159  0  3.973663  0  0  0.093748  0  3.993431  0  0  0.040052  0.084597  0  3.960195  0
C  C51  1  0.20645295  0.27837387  0.76863805  1  0  -0.102442  0  3.767707  0  0  -0.117596  0  4.01008  0  0  -0.123789  0  4.032835  0  0  -0.078613  -0.113613  0  3.994734  0
C  C52  1  0.79353816  0.72163239  0.23135375  1  0  -0.102583  0  3.768227  0  0  -0.117693  0  4.010615  0  0  -0.123884  0  4.033371  0  0  -0.078645  -0.113746  0  3.99526  0
C  C53  1  0.31980711  0.20853640  0.74015653  1  0  -0.217764  0  3.711424  0  0  -0.177133  0  3.957663  0  0  -0.179489  0  3.9799  0  0  -0.038981  -0.175161  0  3.942426  0
C  C54  1  0.68017798  0.79146203  0.25984653  1  0  -0.217753  0  3.711518  0  0  -0.177082  0  3.957723  0  0  -0.179425  0  3.979932  0  0  -0.038928  -0.175116  0  3.942501  0
C  C55  1  0.33159281  0.07234605  0.77724857  1  0  -0.076879  0  3.742325  0  0  -0.092757  0  3.982075  0  0  -0.098404  0  4.004362  0  0  -0.073848  -0.089234  0  3.967132  0
C  C56  1  0.66838756  0.92765137  0.22274151  1  0  -0.076755  0  3.742751  0  0  -0.092665  0  3.982472  0  0  -0.098316  0  4.004765  0  0  -0.073772  -0.089135  0  3.967521  0
C  C57  1  0.23760996  0.01498737  0.84233051  1  0  0.133274  0  3.691329  0  0  0.104931  0  3.938728  0  0  0.111512  0  3.956351  0  0  0.050968  0.100706  0  3.926728  0
C  C58  1  0.76236098  0.98500686  0.15766894  1  0  0.133183  0  3.69164  0  0  0.104901  0  3.939001  0  0  0.111482  0  3.956629  0  0  0.050926  0.100684  0  3.926989  0
C  C59  1  0.59658669  0.19020199  0.63294684  1  0  -0.488263  0  3.71723  0  0  -0.49147  0  3.945817  0  0  -0.499749  0  3.957786  0  0  -0.203742  -0.485508  0  3.937454  0
C  C60  1  0.40340274  0.80979405  0.36706068  1  0  -0.488045  0  3.717323  0  0  -0.491311  0  3.946045  0  0  -0.499568  0  3.95799  0  0  -0.20368  -0.485365  0  3.937707  0
C  C61  1  0.72912524  0.27973249  0.59155135  1  0  0.067484  0  3.824544  0  0  0.062157  0  4.074405  0  0  0.063782  0  4.097643  0  0  -0.086181  0.061014  0  4.058571  0
C  C62  1  0.27088107  0.72025973  0.40844631  1  0  0.067319  0  3.824723  0  0  0.061994  0  4.074572  0  0  0.063617  0  4.097803  0  0  -0.086288  0.060849  0  4.05875  0
C  C63  1  0.73504517  0.25361548  0.49265140  1  0  -0.329582  0  3.683253  0  0  -0.372058  0  3.92646  0  0  -0.377842  0  3.941889  0  0  -0.198549  -0.368061  0  3.91607  0
C  C64  1  0.26495113  0.74637700  0.50734365  1  0  -0.329528  0  3.682991  0  0  -0.371979  0  3.926235  0  0  -0.377768  0  3.941668  0  0  -0.198516  -0.367975  0  3.915832  0
C  C65  1  0.29738837  0.33367458  0.52920588  1  0  -0.479239  0  3.741875  0  0  -0.486856  0  3.974575  0  0  -0.494281  0  3.986832  0  0  -0.204203  -0.481465  0  3.965936  0
C  C66  1  0.70263175  0.66632754  0.47079790  1  0  -0.479259  0  3.742163  0  0  -0.486861  0  3.974889  0  0  -0.494283  0  3.987146  0  0  -0.204225  -0.481469  0  3.966249  0
C  C67  1  0.15455927  0.18979846  0.47697635  1  0  0.029727  0  3.843034  0  0  0.030522  0  4.08466  0  0  0.03043  0  4.108343  0  0  -0.098945  0.030551  0  4.068485  0
C  C68  1  0.84544516  0.81020292  0.52301768  1  0  0.02998  0  3.84313  0  0  0.030768  0  4.0847  0  0  0.030671  0  4.108394  0  0  -0.098862  0.030789  0  4.068527  0
C  C69  1  0.15762697  0.08347122  0.40505436  1  0  -0.30268  0  3.662327  0  0  -0.349574  0  3.903901  0  0  -0.355058  0  3.923675  0  0  -0.199601  -0.34567  0  3.890622  0
C  C70  1  0.84239507  0.91653313  0.59494689  1  0  -0.302715  0  3.662284  0  0  -0.349757  0  3.903855  0  0  -0.355301  0  3.923567  0  0  -0.199697  -0.345831  0  3.890576  0
N  N71  1  0.81835362  0.76267730  0.88097813  1  0  -0.305381  0  3.231705  0  0  -0.230985  0  3.487557  0  0  -0.248883  0  3.507738  0  0  -0.32162  -0.218839  0  3.473538  0
N  N72  1  0.18166096  0.23732609  0.11903070  1  0  -0.305283  0  3.232394  0  0  -0.230831  0  3.488227  0  0  -0.248727  0  3.508409  0  0  -0.321555  -0.218686  0  3.474209  0
N  N73  1  0.13081088  0.08382224  0.86921876  1  0  -0.311155  0  3.252561  0  0  -0.23478  0  3.51059  0  0  -0.253259  0  3.530979  0  0  -0.324786  -0.222247  0  3.496479  0
N  N74  1  0.86917194  0.91617853  0.13077121  1  0  -0.31123  0  3.252499  0  0  -0.23485  0  3.510497  0  0  -0.253332  0  3.530894  0  0  -0.324791  -0.222314  0  3.496383  0
Cl  Cl75  1  0.24127899  0.86905685  0.08084477  1  0  -0.626819  0  0.845312  0  0  -0.573957  0  1.091426  0  0  -0.589538  0  1.071354  0  0  -0.339883  -0.562532  0  1.105059  0
Cl  Cl76  1  0.75870599  0.13094385  0.91916517  1  0  -0.626791  0  0.845273  0  0  -0.573923  0  1.091394  0  0  -0.589504  0  1.071316  0  0  -0.339868  -0.562499  0  1.105027  0
