# generated using pymatgen
data_CuH7C10IN2
_symmetry_space_group_name_H-M   'P 1'
_cell_length_a   9.27927581
_cell_length_b   9.79974574
_cell_length_c   11.25639421
_cell_angle_alpha   70.43164995
_cell_angle_beta   82.78469553
_cell_angle_gamma   89.52706463
_symmetry_Int_Tables_number   1
_chemical_formula_structural   CuH7C10IN2
_chemical_formula_sum   'Cu4 H28 C40 I4 N8'
_cell_volume   956.21123357
_cell_formula_units_Z   4
loop_
 _symmetry_equiv_pos_site_id
 _symmetry_equiv_pos_as_xyz
  1  'x, y, z'
loop_
 _atom_site_type_symbol
 _atom_site_label
 _atom_site_symmetry_multiplicity
 _atom_site_fract_x
 _atom_site_fract_y
 _atom_site_fract_z
 _atom_site_occupancy
 _atom_site_hle17_bader_spin_density
 _atom_site_hle17_ddec_charge
 _atom_site_hle17_ddec_spin_density
 _atom_site_hle17_ddec_sum_bond_order
 _atom_site_hle17_magmom
 _atom_site_hse06_10hf_bader_spin_density
 _atom_site_hse06_10hf_ddec_charge
 _atom_site_hse06_10hf_ddec_spin_density
 _atom_site_hse06_10hf_ddec_sum_bond_order
 _atom_site_hse06_10hf_magmom
 _atom_site_hse06_bader_spin_density
 _atom_site_hse06_ddec_charge
 _atom_site_hse06_ddec_spin_density
 _atom_site_hse06_ddec_sum_bond_order
 _atom_site_hse06_magmom
 _atom_site_pbe_bader_spin_density
 _atom_site_pbe_cm5_charge
 _atom_site_pbe_ddec_charge
 _atom_site_pbe_ddec_spin_density
 _atom_site_pbe_ddec_sum_bond_order
 _atom_site_pbe_magmom
Cu  Cu0  1  0.23706386  0.23177424  0.25646225  1  0  0.326937  0  2.045617  0  0  0.233651  0  2.514831  0  0  0.229166  0  2.473066  0  0  0.376891  0.243584  0  2.534962  0
Cu  Cu1  1  0.76293456  0.76823306  0.74353722  1  0  0.326966  0  2.045576  0  0  0.233687  0  2.514802  0  0  0.22918  0  2.473053  0  0  0.376919  0.243627  0  2.534942  0
Cu  Cu2  1  0.32738423  0.47293353  0.07297423  1  0  0.298067  0  2.056745  0  0  0.201662  0  2.552865  0  0  0.224871  0  2.485887  0  0  0.270946  0.185257  0  2.599366  0
Cu  Cu3  1  0.67262216  0.52705742  0.92702122  1  0  0.298034  0  2.056764  0  0  0.201681  0  2.552918  0  0  0.224856  0  2.485932  0  0  0.270973  0.185286  0  2.599432  0
H  H4  1  0.87587395  0.26342054  0.63427085  1  0  0.096783  0  0.960513  0  0  0.110998  0  1.01754  0  0  0.113305  0  1.017644  0  0  0.103626  0.109627  0  1.017314  0
H  H5  1  0.12413575  0.73659549  0.36573094  1  0  0.096717  0  0.96058  0  0  0.110939  0  1.017621  0  0  0.113243  0  1.017733  0  0  0.103624  0.109633  0  1.017302  0
H  H6  1  0.43810096  0.73858996  0.50558755  1  0  0.098725  0  1.002775  0  0  0.109223  0  1.066011  0  0  0.11242  0  1.065254  0  0  0.08798  0.10688  0  1.066702  0
H  H7  1  0.56188882  0.26141738  0.49441556  1  0  0.098764  0  1.002761  0  0  0.109243  0  1.066054  0  0  0.112455  0  1.065221  0  0  0.087989  0.106896  0  1.066755  0
H  H8  1  0.59536557  0.86658238  0.10637983  1  0  0.088845  0  1.001296  0  0  0.095943  0  1.070786  0  0  0.099335  0  1.069591  0  0  0.089322  0.093844  0  1.071105  0
H  H9  1  0.40463910  0.13341417  0.89363014  1  0  0.088849  0  1.001425  0  0  0.095966  0  1.07087  0  0  0.09936  0  1.069674  0  0  0.089378  0.093878  0  1.071176  0
H  H10  1  0.58233335  0.68487159  0.32524005  1  0  0.091126  0  0.963333  0  0  0.10288  0  1.023196  0  0  0.106025  0  1.020942  0  0  0.094564  0.101506  0  1.022771  0
H  H11  1  0.41766166  0.31512822  0.67477004  1  0  0.091047  0  0.963434  0  0  0.102828  0  1.023262  0  0  0.105971  0  1.021011  0  0  0.094564  0.101456  0  1.022835  0
H  H12  1  0.35706685  0.82561079  0.64631860  1  0  0.106242  0  0.99038  0  0  0.114754  0  1.058525  0  0  0.118626  0  1.056934  0  0  0.095833  0.111915  0  1.059529  0
H  H13  1  0.64293135  0.17439212  0.35367776  1  0  0.106201  0  0.990402  0  0  0.11472  0  1.058548  0  0  0.118584  0  1.05697  0  0  0.095821  0.111888  0  1.059529  0
H  H14  1  0.12517674  0.06661511  0.89792916  1  0  0.089659  0  0.971092  0  0  0.100358  0  1.03545  0  0  0.103285  0  1.033391  0  0  0.094475  0.098873  0  1.036331  0
H  H15  1  0.87482436  0.93337699  0.10207277  1  0  0.089714  0  0.971107  0  0  0.100389  0  1.035493  0  0  0.10332  0  1.033433  0  0  0.094476  0.098904  0  1.036375  0
H  H16  1  0.26392530  0.67605733  0.82510548  1  0  0.075156  0  0.980081  0  0  0.082134  0  1.051193  0  0  0.085185  0  1.048292  0  0  0.100155  0.07921  0  1.053878  0
H  H17  1  0.73606922  0.32393579  0.17489067  1  0  0.075177  0  0.980132  0  0  0.082123  0  1.051221  0  0  0.08514  0  1.048357  0  0  0.100137  0.079195  0  1.053907  0
H  H18  1  0.02796077  0.11048790  0.72133725  1  0  0.100222  0  0.972416  0  0  0.111044  0  1.037713  0  0  0.114778  0  1.03527  0  0  0.10312  0.10793  0  1.040832  0
H  H19  1  0.97203397  0.88950750  0.27866708  1  0  0.100192  0  0.972407  0  0  0.111051  0  1.037658  0  0  0.114768  0  1.035234  0  0  0.103135  0.10794  0  1.040777  0
H  H20  1  0.46442348  0.10070639  0.07747668  1  0  0.069327  0  0.958206  0  0  0.077807  0  1.025364  0  0  0.080363  0  1.023754  0  0  0.103457  0.075424  0  1.027079  0
H  H21  1  0.53558119  0.89929438  0.92252225  1  0  0.069335  0  0.958168  0  0  0.077822  0  1.025331  0  0  0.08038  0  1.023717  0  0  0.103451  0.075442  0  1.027044  0
H  H22  1  0.80851682  0.59298754  0.28061742  1  0  0.095765  0  0.972936  0  0  0.103855  0  1.038654  0  0  0.106983  0  1.038221  0  0  0.091994  0.101012  0  1.040775  0
H  H23  1  0.19149146  0.40701980  0.71938536  1  0  0.095781  0  0.972953  0  0  0.103863  0  1.038661  0  0  0.106987  0  1.038241  0  0  0.092  0.101018  0  1.040783  0
H  H24  1  0.01043625  0.49020173  0.17314613  1  0  0.070561  0  0.969946  0  0  0.07175  0  1.049115  0  0  0.075469  0  1.045803  0  0  0.095446  0.069532  0  1.050403  0
H  H25  1  0.98956178  0.50979579  0.82685453  1  0  0.070552  0  0.969926  0  0  0.071736  0  1.049117  0  0  0.075457  0  1.045799  0  0  0.095442  0.06952  0  1.050403  0
H  H26  1  0.74238211  0.47859125  0.52010906  1  0  0.09247  0  0.95167  0  0  0.100827  0  1.017158  0  0  0.104127  0  1.014802  0  0  0.095552  0.098687  0  1.018383  0
H  H27  1  0.25762648  0.52142476  0.47989109  1  0  0.092497  0  0.951682  0  0  0.100831  0  1.01721  0  0  0.10413  0  1.014844  0  0  0.095546  0.09869  0  1.018434  0
H  H28  1  0.16263434  0.94543591  0.12189945  1  0  0.100613  0  0.967497  0  0  0.110067  0  1.031276  0  0  0.11331  0  1.030383  0  0  0.097503  0.105628  0  1.035735  0
H  H29  1  0.83736422  0.05454750  0.87810270  1  0  0.100688  0  0.967592  0  0  0.110226  0  1.031248  0  0  0.113469  0  1.030357  0  0  0.097585  0.105783  0  1.035705  0
H  H30  1  0.26111716  0.69312088  0.18686983  1  0  0.071944  0  0.960872  0  0  0.07925  0  1.030156  0  0  0.082084  0  1.027768  0  0  0.10157  0.076627  0  1.032376  0
H  H31  1  0.73889141  0.30687113  0.81312328  1  0  0.071848  0  0.960897  0  0  0.079238  0  1.030109  0  0  0.082074  0  1.027718  0  0  0.101539  0.07663  0  1.032309  0
C  C32  1  0.90487040  0.31746169  0.53246621  1  0  -0.14319  0  3.725382  0  0  -0.161439  0  3.970322  0  0  -0.168589  0  3.993727  0  0  -0.084446  -0.156575  0  3.956063  0
C  C33  1  0.09512818  0.68254783  0.46753702  1  0  -0.143156  0  3.72554  0  0  -0.16138  0  3.970536  0  0  -0.168532  0  3.993935  0  0  -0.084446  -0.156549  0  3.956267  0
C  C34  1  0.18881882  0.95473106  0.70308605  1  0  0.117348  0  3.757691  0  0  0.122415  0  3.997533  0  0  0.13123  0  4.016139  0  0  0.006216  0.116451  0  3.98464  0
C  C35  1  0.81117698  0.04526643  0.29691132  1  0  0.117144  0  3.757844  0  0  0.12219  0  3.997829  0  0  0.131007  0  4.016433  0  0  0.006206  0.116238  0  3.984919  0
C  C36  1  0.27933292  0.98388415  0.48473226  1  0  0.190814  0  3.760537  0  0  0.184949  0  4.00732  0  0  0.193781  0  4.022747  0  0  0.113841  0.177033  0  3.99995  0
C  C37  1  0.72066222  0.01612419  0.51526283  1  0  0.190862  0  3.760451  0  0  0.18494  0  4.007229  0  0  0.193761  0  4.022655  0  0  0.113831  0.177022  0  3.999864  0
C  C38  1  0.37250037  0.94638201  0.38477171  1  0  0.164044  0  3.75193  0  0  0.163224  0  3.991221  0  0  0.167751  0  4.009984  0  0  0.109282  0.160925  0  3.979415  0
C  C39  1  0.62749582  0.05362420  0.61522746  1  0  0.164015  0  3.751916  0  0  0.16336  0  3.990967  0  0  0.167875  0  4.009737  0  0  0.10927  0.16106  0  3.979161  0
C  C40  1  0.44558924  0.81628076  0.40941178  1  0  -0.140235  0  3.717132  0  0  -0.156408  0  3.958745  0  0  -0.162727  0  3.979873  0  0  -0.087518  -0.153807  0  3.946251  0
C  C41  1  0.55441139  0.18372762  0.59058712  1  0  -0.140251  0  3.716978  0  0  -0.156483  0  3.958523  0  0  -0.162771  0  3.979674  0  0  -0.087522  -0.153873  0  3.946021  0
C  C42  1  0.53295317  0.88758038  0.18674168  1  0  -0.123263  0  3.748151  0  0  -0.134321  0  3.995909  0  0  -0.140631  0  4.0183  0  0  -0.091647  -0.12898  0  3.978618  0
C  C43  1  0.46704620  0.11242155  0.81326284  1  0  -0.123259  0  3.748134  0  0  -0.134306  0  3.995906  0  0  -0.140624  0  4.018299  0  0  -0.091705  -0.128973  0  3.978614  0
C  C44  1  0.52696620  0.78670907  0.30903766  1  0  -0.01307  0  3.73997  0  0  -0.031051  0  3.988664  0  0  -0.02787  0  4.006307  0  0  -0.078553  -0.032451  0  3.973298  0
C  C45  1  0.47303227  0.21329615  0.69097042  1  0  -0.012995  0  3.739778  0  0  -0.031013  0  3.988505  0  0  -0.027836  0  4.006153  0  0  -0.078545  -0.032414  0  3.97314  0
C  C46  1  0.10443318  0.14062165  0.52484312  1  0  0.194269  0  3.746893  0  0  0.186413  0  3.994112  0  0  0.194974  0  4.00979  0  0  0.114607  0.181405  0  3.984678  0
C  C47  1  0.89556297  0.85938241  0.47515846  1  0  0.194232  0  3.7471  0  0  0.186425  0  3.994321  0  0  0.194981  0  4.009991  0  0  0.114667  0.181419  0  3.984892  0
C  C48  1  0.28093848  0.91166948  0.61434756  1  0  -0.167972  0  3.641118  0  0  -0.193316  0  3.887054  0  0  -0.201006  0  3.905636  0  0  -0.079529  -0.187548  0  3.876077  0
C  C49  1  0.71905842  0.08832802  0.38565057  1  0  -0.1679  0  3.641245  0  0  -0.19324  0  3.887242  0  0  -0.200931  0  3.905835  0  0  -0.079536  -0.187476  0  3.876274  0
C  C50  1  0.19358816  0.88308038  0.84012412  1  0  -0.006547  0  3.774245  0  0  0.017234  0  3.999631  0  0  0.011255  0  4.020525  0  0  -0.005632  0.020731  0  3.985719  0
C  C51  1  0.80641305  0.11691708  0.15987086  1  0  -0.006216  0  3.774246  0  0  0.017436  0  3.999736  0  0  0.011464  0  4.02063  0  0  -0.005536  0.020938  0  3.985817  0
C  C52  1  0.16033959  0.95522618  0.92801044  1  0  -0.04387  0  3.710884  0  0  -0.069524  0  3.953434  0  0  -0.063628  0  3.9688  0  0  -0.07379  -0.076338  0  3.945276  0
C  C53  1  0.83966257  0.04476592  0.07199048  1  0  -0.044017  0  3.710864  0  0  -0.069618  0  3.953483  0  0  -0.063731  0  3.968856  0  0  -0.073815  -0.076448  0  3.945351  0
C  C54  1  0.24099306  0.74089433  0.88678877  1  0  0.099069  0  3.638595  0  0  0.059728  0  3.883126  0  0  0.068354  0  3.898507  0  0  0.045042  0.055483  0  3.872351  0
C  C55  1  0.75900461  0.25909660  0.11320590  1  0  0.098925  0  3.638535  0  0  0.059774  0  3.883062  0  0  0.068396  0  3.898433  0  0  0.04504  0.055551  0  3.872299  0
C  C56  1  0.01740425  0.26664722  0.46500860  1  0  0.169029  0  3.742207  0  0  0.169355  0  3.97951  0  0  0.173934  0  3.999525  0  0  0.113524  0.165063  0  3.9665  0
C  C57  1  0.98259948  0.73335682  0.53499124  1  0  0.169089  0  3.742391  0  0  0.169287  0  3.979838  0  0  0.173867  0  3.999854  0  0  0.113513  0.164986  0  3.966848  0
C  C58  1  0.09996825  0.07250902  0.65586246  1  0  -0.17179  0  3.64816  0  0  -0.199197  0  3.903458  0  0  -0.204906  0  3.918083  0  0  -0.079863  -0.197076  0  3.894892  0
C  C59  1  0.90002886  0.92749179  0.34413999  1  0  -0.171691  0  3.648321  0  0  -0.199118  0  3.90366  0  0  -0.204817  0  3.918294  0  0  -0.07989  -0.19701  0  3.89509  0
C  C60  1  0.46005782  0.01617965  0.17047485  1  0  0.121181  0  3.721934  0  0  0.094501  0  3.97365  0  0  0.098867  0  3.991967  0  0  0.038578  0.093147  0  3.958543  0
C  C61  1  0.53993933  0.98382225  0.82952727  1  0  0.121166  0  3.721738  0  0  0.09444  0  3.973491  0  0  0.098809  0  3.991809  0  0  0.03857  0.093086  0  3.958393  0
C  C62  1  0.86554893  0.50083492  0.33669708  1  0  -0.123832  0  3.737881  0  0  -0.13649  0  3.98729  0  0  -0.14229  0  4.008449  0  0  -0.092803  -0.13249  0  3.97342  0
C  C63  1  0.13444928  0.49916696  0.66330315  1  0  -0.123851  0  3.737938  0  0  -0.136475  0  3.987327  0  0  -0.142281  0  4.008483  0  0  -0.092834  -0.132473  0  3.973455  0
C  C64  1  0.97865962  0.44401229  0.27588132  1  0  0.121357  0  3.715894  0  0  0.09497  0  3.968655  0  0  0.100146  0  3.984657  0  0  0.039084  0.094302  0  3.955224  0
C  C65  1  0.02134376  0.55598307  0.72411938  1  0  0.121408  0  3.715786  0  0  0.095  0  3.968539  0  0  0.100179  0  3.984537  0  0  0.039107  0.094331  0  3.955109  0
C  C66  1  0.82892831  0.43689169  0.46799797  1  0  -0.006093  0  3.734056  0  0  -0.022698  0  3.983804  0  0  -0.019509  0  4.002098  0  0  -0.074683  -0.02657  0  3.972966  0
C  C67  1  0.17107428  0.56311127  0.53200143  1  0  -0.00616  0  3.733896  0  0  -0.022765  0  3.983654  0  0  -0.019558  0  4.001929  0  0  -0.074702  -0.02664  0  3.972836  0
C  C68  1  0.18119261  0.88719848  0.05437562  1  0  -0.128539  0  3.769224  0  0  -0.139773  0  4.021242  0  0  -0.147082  0  4.041364  0  0  -0.094678  -0.134498  0  4.010898  0
C  C69  1  0.81880932  0.11279029  0.94561922  1  0  -0.128622  0  3.76924  0  0  -0.139912  0  4.021264  0  0  -0.147229  0  4.041399  0  0  -0.094785  -0.134639  0  4.01093  0
C  C70  1  0.23566651  0.74892575  0.09075648  1  0  0.112235  0  3.692589  0  0  0.08179  0  3.939577  0  0  0.090063  0  3.956257  0  0  0.032093  0.075229  0  3.931108  0
C  C71  1  0.76434205  0.25106520  0.90923872  1  0  0.112216  0  3.69229  0  0  0.081753  0  3.939309  0  0  0.09  0  3.95597  0  0  0.032148  0.07523  0  3.930806  0
I  I72  1  0.18259490  0.28992138  0.01873416  1  0  -0.432941  0  1.514411  0  0  -0.3744  0  1.945461  0  0  -0.39993  0  1.912712  0  0  -0.196093  -0.358163  0  1.969326  0
I  I73  1  0.81739559  0.71007830  0.98126494  1  0  -0.432944  0  1.514473  0  0  -0.374417  0  1.945557  0  0  -0.399944  0  1.912811  0  0  -0.196093  -0.358169  0  1.969423  0
I  I74  1  0.45629962  0.42671809  0.26606480  1  0  -0.456943  0  1.421057  0  0  -0.406478  0  1.8324  0  0  -0.425875  0  1.795241  0  0  -0.204478  -0.390165  0  1.854442  0
I  I75  1  0.54370179  0.57328269  0.73393450  1  0  -0.456903  0  1.420993  0  0  -0.406459  0  1.832341  0  0  -0.425849  0  1.795206  0  0  -0.20448  -0.390144  0  1.854391  0
N  N76  1  0.38157750  0.04597536  0.26651039  1  0  -0.312509  0  3.251932  0  0  -0.255799  0  3.526684  0  0  -0.264252  0  3.536196  0  0  -0.330541  -0.249246  0  3.515186  0
N  N77  1  0.61841866  0.95403188  0.73348403  1  0  -0.312499  0  3.251925  0  0  -0.255814  0  3.52662  0  0  -0.264266  0  3.536136  0  0  -0.330502  -0.249261  0  3.515132  0
N  N78  1  0.19126397  0.09487579  0.44118021  1  0  -0.324628  0  3.291836  0  0  -0.272215  0  3.57687  0  0  -0.279122  0  3.581548  0  0  -0.349777  -0.270249  0  3.575417  0
N  N79  1  0.80873325  0.90512826  0.55882037  1  0  -0.324643  0  3.291776  0  0  -0.272232  0  3.576822  0  0  -0.279105  0  3.581477  0  0  -0.349765  -0.270265  0  3.575382  0
N  N80  1  0.05439234  0.33141283  0.33809708  1  0  -0.304569  0  3.267975  0  0  -0.245719  0  3.538007  0  0  -0.255213  0  3.548537  0  0  -0.328388  -0.238714  0  3.528568  0
N  N81  1  0.94560685  0.66858581  0.66190489  1  0  -0.304665  0  3.267793  0  0  -0.245752  0  3.537853  0  0  -0.255249  0  3.548385  0  0  -0.328424  -0.238749  0  3.528428  0
N  N82  1  0.26397395  0.67591103  0.00816411  1  0  -0.261812  0  3.392284  0  0  -0.181955  0  3.679587  0  0  -0.197068  0  3.687623  0  0  -0.362304  -0.17246  0  3.675038  0
N  N83  1  0.73603031  0.32408207  0.99182916  1  0  -0.261628  0  3.391743  0  0  -0.181959  0  3.679238  0  0  -0.196979  0  3.687156  0  0  -0.36233  -0.172538  0  3.674763  0
