# generated using pymatgen
data_Ho2CuH20C32(NO7)4
_symmetry_space_group_name_H-M   'P 1'
_cell_length_a   10.21983466
_cell_length_b   10.64199673
_cell_length_c   11.36819763
_cell_angle_alpha   84.37389855
_cell_angle_beta   75.01341578
_cell_angle_gamma   68.86905873
_symmetry_Int_Tables_number   1
_chemical_formula_structural   Ho2CuH20C32(NO7)4
_chemical_formula_sum   'Ho2 Cu1 H20 C32 N4 O28'
_cell_volume   1114.01968643
_cell_formula_units_Z   1
loop_
 _symmetry_equiv_pos_site_id
 _symmetry_equiv_pos_as_xyz
  1  'x, y, z'
loop_
 _atom_site_type_symbol
 _atom_site_label
 _atom_site_symmetry_multiplicity
 _atom_site_fract_x
 _atom_site_fract_y
 _atom_site_fract_z
 _atom_site_occupancy
 _atom_site_hle17_ddec_charge
 _atom_site_hle17_ddec_spin_density
 _atom_site_hle17_ddec_sum_bond_order
 _atom_site_hle17_magmom
 _atom_site_hse06_10hf_ddec_charge
 _atom_site_hse06_10hf_ddec_spin_density
 _atom_site_hse06_10hf_ddec_sum_bond_order
 _atom_site_hse06_10hf_magmom
 _atom_site_hse06_ddec_charge
 _atom_site_hse06_ddec_spin_density
 _atom_site_hse06_ddec_sum_bond_order
 _atom_site_hse06_magmom
 _atom_site_pbe_cm5_charge
 _atom_site_pbe_ddec_charge
 _atom_site_pbe_ddec_spin_density
 _atom_site_pbe_ddec_sum_bond_order
 _atom_site_pbe_magmom
Ho  Ho0  1  0.58616829  0.60799524  0.62714661  1  2.317406  -0.000459  1.602104  -0.001  2.255776  -0.000444  1.930573  -0.001  2.30154  -0.000331  1.888435  0.0  1.533435  2.14752  -0.000538  2.101223  -0.001
Ho  Ho1  1  0.41383721  0.39200309  0.37285490  1  2.31743  -0.000463  1.602029  -0.001  2.255813  -0.000442  1.930501  -0.001  2.301577  -0.000331  1.888364  0.0  1.53347  2.147569  -0.000538  2.101131  -0.001
Cu  Cu2  1  0.99999574  0.49999720  0.50000135  1  0.995248  -0.701251  1.693827  -0.523  0.991037  -0.78819  2.077288  -0.638  1.079507  -0.849069  2.009599  -0.72  0.74855  0.927517  -0.744974  2.135643  -0.586
H  H3  1  0.36962280  0.97765025  0.45252701  1  0.133022  2.6e-05  0.907336  0.0  0.142365  7e-06  0.964613  0.0  0.146596  5e-06  0.960768  0.0  0.125435  0.138825  5e-06  0.968413  0.0
H  H4  1  0.63038598  0.02235297  0.54746444  1  0.133072  2.7e-05  0.907307  0.0  0.14242  7e-06  0.964576  0.0  0.14665  4e-06  0.960732  0.0  0.125453  0.138879  5e-06  0.968381  0.0
H  H5  1  0.96380989  0.18144127  0.35632049  1  0.130649  -0.000301  0.945694  0.0  0.13611  -0.000233  1.01198  0.0  0.140411  -0.000158  1.00749  0.0  0.120513  0.132731  -0.000284  1.015711  0.0
H  H6  1  0.03618988  0.81854201  0.64367594  1  0.13072  -0.000301  0.945595  0.0  0.136275  -0.000233  1.011776  0.0  0.140579  -0.000159  1.007279  0.0  0.120576  0.132887  -0.000284  1.015506  0.0
H  H7  1  0.16099913  0.74882577  0.32569910  1  0.135384  1.5e-05  0.943207  0.0  0.138565  2.6e-05  1.011876  0.0  0.142614  2.6e-05  1.007979  0.0  0.122682  0.135607  3.7e-05  1.014702  0.0
H  H8  1  0.83902644  0.25115625  0.67429931  1  0.135374  1.4e-05  0.943275  0.0  0.138599  2.7e-05  1.011879  0.0  0.142647  2.6e-05  1.007986  0.0  0.12268  0.135641  3.6e-05  1.014709  0.0
H  H9  1  0.66794744  0.47941892  0.94640752  1  0.144806  1e-06  0.920853  0.0  0.151095  6e-06  0.983813  0.0  0.155871  4e-06  0.979062  0.0  0.12361  0.147266  3e-06  0.988024  0.0
H  H10  1  0.33204491  0.52060461  0.05359105  1  0.144865  0.0  0.920809  0.0  0.1511  7e-06  0.983826  0.0  0.155876  3e-06  0.979069  0.0  0.123644  0.147267  3e-06  0.988038  0.0
H  H11  1  0.92641493  0.31736758  0.20908910  1  0.129985  1e-05  0.944632  0.0  0.133038  2.9e-05  1.016052  0.0  0.137657  2.6e-05  1.011104  0.0  0.11768  0.129484  2.2e-05  1.020093  0.0
H  H12  1  0.07355670  0.68265725  0.79091861  1  0.129897  1e-05  0.944721  0.0  0.132959  2.9e-05  1.016122  0.0  0.137577  2.6e-05  1.01117  0.0  0.117672  0.129407  2.2e-05  1.020162  0.0
H  H13  1  0.13407965  0.33719067  0.83023775  1  0.132155  -0.000314  0.930693  0.0  0.13825  -0.000286  0.992539  0.0  0.14302  -0.000201  0.987559  0.0  0.121501  0.134709  -0.000364  0.996321  0.0
H  H14  1  0.86591255  0.66281078  0.16976042  1  0.132182  -0.000315  0.93087  0.0  0.138323  -0.000286  0.99266  0.0  0.143094  -0.000203  0.987678  0.0  0.121518  0.13478  -0.000364  0.996441  0.0
H  H15  1  0.46309213  0.83303892  0.81462852  1  0.44772  1e-06  0.797635  0.0  0.433793  1e-06  0.840911  0.0  0.441747  1e-06  0.829461  0.0  0.341409  0.427615  2e-06  0.84959  0.0
H  H16  1  0.53691789  0.16694139  0.18538427  1  0.447691  1e-06  0.797407  0.0  0.433787  1e-06  0.840855  0.0  0.441745  1e-06  0.829398  0.0  0.34134  0.427611  2e-06  0.849531  0.0
H  H17  1  0.34969562  0.87080541  0.73424983  1  0.441909  2e-06  0.844972  0.0  0.410562  1e-06  0.908213  0.0  0.421538  2e-06  0.89177  0.0  0.307702  0.402286  0.0  0.920462  0.0
H  H18  1  0.65032632  0.12920079  0.26575407  1  0.442073  2e-06  0.844778  0.0  0.410724  2e-06  0.908014  0.0  0.421697  3e-06  0.891573  0.0  0.307764  0.402443  0.0  0.92027  0.0
H  H19  1  0.71515259  0.46937197  0.38376739  1  0.458688  -3.1e-05  0.832793  0.0  0.431251  -1.2e-05  0.889222  0.0  0.442545  -1.1e-05  0.872794  0.0  0.305624  0.422915  -9e-06  0.901094  0.0
H  H20  1  0.28487103  0.53062115  0.61623390  1  0.458707  -3.1e-05  0.832759  0.0  0.431253  -1.2e-05  0.889223  0.0  0.442544  -1.1e-05  0.872799  0.0  0.305614  0.422915  -9e-06  0.901098  0.0
H  H21  1  0.80088640  0.56824237  0.38229792  1  0.449594  0.000316  0.836145  0.0  0.423404  0.000208  0.891088  0.0  0.433438  0.000229  0.876095  0.0  0.311332  0.415962  0.000165  0.902049  0.0
H  H22  1  0.19911613  0.43176703  0.61770407  1  0.449561  0.000316  0.836129  0.0  0.423386  0.000208  0.891062  0.0  0.433418  0.00023  0.87607  0.0  0.311318  0.415944  0.000165  0.902023  0.0
C  C23  1  0.27585905  0.85019507  0.39257676  1  -0.057229  -0.00096  3.687134  -0.001  -0.030908  -0.00036  3.920323  0.0  -0.042704  -0.000289  3.943912  0.0  -0.00258  -0.024159  -0.000529  3.906672  -0.001
C  C24  1  0.72414856  0.14980021  0.60742279  1  -0.057309  -0.000966  3.687314  -0.001  -0.031017  -0.000358  3.920519  0.0  -0.042811  -0.000284  3.944109  0.0  -0.002701  -0.024269  -0.000529  3.906872  -0.001
C  C25  1  0.28063997  0.97489430  0.41807336  1  -0.011535  0.000233  3.595768  0.0  -0.058772  -0.000528  3.84961  -0.001  -0.052905  -0.000154  3.866176  0.0  -0.048694  -0.062626  -0.000887  3.84002  -0.001
C  C26  1  0.71936285  0.02510303  0.58192536  1  -0.011597  0.000232  3.595982  0.0  -0.058868  -0.000526  3.849815  -0.001  -0.053001  -0.000159  3.866384  0.0  -0.048713  -0.062722  -0.000885  3.840223  -0.001
C  C27  1  0.16949426  0.09435198  0.40353044  1  -0.052326  -0.008262  3.716493  -0.009  -0.027448  -0.004733  3.95549  -0.005  -0.039238  -0.003452  3.978184  -0.004  -0.007683  -0.020294  -0.005736  3.941112  -0.006
C  C28  1  0.83050179  0.90564440  0.59646644  1  -0.052288  -0.008266  3.716549  -0.009  -0.027326  -0.004736  3.955505  -0.005  -0.039119  -0.003447  3.978205  -0.004  -0.007634  -0.020166  -0.005737  3.941116  -0.006
C  C29  1  0.05400740  0.08975571  0.36213461  1  -0.074122  0.001459  3.691976  0.001  -0.117799  0.000174  3.954344  0.0  -0.112171  0.000355  3.970829  0.0  -0.064619  -0.121061  0.000131  3.943253  0.0
C  C30  1  0.94599563  0.91023254  0.63785968  1  -0.074219  0.001469  3.691968  0.001  -0.11793  0.00018  3.95439  0.0  -0.112302  0.000348  3.970878  0.0  -0.064649  -0.121185  0.000131  3.943286  0.0
C  C31  1  0.05505264  0.96634263  0.33104293  1  0.048962  -0.000347  3.722199  0.0  0.044204  -7.2e-05  3.984731  0.0  0.037129  -0.000103  4.009308  0.0  0.073357  0.048632  -1.9e-05  3.968087  0.0
C  C32  1  0.94496109  0.03363849  0.66895219  1  0.049074  -0.000361  3.722191  0.0  0.044119  -8.2e-05  3.984991  0.0  0.037041  -9.6e-05  4.009572  0.0  0.073312  0.048548  -1.9e-05  3.968343  0.0
C  C33  1  0.16414501  0.84521859  0.34594680  1  -0.06011  0.001228  3.637716  0.001  -0.09912  0.000228  3.890214  0.0  -0.093514  0.00039  3.906474  0.0  -0.056189  -0.102701  6.4e-05  3.879859  0.0
C  C34  1  0.83586559  0.15476561  0.65405227  1  -0.060144  0.001254  3.637704  0.001  -0.099108  0.000229  3.890226  0.0  -0.093501  0.000384  3.906485  0.0  -0.056098  -0.102693  6.5e-05  3.879884  0.0
C  C35  1  0.38445533  0.72151582  0.42574904  1  0.743527  -9.7e-05  3.838155  0.0  0.701287  -8.3e-05  4.122305  0.0  0.737655  -4.9e-05  4.110749  0.0  0.245439  0.675483  -0.00013  4.126035  0.0
C  C36  1  0.61555221  0.27848249  0.57425375  1  0.743616  -9.9e-05  3.838095  0.0  0.701455  -8.3e-05  4.122114  0.0  0.737812  -5e-05  4.110577  0.0  0.245521  0.675651  -0.00013  4.125849  0.0
C  C37  1  0.16575599  0.22992865  0.43408705  1  0.696015  0.007042  3.859503  0.007  0.650209  0.001643  4.160607  0.002  0.689433  0.002015  4.150552  0.002  0.228446  0.623308  0.001262  4.163587  0.002
C  C38  1  0.83423840  0.77006674  0.56590944  1  0.695815  0.007052  3.859522  0.007  0.64991  0.001645  4.160756  0.002  0.689129  0.002009  4.150713  0.002  0.228222  0.623005  0.001262  4.163725  0.002
C  C39  1  0.89973849  0.41722037  0.87546959  1  -0.069163  -0.007459  3.721962  -0.008  -0.045013  -0.004693  3.961909  -0.005  -0.05775  -0.003492  3.985923  -0.004  -0.011494  -0.037036  -0.005587  3.946738  -0.006
C  C40  1  0.10024535  0.58279026  0.12453491  1  -0.06912  -0.007486  3.722026  -0.008  -0.045106  -0.004684  3.962094  -0.005  -0.057845  -0.003506  3.986108  -0.004  -0.01138  -0.037129  -0.005587  3.946916  -0.006
C  C41  1  0.77350661  0.43628635  0.96796250  1  -0.014694  0.001281  3.573511  0.0  -0.057812  9.7e-05  3.819891  0.0  -0.05169  0.000326  3.836051  0.0  -0.049513  -0.061518  -9.8e-05  3.809929  0.0
C  C42  1  0.22647192  0.56373333  0.03203794  1  -0.014867  0.001317  3.573703  0.0  -0.057866  8.1e-05  3.820085  0.0  -0.051743  0.000357  3.836258  0.0  -0.049659  -0.061568  -9.9e-05  3.810117  0.0
C  C43  1  0.78312586  0.39948088  0.08822681  1  -0.047771  -0.001082  3.704642  -0.001  -0.020512  -0.000406  3.941225  -0.001  -0.03207  -0.000351  3.964973  0.0  -0.008016  -0.013881  -0.00048  3.926252  -0.001
C  C44  1  0.21686664  0.60052259  0.91177285  1  -0.047819  -0.001109  3.704493  -0.001  -0.020595  -0.000396  3.94106  -0.001  -0.032158  -0.000367  3.964814  0.0  -0.008059  -0.013974  -0.00048  3.926099  -0.001
C  C45  1  0.91833602  0.34422426  0.11587246  1  -0.069826  0.002161  3.655755  0.001  -0.11206  0.000815  3.915937  0.0  -0.106668  0.000834  3.932094  0.0  -0.063704  -0.115329  0.000772  3.905678  0.0
C  C46  1  0.08165117  0.65578830  0.88412754  1  -0.069697  0.002195  3.655613  0.001  -0.1119  0.0008  3.915828  0.0  -0.106496  0.000861  3.931977  0.0  -0.063693  -0.115172  0.000773  3.905571  0.0
C  C47  1  0.04227450  0.32171909  0.02148136  1  0.048151  -0.000536  3.722406  -0.001  0.046139  -7.2e-05  3.980504  0.0  0.039525  -0.000133  4.005125  0.0  0.071964  0.050193  -2.9e-05  3.963913  0.0
C  C48  1  0.95771610  0.67829245  0.97852146  1  0.048172  -0.000548  3.722518  -0.001  0.04606  -6.4e-05  3.980766  0.0  0.039441  -0.000146  4.005392  0.0  0.071968  0.050114  -2.9e-05  3.964167  0.0
C  C49  1  0.03537723  0.35678297  0.90174444  1  -0.066309  0.001876  3.688407  0.001  -0.107858  0.000284  3.94763  0.0  -0.101964  0.000462  3.963373  0.0  -0.062408  -0.111358  0.000147  3.937074  0.0
C  C50  1  0.96460799  0.64322659  0.09825456  1  -0.066344  0.001907  3.688994  0.001  -0.107896  0.000275  3.948306  0.0  -0.102006  0.000485  3.96406  0.0  -0.062473  -0.111393  0.000147  3.937741  0.0
C  C51  1  0.89176455  0.45996091  0.74735290  1  0.705878  0.006725  3.849479  0.007  0.655616  0.002178  4.152513  0.003  0.69415  0.002602  4.142407  0.003  0.230755  0.628963  0.001638  4.156607  0.003
C  C52  1  0.10822991  0.54004557  0.25265040  1  0.705781  0.006741  3.849629  0.007  0.655606  0.002173  4.152612  0.003  0.694141  0.002605  4.142505  0.003  0.230761  0.628953  0.001637  4.156703  0.003
C  C53  1  0.64966001  0.41242095  0.18721254  1  0.647162  -9.4e-05  3.936668  0.0  0.598948  -7.1e-05  4.233537  0.0  0.633118  -4.1e-05  4.22646  0.0  0.198367  0.576803  -0.000109  4.230171  0.0
C  C54  1  0.35033881  0.58757344  0.81279005  1  0.647204  -8.6e-05  3.936451  0.0  0.599042  -7.2e-05  4.233259  0.0  0.633212  -3.8e-05  4.226176  0.0  0.198393  0.576906  -0.000109  4.229903  0.0
N  N55  1  0.93321205  0.96552983  0.28636349  1  0.502129  5.2e-05  3.90365  0.0  0.52957  3.4e-05  4.200955  0.0  0.550516  2.4e-05  4.210838  0.0  0.060808  0.51547  2e-06  4.194466  0.0
N  N56  1  0.06679834  0.03444922  0.71362119  1  0.502081  7.5e-05  3.903783  0.0  0.529608  4e-05  4.201049  0.0  0.550557  2.5e-05  4.21093  0.0  0.060799  0.515509  2e-06  4.194567  0.0
N  N57  1  0.18568726  0.26042389  0.04835441  1  0.494499  5.9e-05  3.919504  0.0  0.524068  2.2e-05  4.218124  0.0  0.544519  5e-05  4.228377  0.0  0.05553  0.510433  3e-06  4.211114  0.0
N  N58  1  0.81429571  0.73959479  0.95165213  1  0.494709  6.4e-05  3.919324  0.0  0.524311  1.8e-05  4.21794  0.0  0.544764  5.2e-05  4.228189  0.0  0.055723  0.510671  3e-06  4.210928  0.0
O  O59  1  0.39095410  0.61082243  0.38781804  1  -0.742581  -0.000479  2.060162  -0.001  -0.704988  -0.00018  2.31595  0.0  -0.731367  -9.8e-05  2.3033  0.0  -0.401936  -0.674171  -0.000221  2.326475  0.0
O  O60  1  0.60904865  0.38917792  0.61218303  1  -0.742634  -0.000475  2.060191  -0.001  -0.705059  -0.00018  2.31592  0.0  -0.73143  -9.8e-05  2.303266  0.0  -0.401966  -0.67424  -0.000221  2.326453  0.0
O  O61  1  0.45901906  0.73413129  0.49426153  1  -0.724066  -0.000102  2.045045  0.0  -0.687208  -3.9e-05  2.292594  0.0  -0.713205  -4e-05  2.279826  0.0  -0.404426  -0.65791  -8.9e-05  2.304276  0.0
O  O62  1  0.54098674  0.26586903  0.50573883  1  -0.724026  -0.000104  2.044982  0.0  -0.687207  -3.9e-05  2.292532  0.0  -0.713194  -4.1e-05  2.279768  0.0  -0.404399  -0.657909  -8.9e-05  2.304216  0.0
O  O63  1  0.28017372  0.24798750  0.43676792  1  -0.711267  0.001589  2.039854  0.0  -0.677314  0.0013  2.293284  0.0  -0.703251  0.00184  2.2803  0.001  -0.382104  -0.648381  0.000746  2.304014  -0.001
O  O64  1  0.71981979  0.75201579  0.56321216  1  -0.711038  0.001588  2.039899  0.0  -0.677034  0.001301  2.293299  0.0  -0.702976  0.001839  2.280327  0.001  -0.381906  -0.648101  0.000746  2.304022  -0.001
O  O65  1  0.03843671  0.31878238  0.45513997  1  -0.590243  -0.081098  2.101401  -0.112  -0.566617  -0.051106  2.393432  -0.077  -0.608612  -0.038835  2.383433  -0.063  -0.317033  -0.537085  -0.059293  2.399857  -0.085
O  O66  1  0.96155077  0.68120425  0.54487925  1  -0.590285  -0.081101  2.101388  -0.112  -0.566602  -0.051108  2.393389  -0.077  -0.608588  -0.038834  2.383389  -0.063  -0.317021  -0.53707  -0.059298  2.399805  -0.085
O  O67  1  0.84142080  0.07754131  0.27096749  1  -0.389489  0.000103  1.799378  0.0  -0.362642  8.5e-05  2.007394  0.0  -0.377741  9.4e-05  2.003231  0.0  -0.125389  -0.353128  2.7e-05  2.011216  0.0
O  O68  1  0.15862229  0.92244495  0.72896304  1  -0.389173  6.3e-05  1.799557  0.0  -0.362449  8.7e-05  2.007655  0.0  -0.377547  7e-05  2.003495  0.0  -0.125302  -0.352933  2.7e-05  2.011473  0.0
O  O69  1  0.92617202  0.85626020  0.26682601  1  -0.331844  -8.4e-05  1.778788  0.0  -0.314147  -2.9e-05  1.984835  0.0  -0.324909  -2.3e-05  1.981942  0.0  -0.111903  -0.30735  -1.2e-05  1.987392  0.0
O  O70  1  0.07381365  0.14371756  0.73321035  1  -0.332107  -7.1e-05  1.778542  0.0  -0.314365  -2.8e-05  1.984502  0.0  -0.325128  -1.5e-05  1.9816  0.0  -0.112039  -0.307563  -1.2e-05  1.987066  0.0
O  O71  1  0.01228962  0.43782893  0.66838853  1  -0.607518  -0.074687  2.119181  -0.104  -0.563763  -0.052624  2.386996  -0.079  -0.604767  -0.040555  2.377637  -0.066  -0.305631  -0.535967  -0.060277  2.394186  -0.086
O  O72  1  0.98770368  0.56216953  0.33161320  1  -0.607526  -0.074674  2.119252  -0.104  -0.563795  -0.052613  2.387032  -0.079  -0.604803  -0.040549  2.377677  -0.066  -0.305641  -0.535998  -0.060267  2.394216  -0.086
O  O73  1  0.77006035  0.51325343  0.72267828  1  -0.751195  0.00199  2.109245  0.0  -0.722662  0.001653  2.385785  0.0  -0.747946  0.002219  2.371047  0.001  -0.397951  -0.691901  0.001097  2.397912  -0.001
O  O74  1  0.22994057  0.48676600  0.27732045  1  -0.751113  0.001983  2.109386  0.0  -0.72256  0.001654  2.385814  0.0  -0.747844  0.002219  2.371087  0.001  -0.397918  -0.691804  0.001097  2.397938  -0.001
O  O75  1  0.52984628  0.43669589  0.16107111  1  -0.664776  -6.8e-05  1.956038  0.0  -0.63167  -7e-06  2.187362  0.0  -0.655034  -1.7e-05  2.176854  0.0  -0.355046  -0.607859  -1.1e-05  2.194373  0.0
O  O76  1  0.47014738  0.56328758  0.83893905  1  -0.664803  -7.2e-05  1.95603  0.0  -0.631717  -7e-06  2.187325  0.0  -0.655079  -1.7e-05  2.176817  0.0  -0.355044  -0.607902  -1e-05  2.194339  0.0
O  O77  1  0.66114951  0.39027761  0.29821907  1  -0.72564  -0.0002  2.061378  0.0  -0.675891  -9.7e-05  2.294781  0.0  -0.702527  -6.5e-05  2.285127  0.0  -0.371015  -0.64971  -0.000152  2.300918  0.0
O  O78  1  0.33885913  0.60971764  0.70177937  1  -0.725711  -0.000201  2.061394  0.0  -0.675968  -9.7e-05  2.294773  0.0  -0.702594  -6.6e-05  2.285116  0.0  -0.371023  -0.649782  -0.000152  2.300912  0.0
O  O79  1  0.19064877  0.24607806  0.15710026  1  -0.35843  -5.7e-05  1.77108  0.0  -0.340556  2.4e-05  1.979863  0.0  -0.354091  -1.1e-05  1.977979  0.0  -0.123016  -0.331418  3.1e-05  1.981044  0.0
O  O80  1  0.80934431  0.75392942  0.84289974  1  -0.358622  -5e-05  1.771028  0.0  -0.340762  1.9e-05  1.979823  0.0  -0.354295  -2e-06  1.977933  0.0  -0.123162  -0.331623  3.1e-05  1.980999  0.0
O  O81  1  0.29320225  0.22747728  0.96135716  1  -0.349352  -1e-05  1.692005  0.0  -0.339451  2.1e-05  1.875068  0.0  -0.34989  3.3e-05  1.871686  0.0  -0.136622  -0.332404  2.6e-05  1.877639  0.0
O  O82  1  0.70678341  0.77254235  0.03864689  1  -0.349355  -2.4e-05  1.692008  0.0  -0.339447  2.8e-05  1.875067  0.0  -0.349886  2.2e-05  1.871681  0.0  -0.136616  -0.332403  2.5e-05  1.877638  0.0
O  O83  1  0.45263846  0.82427661  0.73353207  1  -0.881329  1.1e-05  1.83863  0.0  -0.847627  2.4e-05  2.002803  0.0  -0.863983  1.5e-05  1.972545  0.0  -0.609877  -0.82659  1.6e-05  2.030339  0.0
O  O84  1  0.54738369  0.17573464  0.26647568  1  -0.881458  1.1e-05  1.838326  0.0  -0.847819  2.5e-05  2.002748  0.0  -0.864165  1.4e-05  1.972472  0.0  -0.609901  -0.826777  1.6e-05  2.030276  0.0
O  O85  1  0.73677719  0.52584493  0.43618781  1  -0.954459  0.001139  1.910204  0.0  -0.927924  0.001307  2.114857  0.0  -0.944763  0.001382  2.077504  0.0  -0.653021  -0.904124  0.001141  2.145069  0.0
O  O86  1  0.26323253  0.47416137  0.56381280  1  -0.954386  0.00114  1.910015  0.0  -0.927879  0.001306  2.114648  0.0  -0.944761  0.001382  2.077399  0.0  -0.653018  -0.90408  0.001141  2.144857  0.0
