# generated using pymatgen
data_Zn3H4C18(O3F2)4
_symmetry_space_group_name_H-M   'P 1'
_cell_length_a   16.97126517
_cell_length_b   17.01061478
_cell_length_c   17.01240024
_cell_angle_alpha   100.34981667
_cell_angle_beta   114.13573654
_cell_angle_gamma   114.16127670
_symmetry_Int_Tables_number   1
_chemical_formula_structural   Zn3H4C18(O3F2)4
_chemical_formula_sum   'Zn6 H8 C36 O24 F16'
_cell_volume   3717.25493395
_cell_formula_units_Z   2
loop_
 _symmetry_equiv_pos_site_id
 _symmetry_equiv_pos_as_xyz
  1  'x, y, z'
loop_
 _atom_site_type_symbol
 _atom_site_label
 _atom_site_symmetry_multiplicity
 _atom_site_fract_x
 _atom_site_fract_y
 _atom_site_fract_z
 _atom_site_occupancy
 _atom_site_pbe_bader_charge
 _atom_site_pbe_bader_spin_density
 _atom_site_pbe_cm5_charge
 _atom_site_pbe_ddec_charge
 _atom_site_pbe_ddec_spin_density
 _atom_site_pbe_ddec_sum_bond_order
 _atom_site_pbe_magmom
Zn  Zn0  1  0.07315012  0.00287257  0.07098172  1  1.311735  0  0.75279  0.986264  0  2.041506  0
Zn  Zn1  1  0.92684747  0.99712395  0.92902149  1  1.311017  0  0.752797  0.986319  0  2.041408  0
Zn  Zn2  1  0.92939948  0.42999292  0.50115783  1  1.318841  0  0.758617  0.9956  0  2.024933  0
Zn  Zn3  1  0.07058274  0.57001493  0.49883232  1  1.313909  0  0.758571  0.995731  0  2.024736  0
Zn  Zn4  1  0.49795502  0.43851873  0.93922648  1  1.320255  0  0.75489  0.988426  0  2.044957  0
Zn  Zn5  1  0.50202648  0.56146785  0.06074252  1  1.315052  0  0.754997  0.988756  0  2.044858  0
H  H6  1  0.83995860  0.72357951  0.71656798  1  0.123071  0  0.11904  0.099277  0  0.941318  0
H  H7  1  0.16007049  0.27651123  0.28339383  1  0.124003  0  0.119164  0.099434  0  0.941223  0
H  H8  1  0.05191393  0.13641133  0.29574058  1  0.113959  0  0.117719  0.098899  0  0.948475  0
H  H9  1  0.94824809  0.86369937  0.70433554  1  0.114507  0  0.117706  0.099061  0  0.948882  0
H  H10  1  0.08401463  0.76279500  0.90358303  1  0.107118  0  0.116734  0.16012  0  0.94697  0
H  H11  1  0.91587197  0.23710156  0.09639634  1  0.124502  0  0.116935  0.160488  0  0.946744  0
H  H12  1  0.83066671  0.13109129  0.09480362  1  0.116468  0  0.117541  0.163807  0  0.943395  0
H  H13  1  0.16932076  0.86881671  0.90526955  1  0.117656  0  0.117513  0.166066  0  0.940428  0
C  C14  1  0.86276880  0.85664860  0.99733419  1  1.655614  0  0.23546  0.67084  0  4.227757  0
C  C15  1  0.13719310  0.14335426  0.00263912  1  1.65618  0  0.235635  0.670857  0  4.228359  0
C  C16  1  0.72258717  0.71474361  0.00217991  1  -0.198372  0  -0.001065  -0.078809  0  3.883266  0
C  C17  1  0.27739769  0.28529331  0.99785296  1  -0.197668  0  -0.001057  -0.078596  0  3.883107  0
C  C18  1  0.13915956  0.50133304  0.64076820  1  1.685311  0  0.234931  0.665046  0  4.231056  0
C  C19  1  0.86081678  0.49865354  0.35920809  1  1.686685  0  0.234853  0.665327  0  4.23078  0
C  C20  1  0.99404780  0.61545984  0.61502727  1  1.633748  0  0.223997  0.638078  0  4.117161  0
C  C21  1  0.00593212  0.38453738  0.38496826  1  1.632997  0  0.224017  0.638142  0  4.117099  0
C  C22  1  0.36315352  0.50304503  0.86133904  1  1.676937  0  0.234168  0.664785  0  4.236148  0
C  C23  1  0.63682720  0.49685224  0.13854783  1  1.681991  0  0.234182  0.664567  0  4.236265  0
C  C24  1  0.64356449  0.63844602  0.00274119  1  1.6932  0  0.23407  0.660741  0  4.240239  0
C  C25  1  0.35642742  0.36161642  0.99731558  1  1.689236  0  0.234522  0.661442  0  4.239209  0
C  C26  1  0.21763423  0.50222509  0.71892456  1  -0.089198  0  -0.003407  -0.083774  0  3.890482  0
C  C27  1  0.78234750  0.49772180  0.28101157  1  -0.085082  0  -0.003697  -0.084142  0  3.890199  0
C  C28  1  0.28442623  0.50290163  0.78432260  1  -0.089931  0  -0.007404  -0.094779  0  3.896933  0
C  C29  1  0.71555544  0.49703178  0.21558993  1  -0.094256  0  -0.007209  -0.094539  0  3.897056  0
C  C30  1  0.00825159  0.88682393  0.88388609  1  1.572348  0  0.228689  0.606328  0  4.111272  0
C  C31  1  0.99178099  0.11317617  0.11614969  1  1.573754  0  0.228827  0.606619  0  4.11123  0
C  C32  1  0.90459790  0.71996510  0.76412374  1  0.510411  0  0.024483  0.036235  0  3.833585  0
C  C33  1  0.09538716  0.28007320  0.23584538  1  0.509926  0  0.024377  0.03605  0  3.83353  0
C  C34  1  0.99253445  0.15259013  0.26595795  1  0.525235  0  0.02171  0.042513  0  3.823909  0
C  C35  1  0.00758290  0.84746813  0.73411523  1  0.525485  0  0.021421  0.041376  0  3.824962  0
C  C36  1  0.90899418  0.64221242  0.70515524  1  1.15024  0  0.200123  0.450696  0  3.86772  0
C  C37  1  0.09095517  0.35780884  0.29479037  1  1.149991  0  0.200168  0.450703  0  3.867191  0
C  C38  1  0.01422774  0.23364518  0.34739713  1  1.119698  0  0.202609  0.44893  0  3.861346  0
C  C39  1  0.98585820  0.76641234  0.65265544  1  1.119859  0  0.202408  0.449534  0  3.861553  0
C  C40  1  0.09586325  0.80088477  0.85984596  1  -0.028365  0  -0.168534  -0.367436  0  3.871557  0
C  C41  1  0.90410281  0.19905083  0.14018403  1  -0.044969  0  -0.168758  -0.366224  0  3.871697  0
C  C42  1  0.00697888  0.81559850  0.81300779  1  0.026271  0  -0.021149  -0.053147  0  3.827252  0
C  C43  1  0.99305019  0.18441222  0.18702258  1  0.027232  0  -0.021151  -0.053093  0  3.826305  0
C  C44  1  0.99574096  0.68864388  0.68515629  1  0.006832  0  -0.026993  -0.361341  0  3.726552  0
C  C45  1  0.00425804  0.31136398  0.31485012  1  0.007829  0  -0.026908  -0.361265  0  3.726529  0
C  C46  1  0.10000404  0.74289529  0.78346432  1  1.093994  0  0.201984  0.52471  0  3.848798  0
C  C47  1  0.89995979  0.25704314  0.21656232  1  1.095169  0  0.201728  0.524995  0  3.848256  0
C  C48  1  0.78767168  0.77909784  0.00007287  1  0.028338  0  -0.007517  -0.096992  0  3.898346  0
C  C49  1  0.21229962  0.22092347  0.99992815  1  0.029105  0  -0.007697  -0.097456  0  3.89894  0
O  O50  1  0.95663531  0.89037934  0.05867493  1  -1.127533  0  -0.305057  -0.539882  0  2.231443  0
O  O51  1  0.04332278  0.10969157  0.94136601  1  -1.128214  0  -0.305034  -0.539726  0  2.231772  0
O  O52  1  0.17203039  0.11531255  0.06595679  1  -1.112163  0  -0.303136  -0.532412  0  2.224004  0
O  O53  1  0.82793778  0.88461092  0.93393434  1  -1.112226  0  -0.303035  -0.53241  0  2.223755  0
O  O54  1  0.07227819  0.91586567  0.97122439  1  -1.134568  0  -0.297314  -0.517872  0  2.278215  0
O  O55  1  0.92766517  0.08403308  0.02881207  1  -1.135954  0  -0.297491  -0.518033  0  2.277923  0
O  O56  1  0.05726254  0.09105668  0.15247691  1  -1.150891  0  -0.308504  -0.550273  0  2.292624  0
O  O57  1  0.94286061  0.90904265  0.84756542  1  -1.151166  0  -0.3087  -0.550404  0  2.292442  0
O  O58  1  0.04680836  0.43978140  0.61121175  1  -1.131207  0  -0.300784  -0.528778  0  2.219353  0
O  O59  1  0.95317223  0.56031717  0.38885980  1  -1.131461  0  -0.300899  -0.529034  0  2.218901  0
O  O60  1  0.17024996  0.56202955  0.60884892  1  -1.119381  0  -0.302581  -0.532109  0  2.223107  0
O  O61  1  0.82973905  0.43789536  0.39106215  1  -1.120002  0  -0.302476  -0.532081  0  2.223236  0
O  O62  1  0.93336214  0.52872474  0.59158344  1  -1.126328  0  -0.299741  -0.52457  0  2.31016  0
O  O63  1  0.06652303  0.47128159  0.40831388  1  -1.12489  0  -0.299761  -0.524708  0  2.309675  0
O  O64  1  0.05618417  0.64964199  0.58934543  1  -1.131487  0  -0.302223  -0.536378  0  2.329499  0
O  O65  1  0.94389356  0.35036028  0.41073917  1  -1.132308  0  -0.302214  -0.536297  0  2.329783  0
O  O66  1  0.39224794  0.44928996  0.83841034  1  -1.119185  0  -0.30192  -0.532203  0  2.225443  0
O  O67  1  0.60772627  0.55060941  0.16145603  1  -1.120854  0  -0.301968  -0.532373  0  2.225959  0
O  O68  1  0.39589951  0.55675025  0.94474034  1  -1.123835  0  -0.302013  -0.534099  0  2.22936  0
O  O69  1  0.60408738  0.44314206  0.05515169  1  -1.127615  0  -0.30188  -0.533687  0  2.228286  0
O  O70  1  0.61058966  0.55481598  0.94958155  1  -1.127461  0  -0.301116  -0.53334  0  2.227881  0
O  O71  1  0.38938533  0.44524291  0.05047825  1  -1.126427  0  -0.301517  -0.533816  0  2.226664  0
O  O72  1  0.61449202  0.66250217  0.05594654  1  -1.121163  0  -0.300858  -0.52991  0  2.220651  0
O  O73  1  0.38550360  0.33758223  0.94411157  1  -1.119582  0  -0.300822  -0.530063  0  2.221125  0
F  F74  1  0.88687057  0.69567404  0.83198781  1  -0.605169  0  -0.123994  -0.14159  0  1.287229  0
F  F75  1  0.11303614  0.30432381  0.16793090  1  -0.606145  0  -0.123994  -0.141629  0  1.287095  0
F  F76  1  0.89781220  0.07049509  0.22846437  1  -0.603471  0  -0.124698  -0.141946  0  1.282643  0
F  F77  1  0.10234042  0.92953275  0.77165304  1  -0.604474  0  -0.124404  -0.141437  0  1.283096  0
F  F78  1  0.81445870  0.58127706  0.62295100  1  -0.611093  0  -0.114455  -0.1832  0  1.304396  0
F  F79  1  0.18549809  0.41880370  0.37697362  1  -0.610973  0  -0.114439  -0.183121  0  1.303948  0
F  F80  1  0.11477852  0.27523561  0.42171785  1  -0.604874  0  -0.119173  -0.198856  0  1.266621  0
F  F81  1  0.88533401  0.72488213  0.57832109  1  -0.605571  0  -0.118975  -0.199005  0  1.267378  0
F  F82  1  0.92771901  0.58999018  0.75470765  1  -0.605949  0  -0.105362  -0.170575  0  1.321738  0
F  F83  1  0.07214345  0.40997151  0.24519887  1  -0.606033  0  -0.105372  -0.170518  0  1.321905  0
F  F84  1  0.95399016  0.19665228  0.38075410  1  -0.603815  0  -0.09832  -0.154979  0  1.352277  0
F  F85  1  0.04613487  0.80339252  0.61932509  1  -0.602311  0  -0.098245  -0.155083  0  1.351812  0
F  F86  1  0.12403146  0.67920608  0.80857716  1  -0.612101  0  -0.117615  -0.193697  0  1.260932  0
F  F87  1  0.87585642  0.32068270  0.19141546  1  -0.612315  0  -0.117333  -0.193559  0  1.261037  0
F  F88  1  0.82230988  0.19803702  0.22558654  1  -0.609139  0  -0.114807  -0.190882  0  1.286854  0
F  F89  1  0.17770626  0.80190146  0.77449676  1  -0.608538  0  -0.114595  -0.190636  0  1.287168  0
