# generated using pymatgen
data_UFePH12C13O10F
_symmetry_space_group_name_H-M   'P 1'
_cell_length_a   6.96448680
_cell_length_b   11.13575252
_cell_length_c   12.25036053
_cell_angle_alpha   109.32486234
_cell_angle_beta   89.68711342
_cell_angle_gamma   91.91959118
_symmetry_Int_Tables_number   1
_chemical_formula_structural   UFePH12C13O10F
_chemical_formula_sum   'U2 Fe2 P2 H24 C26 O20 F2'
_cell_volume   896.02561071
_cell_formula_units_Z   2
loop_
 _symmetry_equiv_pos_site_id
 _symmetry_equiv_pos_as_xyz
  1  'x, y, z'
loop_
 _atom_site_type_symbol
 _atom_site_label
 _atom_site_symmetry_multiplicity
 _atom_site_fract_x
 _atom_site_fract_y
 _atom_site_fract_z
 _atom_site_occupancy
 _atom_site_hle17_bader_spin_density
 _atom_site_hle17_ddec_charge
 _atom_site_hle17_ddec_spin_density
 _atom_site_hle17_ddec_sum_bond_order
 _atom_site_hle17_magmom
 _atom_site_hse06_10hf_bader_spin_density
 _atom_site_hse06_10hf_ddec_charge
 _atom_site_hse06_10hf_ddec_spin_density
 _atom_site_hse06_10hf_ddec_sum_bond_order
 _atom_site_hse06_10hf_magmom
 _atom_site_hse06_bader_spin_density
 _atom_site_hse06_ddec_charge
 _atom_site_hse06_ddec_spin_density
 _atom_site_hse06_ddec_sum_bond_order
 _atom_site_hse06_magmom
 _atom_site_pbe_bader_spin_density
 _atom_site_pbe_cm5_charge
 _atom_site_pbe_ddec_charge
 _atom_site_pbe_ddec_spin_density
 _atom_site_pbe_ddec_sum_bond_order
 _atom_site_pbe_magmom
U  U0  1  0.94284419  0.33782635  0.86545160  1  0  2.629414  0  4.074527  0  0  2.693914  0  4.718853  0  0  2.800189  0  4.678224  0  0  2.180425  2.615266  0  4.751904  0
U  U1  1  0.05715153  0.66217204  0.13454710  1  0  2.629327  0  4.074813  0  0  2.693819  0  4.719184  0  0  2.800131  0  4.67849  0  0  2.180411  2.615203  0  4.752157  0
Fe  Fe2  1  0.03314375  0.82610554  0.68767205  1  0  0.138923  0  3.446078  0  0  0.254901  0  3.832379  0  0  0.24899  0  3.834058  0  0  0.599383  0.264441  0  3.82659  0
Fe  Fe3  1  0.96685806  0.17389855  0.31232839  1  0  0.138948  0  3.445938  0  0  0.254896  0  3.832278  0  0  0.249026  0  3.833951  0  0  0.599344  0.264464  0  3.82648  0
P  P4  1  0.44491323  0.32350045  0.78215443  1  0  1.805723  0  4.758147  0  0  1.642969  0  5.291377  0  0  1.70631  0  5.229842  0  0  0.461976  1.59772  0  5.33371  0
P  P5  1  0.55508519  0.67649508  0.21784341  1  0  1.805763  0  4.75808  0  0  1.643006  0  5.291292  0  0  1.706344  0  5.229763  0  0  0.462016  1.597757  0  5.333622  0
H  H6  1  0.19742699  0.06548385  0.68496353  1  0  0.150545  0  0.931295  0  0  0.163688  0  0.98247  0  0  0.168633  0  0.978523  0  0  0.131436  0.160214  0  0.985282  0
H  H7  1  0.80257464  0.93451456  0.31502703  1  0  0.150551  0  0.931305  0  0  0.163686  0  0.982484  0  0  0.168639  0  0.978536  0  0  0.131427  0.160213  0  0.985293  0
H  H8  1  0.72967293  0.80352554  0.51770198  1  0  0.138672  0  0.941253  0  0  0.146635  0  1.004213  0  0  0.150963  0  1.000556  0  0  0.122023  0.143552  0  1.006855  0
H  H9  1  0.27033124  0.19646997  0.48229505  1  0  0.138607  0  0.941233  0  0  0.146575  0  1.004186  0  0  0.150903  0  1.00053  0  0  0.121982  0.143494  0  1.006827  0
H  H10  1  0.95326771  0.62131903  0.47146174  1  0  0.139731  0  0.919135  0  0  0.151395  0  0.973318  0  0  0.155764  0  0.969408  0  0  0.128862  0.148421  0  0.976011  0
H  H11  1  0.04673497  0.37867647  0.52853855  1  0  0.139812  0  0.919092  0  0  0.151423  0  0.973341  0  0  0.155792  0  0.96943  0  0  0.128888  0.148449  0  0.976031  0
H  H12  1  0.42300490  0.88579898  0.63407816  1  0  0.133414  0  0.938697  0  0  0.143202  0  1.00012  0  0  0.148097  0  0.995304  0  0  0.122405  0.139755  0  1.003545  0
H  H13  1  0.57700122  0.11420415  0.36591875  1  0  0.133474  0  0.938591  0  0  0.143188  0  1.000108  0  0  0.148111  0  0.995256  0  0  0.122398  0.139744  0  1.003529  0
H  H14  1  0.97280253  0.02989783  0.89084168  1  0  0.145844  0  0.95459  0  0  0.159075  0  1.007921  0  0  0.161855  0  1.007307  0  0  0.12648  0.156985  0  1.008787  0
H  H15  1  0.02718249  0.97011113  0.10915285  1  0  0.145829  0  0.954644  0  0  0.159168  0  1.007835  0  0  0.161948  0  1.007221  0  0  0.126516  0.15708  0  1.008699  0
H  H16  1  0.67551748  0.86479340  0.79622996  1  0  0.122547  0  0.925825  0  0  0.138617  0  0.975845  0  0  0.140043  0  0.976957  0  0  0.122168  0.137242  0  0.97573  0
H  H17  1  0.32448094  0.13520213  0.20376788  1  0  0.122548  0  0.925816  0  0  0.138614  0  0.975843  0  0  0.140043  0  0.976953  0  0  0.122182  0.137244  0  0.975725  0
H  H18  1  0.81151518  0.62486986  0.72669381  1  0  0.147819  0  0.928741  0  0  0.158799  0  0.982731  0  0  0.16069  0  0.982897  0  0  0.128264  0.157149  0  0.98308  0
H  H19  1  0.18850072  0.37513316  0.27331697  1  0  0.147821  0  0.928791  0  0  0.158781  0  0.982793  0  0  0.160672  0  0.982962  0  0  0.128229  0.157133  0  0.983141  0
H  H20  1  0.18761704  0.64198396  0.77348383  1  0  0.136472  0  0.923392  0  0  0.149826  0  0.976256  0  0  0.150943  0  0.977694  0  0  0.129413  0.148734  0  0.975709  0
H  H21  1  0.81239687  0.35803242  0.22652693  1  0  0.136421  0  0.923638  0  0  0.149815  0  0.976398  0  0  0.150934  0  0.977833  0  0  0.129417  0.148725  0  0.975846  0
H  H22  1  0.28961647  0.89150485  0.87686288  1  0  0.122804  0  0.913037  0  0  0.142997  0  0.954902  0  0  0.144332  0  0.956436  0  0  0.128094  0.141781  0  0.954407  0
H  H23  1  0.71038225  0.10851925  0.12314283  1  0  0.122837  0  0.913082  0  0  0.143033  0  0.954945  0  0  0.144367  0  0.956479  0  0  0.128146  0.14182  0  0.954446  0
H  H24  1  0.34465597  0.50741177  0.86763262  1  0  0.448657  0  0.826327  0  0  0.425332  0  0.884487  0  0  0.436996  0  0.867276  0  0  0.324299  0.417008  0  0.896764  0
H  H25  1  0.65534667  0.49258185  0.13236302  1  0  0.448912  0  0.82606  0  0  0.425448  0  0.884357  0  0  0.437108  0  0.867153  0  0  0.32437  0.417124  0  0.896635  0
H  H26  1  0.55010152  0.17420548  0.63377896  1  0  0.421999  0  0.877004  0  0  0.387193  0  0.954909  0  0  0.399721  0  0.93707  0  0  0.309018  0.378306  0  0.967524  0
H  H27  1  0.44990114  0.82578814  0.36621586  1  0  0.421968  0  0.877011  0  0  0.387192  0  0.954909  0  0  0.399715  0  0.937076  0  0  0.308982  0.378307  0  0.967521  0
H  H28  1  0.58670659  0.58374186  0.55829465  1  0  0.398478  0  0.896647  0  0  0.365968  0  0.975227  0  0  0.37935  0  0.960723  0  0  0.310422  0.356672  0  0.984664  0
H  H29  1  0.41328883  0.41625552  0.44171598  1  0  0.398539  0  0.896569  0  0  0.365999  0  0.97518  0  0  0.379382  0  0.960681  0  0  0.31043  0.356703  0  0.984622  0
C  C30  1  0.81595573  0.05589598  0.64127235  1  0  0.685449  0  3.868254  0  0  0.647313  0  4.15706  0  0  0.683781  0  4.14758  0  0  0.237653  0.622401  0  4.162289  0
C  C31  1  0.18404291  0.94410242  0.35872391  1  0  0.685551  0  3.868342  0  0  0.647396  0  4.157168  0  0  0.683867  0  4.147687  0  0  0.237712  0.622484  0  4.162398  0
C  C32  1  0.95072047  0.94683943  0.60045893  1  0  -0.074025  0  3.71009  0  0  -0.065551  0  3.960494  0  0  -0.068365  0  3.970678  0  0  -0.049206  -0.06383  0  3.953579  0
C  C33  1  0.04928975  0.05316081  0.39953874  1  0  -0.07393  0  3.709802  0  0  -0.065456  0  3.96021  0  0  -0.068273  0  3.970402  0  0  -0.04918  -0.063728  0  3.953282  0
C  C34  1  0.14837009  0.96997754  0.63209445  1  0  -0.055526  0  3.627611  0  0  -0.089761  0  3.891785  0  0  -0.085537  0  3.896669  0  0  -0.10495  -0.092855  0  3.888315  0
C  C35  1  0.85163436  0.03002179  0.36790129  1  0  -0.055595  0  3.627497  0  0  -0.089833  0  3.89168  0  0  -0.085621  0  3.896571  0  0  -0.104962  -0.092929  0  3.888204  0
C  C36  1  0.88191292  0.82123443  0.53830389  1  0  -0.047857  0  3.624204  0  0  -0.086167  0  3.898193  0  0  -0.082052  0  3.903708  0  0  -0.099551  -0.089129  0  3.894273  0
C  C37  1  0.11809025  0.17876681  0.46169080  1  0  -0.047927  0  3.624225  0  0  -0.086209  0  3.898183  0  0  -0.082101  0  3.903707  0  0  -0.099595  -0.089175  0  3.894252  0
C  C38  1  0.00734205  0.71873960  0.51167169  1  0  -0.032121  0  3.609822  0  0  -0.070393  0  3.880452  0  0  -0.064161  0  3.884333  0  0  -0.092155  -0.074461  0  3.877261  0
C  C39  1  0.99265955  0.28126069  0.48832678  1  0  -0.032236  0  3.609863  0  0  -0.070464  0  3.880465  0  0  -0.064236  0  3.884348  0  0  -0.092195  -0.074528  0  3.877255  0
C  C40  1  0.20365222  0.74154492  0.54640559  1  0  -0.070934  0  3.710663  0  0  -0.064657  0  3.970179  0  0  -0.068538  0  3.98004  0  0  -0.046132  -0.062297  0  3.963351  0
C  C41  1  0.79634735  0.25844866  0.45359982  1  0  -0.070807  0  3.710296  0  0  -0.064543  0  3.969825  0  0  -0.068422  0  3.979692  0  0  -0.046033  -0.062183  0  3.962992  0
C  C42  1  0.27428663  0.86797677  0.60514205  1  0  -0.049977  0  3.645296  0  0  -0.092089  0  3.92285  0  0  -0.085709  0  3.926339  0  0  -0.107085  -0.096352  0  3.9202  0
C  C43  1  0.72572035  0.13201777  0.39485552  1  0  -0.049983  0  3.64535  0  0  -0.092019  0  3.922921  0  0  -0.085667  0  3.926411  0  0  -0.107067  -0.096285  0  3.920267  0
C  C44  1  0.33060005  0.63215709  0.52858939  1  0  0.696395  0  3.763483  0  0  0.642579  0  4.063285  0  0  0.678064  0  4.051403  0  0  0.259069  0.618517  0  4.070664  0
C  C45  1  0.66938852  0.36784323  0.47141395  1  0  0.696458  0  3.763221  0  0  0.642611  0  4.063102  0  0  0.678095  0  4.051216  0  0  0.259105  0.618549  0  4.070481  0
C  C46  1  0.97826848  0.92643333  0.85726338  1  0  -0.071483  0  3.603405  0  0  -0.104034  0  3.876778  0  0  -0.109553  0  3.899909  0  0  -0.115724  -0.101389  0  3.862438  0
C  C47  1  0.02172665  0.07357748  0.14273420  1  0  -0.071562  0  3.603579  0  0  -0.104177  0  3.876939  0  0  -0.109701  0  3.900077  0  0  -0.115747  -0.101528  0  3.86258  0
C  C48  1  0.82134719  0.83912506  0.80757455  1  0  -0.066619  0  3.622219  0  0  -0.099804  0  3.896745  0  0  -0.106066  0  3.922068  0  0  -0.117432  -0.0968  0  3.881316  0
C  C49  1  0.17865321  0.16087904  0.19242427  1  0  -0.066587  0  3.622316  0  0  -0.099778  0  3.896864  0  0  -0.106044  0  3.922191  0  0  -0.117454  -0.096775  0  3.881431  0
C  C50  1  0.89202493  0.71294694  0.76935787  1  0  -0.0428  0  3.581023  0  0  -0.077151  0  3.857182  0  0  -0.082744  0  3.881166  0  0  -0.102769  -0.074348  0  3.842294  0
C  C51  1  0.10798845  0.28705994  0.23064755  1  0  -0.042896  0  3.581088  0  0  -0.077264  0  3.857233  0  0  -0.082869  0  3.881236  0  0  -0.102771  -0.07446  0  3.842338  0
C  C52  1  0.09275341  0.72187386  0.79460499  1  0  -0.041315  0  3.600633  0  0  -0.080233  0  3.883801  0  0  -0.086226  0  3.907721  0  0  -0.102007  -0.077289  0  3.869165  0
C  C53  1  0.90725620  0.27814255  0.20540494  1  0  -0.041185  0  3.600549  0  0  -0.080031  0  3.883561  0  0  -0.086028  0  3.907484  0  0  -0.101888  -0.077089  0  3.868924  0
C  C54  1  0.14598875  0.85316053  0.84885233  1  0  -0.045028  0  3.621974  0  0  -0.078886  0  3.899742  0  0  -0.083846  0  3.921597  0  0  -0.109513  -0.0766  0  3.886432  0
C  C55  1  0.85401071  0.14685308  0.15115346  1  0  -0.045087  0  3.622006  0  0  -0.079006  0  3.899825  0  0  -0.083969  0  3.921683  0  0  -0.109646  -0.076726  0  3.886513  0
O  O56  1  0.93561777  0.43372421  0.77140296  1  0  -0.727098  0  1.505471  0  0  -0.747671  0  1.791487  0  0  -0.77038  0  1.779153  0  0  -0.76047  -0.733497  0  1.801216  0
O  O57  1  0.06437150  0.56626184  0.22859033  1  0  -0.727081  0  1.505236  0  0  -0.747667  0  1.791272  0  0  -0.770387  0  1.77893  0  0  -0.760449  -0.733483  0  1.800963  0
O  O58  1  0.94953968  0.23589806  0.95430769  1  0  -0.72355  0  1.529127  0  0  -0.732668  0  1.803343  0  0  -0.752121  0  1.790174  0  0  -0.759334  -0.720218  0  1.813818  0
O  O59  1  0.05045877  0.76410029  0.04569835  1  0  -0.723541  0  1.529477  0  0  -0.732689  0  1.803726  0  0  -0.75215  0  1.790552  0  0  -0.759383  -0.720239  0  1.814187  0
O  O60  1  0.61134477  0.30613497  0.85545219  1  0  -0.919597  0  1.944737  0  0  -0.890615  0  2.219896  0  0  -0.923958  0  2.197148  0  0  -0.440991  -0.865188  0  2.234709  0
O  O61  1  0.38865378  0.69386246  0.14454541  1  0  -0.919539  0  1.944663  0  0  -0.890559  0  2.219818  0  0  -0.923905  0  2.197069  0  0  -0.44096  -0.865134  0  2.234624  0
O  O62  1  0.25492793  0.26833948  0.81049554  1  0  -0.931806  0  1.960605  0  0  -0.89806  0  2.23754  0  0  -0.931697  0  2.215571  0  0  -0.437239  -0.872503  0  2.251882  0
O  O63  1  0.74507034  0.73165320  0.18950062  1  0  -0.93184  0  1.960656  0  0  -0.898095  0  2.237598  0  0  -0.931737  0  2.215631  0  0  -0.437358  -0.87254  0  2.251933  0
O  O64  1  0.89495395  0.16211438  0.70091007  1  0  -0.686  0  2.134646  0  0  -0.668878  0  2.412045  0  0  -0.705022  0  2.409003  0  0  -0.385382  -0.642058  0  2.412875  0
O  O65  1  0.10504169  0.83788306  0.29908915  1  0  -0.686026  0  2.134726  0  0  -0.668876  0  2.412099  0  0  -0.705024  0  2.409049  0  0  -0.38539  -0.642068  0  2.412943  0
O  O66  1  0.64146566  0.03819689  0.61239055  1  0  -0.571881  0  1.944207  0  0  -0.516344  0  2.148379  0  0  -0.542301  0  2.140051  0  0  -0.282684  -0.497833  0  2.153421  0
O  O67  1  0.35853158  0.96180059  0.38760134  1  0  -0.571933  0  1.944227  0  0  -0.516439  0  2.148451  0  0  -0.542397  0  2.140127  0  0  -0.282713  -0.497924  0  2.153492  0
O  O68  1  0.42161590  0.46996121  0.79629045  1  0  -0.757313  0  1.891997  0  0  -0.700217  0  2.097515  0  0  -0.72048  0  2.068084  0  0  -0.37565  -0.685459  0  2.117839  0
O  O69  1  0.57837816  0.53003245  0.20370354  1  0  -0.757526  0  1.891805  0  0  -0.700311  0  2.097419  0  0  -0.720573  0  2.067987  0  0  -0.375682  -0.685554  0  2.117745  0
O  O70  1  0.49183248  0.26182932  0.64906575  1  0  -0.767968  0  1.974095  0  0  -0.699814  0  2.199494  0  0  -0.724403  0  2.172183  0  0  -0.374153  -0.6821  0  2.218279  0
O  O71  1  0.50816152  0.73816433  0.35093150  1  0  -0.767972  0  1.974075  0  0  -0.699821  0  2.199463  0  0  -0.724405  0  2.172156  0  0  -0.374094  -0.68211  0  2.21825  0
O  O72  1  0.27537733  0.52197938  0.47036589  1  0  -0.547772  0  2.002871  0  0  -0.491425  0  2.211948  0  0  -0.513474  0  2.201456  0  0  -0.262921  -0.476109  0  2.218578  0
O  O73  1  0.72460713  0.47800656  0.52965266  1  0  -0.547765  0  2.003035  0  0  -0.491476  0  2.212203  0  0  -0.513528  0  2.201705  0  0  -0.262941  -0.476154  0  2.218825  0
O  O74  1  0.49930041  0.66247148  0.57948273  1  0  -0.530941  0  2.110507  0  0  -0.477408  0  2.331534  0  0  -0.499815  0  2.316558  0  0  -0.307639  -0.461801  0  2.34088  0
O  O75  1  0.50069491  0.33751932  0.42051120  1  0  -0.531137  0  2.110357  0  0  -0.477523  0  2.331343  0  0  -0.499929  0  2.316371  0  0  -0.307751  -0.461916  0  2.340691  0
F  F76  1  0.82421296  0.49762825  0.02854106  1  0  -0.701275  0  0.860708  0  0  -0.682505  0  1.054591  0  0  -0.708198  0  1.036831  0  0  -0.388348  -0.662015  0  1.06635  0
F  F77  1  0.17578113  0.50236729  0.97145759  1  0  -0.701213  0  0.860655  0  0  -0.682484  0  1.054533  0  0  -0.70818  0  1.036771  0  0  -0.388349  -0.661996  0  1.066291  0
