# generated using pymatgen
data_NdAgH6C12(NO2)4
_symmetry_space_group_name_H-M   'P 1'
_cell_length_a   8.06767262
_cell_length_b   10.14262357
_cell_length_c   18.91780000
_cell_angle_alpha   90.00000000
_cell_angle_beta   90.00000000
_cell_angle_gamma   95.54787436
_symmetry_Int_Tables_number   1
_chemical_formula_structural   NdAgH6C12(NO2)4
_chemical_formula_sum   'Nd4 Ag4 H24 C48 N16 O32'
_cell_volume   1540.74258786
_cell_formula_units_Z   4
loop_
 _symmetry_equiv_pos_site_id
 _symmetry_equiv_pos_as_xyz
  1  'x, y, z'
loop_
 _atom_site_type_symbol
 _atom_site_label
 _atom_site_symmetry_multiplicity
 _atom_site_fract_x
 _atom_site_fract_y
 _atom_site_fract_z
 _atom_site_occupancy
 _atom_site_hle17_bader_spin_density
 _atom_site_hle17_ddec_charge
 _atom_site_hle17_ddec_spin_density
 _atom_site_hle17_ddec_sum_bond_order
 _atom_site_hle17_magmom
 _atom_site_hse06_10hf_bader_spin_density
 _atom_site_hse06_10hf_ddec_charge
 _atom_site_hse06_10hf_ddec_spin_density
 _atom_site_hse06_10hf_ddec_sum_bond_order
 _atom_site_hse06_10hf_magmom
 _atom_site_hse06_bader_spin_density
 _atom_site_hse06_ddec_charge
 _atom_site_hse06_ddec_spin_density
 _atom_site_hse06_ddec_sum_bond_order
 _atom_site_hse06_magmom
 _atom_site_pbe_bader_charge
 _atom_site_pbe_bader_spin_density
 _atom_site_pbe_cm5_charge
 _atom_site_pbe_ddec_charge
 _atom_site_pbe_ddec_spin_density
 _atom_site_pbe_ddec_sum_bond_order
 _atom_site_pbe_magmom
Nd  Nd0  1  0.75993763  0.65043055  0.39437990  1  0  2.187018  0  1.716297  0  0  1.992021  0  2.225628  0  0  2.039991  0  2.17779  0  2.218774  0  1.454904  1.955744  0  2.261827  0
Nd  Nd1  1  0.74004930  0.34957013  0.89438360  1  0  2.187045  0  1.716317  0  0  1.991955  0  2.22583  0  0  2.039917  0  2.178003  0  2.21868  0  1.454896  1.955675  0  2.262026  0
Nd  Nd2  1  0.24003796  0.34956220  0.60561905  1  0  2.187103  0  1.716264  0  0  1.99205  0  2.225731  0  0  2.040014  0  2.177895  0  2.218822  0  1.454855  1.955779  0  2.261912  0
Nd  Nd3  1  0.25994733  0.65043253  0.10562063  1  0  2.186963  0  1.716331  0  0  1.991892  0  2.2258  0  0  2.039856  0  2.177966  0  2.218664  0  1.45487  1.955615  0  2.261996  0
Ag  Ag4  1  0.10429261  0.15760200  0.42202159  1  0  0.607474  0  1.281475  0  0  0.470637  0  1.707309  0  0  0.500879  0  1.658669  0  0.652702  0  0.4835  0.45093  0  1.740547  0
Ag  Ag5  1  0.39571360  0.84240165  0.92202053  1  0  0.607421  0  1.281522  0  0  0.470604  0  1.70732  0  0  0.500854  0  1.658669  0  0.652667  0  0.483499  0.450895  0  1.740561  0
Ag  Ag6  1  0.89571358  0.84239769  0.57797735  1  0  0.607463  0  1.281477  0  0  0.470615  0  1.707288  0  0  0.500868  0  1.658637  0  0.652632  0  0.483497  0.450906  0  1.740528  0
Ag  Ag7  1  0.60429195  0.15760299  0.07797735  1  0  0.607465  0  1.281457  0  0  0.470639  0  1.707242  0  0  0.500882  0  1.658606  0  0.652648  0  0.483519  0.450932  0  1.740482  0
H  H8  1  0.51500578  0.15368525  0.41608591  1  0  0.114683  0  0.914584  0  0  0.122126  0  0.976675  0  0  0.12545  0  0.974395  0  0.120893  0  0.129067  0.11972  0  0.978296  0
H  H9  1  0.98499627  0.84631741  0.91608802  1  0  0.11465  0  0.914602  0  0  0.122106  0  0.976672  0  0  0.125424  0  0.9744  0  0.120923  0  0.129041  0.1197  0  0.978292  0
H  H10  1  0.48500425  0.84631543  0.58391462  1  0  0.114605  0  0.914653  0  0  0.122093  0  0.976702  0  0  0.125402  0  0.974439  0  0.121191  0  0.129011  0.119689  0  0.978322  0
H  H11  1  0.01500644  0.15368426  0.08391356  1  0  0.114658  0  0.914625  0  0  0.122101  0  0.976719  0  0  0.125424  0  0.97444  0  0.120888  0  0.129067  0.119696  0  0.978339  0
H  H12  1  0.11745866  0.86039155  0.42192644  1  0  0.113747  0  0.98071  0  0  0.115634  0  1.052072  0  0  0.120114  0  1.04685  0  0.170601  0  0.12682  0.112262  0  1.056121  0
H  H13  1  0.38254236  0.13961012  0.92192327  1  0  0.113694  0  0.980704  0  0  0.115578  0  1.052079  0  0  0.120058  0  1.046857  0  0.170583  0  0.126797  0.112207  0  1.056125  0
H  H14  1  0.88253997  0.13960715  0.57807515  1  0  0.11375  0  0.98069  0  0  0.115634  0  1.052065  0  0  0.120113  0  1.046844  0  0.170601  0  0.126807  0.112265  0  1.056112  0
H  H15  1  0.61746071  0.86039452  0.07807462  1  0  0.113697  0  0.980651  0  0  0.115586  0  1.052032  0  0  0.120064  0  1.046811  0  0.170615  0  0.126783  0.112217  0  1.056077  0
H  H16  1  0.31787840  0.68473824  0.41128937  1  0  0.098044  0  0.935621  0  0  0.105787  0  0.996418  0  0  0.107859  0  0.996127  0  0.114571  0  0.129372  0.104197  0  0.996823  0
H  H17  1  0.18212249  0.31526244  0.91128778  1  0  0.098067  0  0.935543  0  0  0.105794  0  0.996378  0  0  0.107868  0  0.996083  0  0.114562  0  0.129359  0.104203  0  0.996785  0
H  H18  1  0.68211603  0.31525650  0.58870958  1  0  0.098044  0  0.935601  0  0  0.105774  0  0.996404  0  0  0.107848  0  0.99611  0  0.114406  0  0.129354  0.104184  0  0.99681  0
H  H19  1  0.81788058  0.68474220  0.08871116  1  0  0.098045  0  0.935573  0  0  0.105749  0  0.996426  0  0  0.107822  0  0.996135  0  0.114612  0  0.129334  0.10416  0  0.996831  0
H  H20  1  0.61979389  0.45428416  0.12104684  1  0  0.089902  0  0.961535  0  0  0.097022  0  1.028654  0  0  0.099497  0  1.026228  0  0.098049  0  0.126207  0.094997  0  1.0309  0
H  H21  1  0.88021460  0.54572048  0.62104632  1  0  0.089905  0  0.961616  0  0  0.097037  0  1.028699  0  0  0.099512  0  1.026271  0  0.098083  0  0.126232  0.095015  0  1.030938  0
H  H22  1  0.38021103  0.54572543  0.87895421  1  0  0.089901  0  0.961661  0  0  0.097017  0  1.028791  0  0  0.099491  0  1.026366  0  0.098256  0  0.126232  0.094993  0  1.031034  0
H  H23  1  0.11978959  0.45428317  0.37895368  1  0  0.089869  0  0.96164  0  0  0.096997  0  1.028722  0  0  0.099471  0  1.026293  0  0.098004  0  0.126225  0.094974  0  1.030961  0
H  H24  1  0.76149147  0.14540005  0.24455592  1  0  0.096569  0  0.911663  0  0  0.105741  0  0.967629  0  0  0.108854  0  0.965854  0  0.126737  0  0.126156  0.103436  0  0.969054  0
H  H25  1  0.73850774  0.85459963  0.74455539  1  0  0.096589  0  0.911607  0  0  0.105762  0  0.96757  0  0  0.108874  0  0.965797  0  0.126813  0  0.126148  0.103458  0  0.968996  0
H  H26  1  0.23850640  0.85460261  0.75544144  1  0  0.096668  0  0.911551  0  0  0.10583  0  0.967523  0  0  0.108943  0  0.965748  0  0.126661  0  0.126187  0.103527  0  0.968948  0
H  H27  1  0.26149497  0.14540204  0.25544514  1  0  0.096573  0  0.911698  0  0  0.105742  0  0.967663  0  0  0.108855  0  0.965888  0  0.126752  0  0.126155  0.103437  0  0.969087  0
H  H28  1  0.79806851  0.30058801  0.34919970  1  0  0.114515  0  0.971623  0  0  0.115079  0  1.044656  0  0  0.119765  0  1.040171  0  0.213539  0  0.123748  0.111319  0  1.048436  0
H  H29  1  0.70193354  0.69941465  0.84920022  1  0  0.1145  0  0.971656  0  0  0.11507  0  1.04469  0  0  0.119755  0  1.040206  0  0.213829  0  0.123753  0.111313  0  1.048466  0
H  H30  1  0.20193396  0.69941168  0.65079978  1  0  0.1145  0  0.971666  0  0  0.115072  0  1.044689  0  0  0.119756  0  1.040206  0  0.213555  0  0.123757  0.111317  0  1.048464  0
H  H31  1  0.29806953  0.30058999  0.15079978  1  0  0.114443  0  0.97152  0  0  0.115006  0  1.044564  0  0  0.119691  0  1.040079  0  0.213295  0  0.12371  0.111244  0  1.048348  0
C  C32  1  0.58115998  0.95132961  0.40918183  1  0  0.054094  0  3.741342  0  0  0.06701  0  3.978557  0  0  0.062081  0  3.999549  0  0.552119  0  0.121796  0.069774  0  3.964812  0
C  C33  1  0.91884059  0.04867107  0.90918077  1  0  0.054062  0  3.741421  0  0  0.06696  0  3.978644  0  0  0.062034  0  3.999637  0  0.552137  0  0.121782  0.069718  0  3.964907  0
C  C34  1  0.41883905  0.04866216  0.59081976  1  0  0.054058  0  3.741334  0  0  0.067037  0  3.978554  0  0  0.062094  0  3.999533  0  0.552763  0  0.121847  0.06979  0  3.96483  0
C  C35  1  0.08116224  0.95133159  0.09081923  1  0  0.05405  0  3.741315  0  0  0.066954  0  3.978559  0  0  0.062034  0  3.999527  0  0.552285  0  0.121775  0.069688  0  3.964856  0
C  C36  1  0.47061404  0.04870673  0.41443825  1  0  0.077231  0  3.639886  0  0  0.036576  0  3.89364  0  0  0.040932  0  3.912134  0  0.477164  0  0.060388  0.033845  0  3.881167  0
C  C37  1  0.02938933  0.95129394  0.91443825  1  0  0.077192  0  3.639661  0  0  0.036542  0  3.893435  0  0  0.040901  0  3.911933  0  0.47719  0  0.060384  0.033813  0  3.880964  0
C  C38  1  0.52939167  0.95128899  0.58556227  1  0  0.07737  0  3.639802  0  0  0.036673  0  3.893591  0  0  0.041046  0  3.91209  0  0.476607  0  0.060473  0.033945  0  3.881119  0
C  C39  1  0.97061214  0.04870773  0.08556175  1  0  0.077241  0  3.639931  0  0  0.036581  0  3.893708  0  0  0.040935  0  3.912199  0  0.477167  0  0.060363  0.033859  0  3.881243  0
C  C40  1  0.25102804  0.88612578  0.41813530  1  0  0.105978  0  3.608449  0  0  0.075707  0  3.857629  0  0  0.081279  0  3.871552  0  0.551431  0  0.068237  0.071746  0  3.848803  0
C  C41  1  0.24897310  0.11387688  0.91813424  1  0  0.106004  0  3.6084  0  0  0.075776  0  3.857565  0  0  0.081349  0  3.871488  0  0.551373  0  0.068255  0.071815  0  3.848739  0
C  C42  1  0.74897071  0.11387391  0.58186470  1  0  0.106  0  3.608457  0  0  0.075748  0  3.857606  0  0  0.081319  0  3.871534  0  0.551756  0  0.068246  0.07178  0  3.848787  0
C  C43  1  0.75102998  0.88612776  0.08186364  1  0  0.10609  0  3.608356  0  0  0.075802  0  3.85754  0  0  0.081373  0  3.871466  0  0.551483  0  0.068301  0.071837  0  3.848718  0
C  C44  1  0.36199169  0.78952656  0.41230534  1  0  0.124839  0  3.629107  0  0  0.09913  0  3.880435  0  0  0.100881  0  3.896701  0  0.504967  0  0.075483  0.097671  0  3.86969  0
C  C45  1  0.13800921  0.21047411  0.91230164  1  0  0.124808  0  3.629074  0  0  0.09907  0  3.880448  0  0  0.100821  0  3.896715  0  0.504961  0  0.075448  0.097611  0  3.869705  0
C  C46  1  0.63800510  0.21046718  0.58769889  1  0  0.124843  0  3.629198  0  0  0.099168  0  3.880476  0  0  0.100916  0  3.896745  0  0.50488  0  0.075467  0.097713  0  3.869732  0
C  C47  1  0.86199511  0.78953053  0.08769624  1  0  0.124835  0  3.629132  0  0  0.099158  0  3.880441  0  0  0.100908  0  3.896712  0  0.504944  0  0.075493  0.097703  0  3.869694  0
C  C48  1  0.76768512  0.98412072  0.40806013  1  0  0.628955  0  3.961592  0  0  0.574871  0  4.258706  0  0  0.609553  0  4.251464  0  1.631259  0  0.213375  0.551551  0  4.262686  0
C  C49  1  0.73231733  0.01587501  0.90806119  1  0  0.628966  0  3.961634  0  0  0.574906  0  4.258705  0  0  0.609577  0  4.251478  0  1.631792  0  0.213441  0.551588  0  4.262687  0
C  C50  1  0.23231666  0.01586312  0.59193881  1  0  0.629202  0  3.961334  0  0  0.574971  0  4.258662  0  0  0.609679  0  4.251375  0  1.631595  0  0.213445  0.551653  0  4.262648  0
C  C51  1  0.26768526  0.98412567  0.09193987  1  0  0.628941  0  3.961517  0  0  0.574837  0  4.258656  0  0  0.609525  0  4.251401  0  1.631774  0  0.213378  0.551524  0  4.262641  0
C  C52  1  0.66644735  0.50164965  0.23067746  1  0  0.052057  0  3.715812  0  0  0.059521  0  3.957533  0  0  0.056296  0  3.976074  0  0.507999  0  0.127779  0.061272  0  3.945534  0
C  C53  1  0.83355298  0.49834905  0.73067746  1  0  0.052139  0  3.715684  0  0  0.059568  0  3.957409  0  0  0.056342  0  3.975948  0  0.50796  0  0.127769  0.061317  0  3.945413  0
C  C54  1  0.33356316  0.49835499  0.76932201  1  0  0.052101  0  3.715645  0  0  0.059546  0  3.957387  0  0  0.056321  0  3.975928  0  0.507406  0  0.127757  0.061296  0  3.94539  0
C  C55  1  0.16643821  0.50164965  0.26932254  1  0  0.05214  0  3.715696  0  0  0.059576  0  3.957431  0  0  0.056352  0  3.975971  0  0.507782  0  0.127834  0.061326  0  3.945434  0
C  C56  1  0.65730947  0.41813499  0.17200256  1  0  0.102694  0  3.655129  0  0  0.064712  0  3.911545  0  0  0.069515  0  3.927505  0  0.556136  0  0.066705  0.061317  0  3.901587  0
C  C57  1  0.84269989  0.58186668  0.67200309  1  0  0.102651  0  3.655123  0  0  0.064672  0  3.911566  0  0  0.069478  0  3.927523  0  0.556494  0  0.0667  0.061277  0  3.901609  0
C  C58  1  0.34269856  0.58186965  0.82799744  1  0  0.102612  0  3.65518  0  0  0.064608  0  3.911647  0  0  0.069412  0  3.927606  0  0.556325  0  0.066654  0.061212  0  3.90169  0
C  C59  1  0.15730542  0.41813598  0.32799850  1  0  0.102618  0  3.655137  0  0  0.064678  0  3.911514  0  0  0.069485  0  3.927469  0  0.556426  0  0.066641  0.061281  0  3.901559  0
C  C60  1  0.73820292  0.24935629  0.23984924  1  0  0.076594  0  3.665496  0  0  0.047682  0  3.92144  0  0  0.051047  0  3.937902  0  0.483839  0  0.05827  0.045351  0  3.910566  0
C  C61  1  0.76180520  0.75064538  0.73985030  1  0  0.076585  0  3.665348  0  0  0.047682  0  3.921291  0  0  0.051045  0  3.937756  0  0.483736  0  0.058324  0.045347  0  3.910421  0
C  C62  1  0.26180375  0.75064736  0.76014917  1  0  0.076435  0  3.66541  0  0  0.047528  0  3.921373  0  0  0.050892  0  3.937834  0  0.484206  0  0.058281  0.045195  0  3.910501  0
C  C63  1  0.23820099  0.24935431  0.26015234  1  0  0.076608  0  3.665507  0  0  0.047707  0  3.921425  0  0  0.051072  0  3.937887  0  0.483895  0  0.058309  0.045375  0  3.910549  0
C  C64  1  0.75738068  0.33458268  0.29795325  1  0  0.089609  0  3.656746  0  0  0.063058  0  3.914963  0  0  0.064224  0  3.931883  0  0.442747  0  0.060833  0.062151  0  3.904072  0
C  C65  1  0.74262237  0.66541800  0.79795378  1  0  0.08961  0  3.656764  0  0  0.063055  0  3.914965  0  0  0.064221  0  3.931884  0  0.442479  0  0.060788  0.062147  0  3.90407  0
C  C66  1  0.24262303  0.66541701  0.70204569  1  0  0.089617  0  3.656741  0  0  0.063063  0  3.914941  0  0  0.064228  0  3.931862  0  0.442608  0  0.060763  0.062149  0  3.904055  0
C  C67  1  0.25737750  0.33458070  0.20204781  1  0  0.089661  0  3.65666  0  0  0.063132  0  3.914841  0  0  0.064298  0  3.931762  0  0.443024  0  0.060883  0.062227  0  3.903947  0
C  C68  1  0.60650549  0.63848814  0.22758989  1  0  0.682427  0  3.901268  0  0  0.632788  0  4.198881  0  0  0.667724  0  4.188387  0  1.63861  0  0.23332  0.609193  0  4.205015  0
C  C69  1  0.89349632  0.36151254  0.72759147  1  0  0.682336  0  3.901386  0  0  0.632767  0  4.198884  0  0  0.667705  0  4.188385  0  1.638033  0  0.233287  0.609172  0  4.205024  0
C  C70  1  0.39349782  0.36151848  0.77241381  1  0  0.682504  0  3.901293  0  0  0.6329  0  4.198828  0  0  0.667837  0  4.188326  0  1.639046  0  0.233406  0.609305  0  4.204971  0
C  C71  1  0.10649748  0.63848715  0.27241328  1  0  0.682447  0  3.90137  0  0  0.632814  0  4.198982  0  0  0.667751  0  4.188482  0  1.638638  0  0.233367  0.609219  0  4.205121  0
C  C72  1  0.95663440  0.43224478  0.48718138  1  0  0.541996  0  3.944016  0  0  0.497817  0  4.242108  0  0  0.527845  0  4.232821  0  1.590501  0  0.208748  0.477351  0  4.247765  0
C  C73  1  0.54335573  0.56776184  0.98718773  1  0  0.541668  0  3.944249  0  0  0.497376  0  4.242529  0  0  0.527412  0  4.233234  0  1.567594  0  0.208594  0.476911  0  4.248177  0
C  C74  1  0.04335144  0.56776085  0.51281069  1  0  0.541515  0  3.944534  0  0  0.497181  0  4.242838  0  0  0.527223  0  4.233536  0  1.56781  0  0.208488  0.476717  0  4.248484  0
C  C75  1  0.45663543  0.43224677  0.01281386  1  0  0.541885  0  3.944177  0  0  0.497613  0  4.242386  0  0  0.527648  0  4.233088  0  1.591584  0  0.20864  0.477148  0  4.24804  0
C  C76  1  0.54323364  0.53801873  0.53197359  1  0  0.559645  0  3.923498  0  0  0.519429  0  4.217191  0  0  0.549414  0  4.208063  0  1.575683  0  0.209671  0.499357  0  4.222027  0
C  C77  1  0.95677192  0.46197204  0.03198152  1  0  0.559707  0  3.923392  0  0  0.519442  0  4.217074  0  0  0.549429  0  4.207939  0  1.576203  0  0.209618  0.49937  0  4.221913  0
C  C78  1  0.45676010  0.46196015  0.46801795  1  0  0.559917  0  3.923106  0  0  0.519505  0  4.217022  0  0  0.549497  0  4.207882  0  1.599805  0  0.209696  0.49943  0  4.221866  0
C  C79  1  0.04323251  0.53803359  0.96802429  1  0  0.559576  0  3.923518  0  0  0.51931  0  4.217199  0  0  0.549299  0  4.208064  0  1.599521  0  0.209646  0.499239  0  4.222039  0
N  N80  1  0.52610310  0.82175008  0.40848143  1  0  -0.337777  0  3.23098  0  0  -0.289279  0  3.48417  0  0  -0.297163  0  3.502284  0  -1.216898  0  -0.336598  -0.283571  0  3.472004  0
N  N81  1  0.97389735  0.17824961  0.90848143  1  0  -0.337695  0  3.230963  0  0  -0.289159  0  3.484152  0  0  -0.297041  0  3.502269  0  -1.216859  0  -0.336527  -0.28345  0  3.471989  0
N  N82  1  0.47389680  0.17823872  0.59152016  1  0  -0.337855  0  3.231049  0  0  -0.289363  0  3.484207  0  0  -0.297243  0  3.502325  0  -1.216946  0  -0.336633  -0.283654  0  3.472048  0
N  N83  1  0.02610661  0.82175206  0.09151963  1  0  -0.337769  0  3.230921  0  0  -0.289253  0  3.48409  0  0  -0.29714  0  3.502205  0  -1.216987  0  -0.336551  -0.283536  0  3.471934  0
N  N84  1  0.30549594  0.01550255  0.41955460  1  0  -0.267839  0  3.275206  0  0  -0.196219  0  3.566875  0  0  -0.211459  0  3.581099  0  -1.202242  0  -0.314934  -0.186132  0  3.557242  0
N  N85  1  0.19450891  0.98450011  0.91955354  1  0  -0.267764  0  3.274887  0  0  -0.196186  0  3.566584  0  0  -0.211427  0  3.580806  0  -1.202236  0  -0.314917  -0.186098  0  3.556951  0
N  N86  1  0.69451013  0.98449615  0.58044699  1  0  -0.267895  0  3.275102  0  0  -0.196308  0  3.56684  0  0  -0.211553  0  3.581058  0  -1.202324  0  -0.314937  -0.186216  0  3.557208  0
N  N87  1  0.80549540  0.01550453  0.08044487  1  0  -0.267879  0  3.275154  0  0  -0.196251  0  3.566824  0  0  -0.211491  0  3.581049  0  -1.202302  0  -0.31495  -0.186161  0  3.557192  0
N  N88  1  0.72271430  0.46101316  0.29302984  1  0  -0.332133  0  3.215056  0  0  -0.282422  0  3.467767  0  0  -0.290635  0  3.486049  0  -1.210023  0  -0.335109  -0.276747  0  3.45582  0
N  N89  1  0.77728875  0.53898752  0.79303037  1  0  -0.332131  0  3.21508  0  0  -0.282399  0  3.467792  0  0  -0.290611  0  3.486073  0  -1.210003  0  -0.335073  -0.276725  0  3.455847  0
N  N90  1  0.27728953  0.53898752  0.70697016  1  0  -0.332037  0  3.215001  0  0  -0.282302  0  3.467697  0  0  -0.290514  0  3.485978  0  -1.209298  0  -0.335029  -0.276627  0  3.455752  0
N  N91  1  0.22271236  0.46101118  0.20697174  1  0  -0.332138  0  3.215098  0  0  -0.282415  0  3.467802  0  0  -0.290628  0  3.486084  0  -1.209802  0  -0.335128  -0.27674  0  3.455855  0
N  N92  1  0.69118444  0.29180158  0.17639049  1  0  -0.252691  0  3.229409  0  0  -0.191859  0  3.521058  0  0  -0.203398  0  3.53218  0  -1.172603  0  -0.307556  -0.184365  0  3.514105  0
N  N93  1  0.80881985  0.70819910  0.67639049  1  0  -0.252705  0  3.229418  0  0  -0.191894  0  3.521109  0  0  -0.203436  0  3.532232  0  -1.172934  0  -0.307603  -0.184399  0  3.514157  0
N  N94  1  0.30881603  0.70820207  0.82360845  1  0  -0.252671  0  3.229553  0  0  -0.191836  0  3.521222  0  0  -0.203376  0  3.532344  0  -1.173323  0  -0.30759  -0.184342  0  3.514269  0
N  N95  1  0.19118658  0.29180257  0.32361110  1  0  -0.25266  0  3.22946  0  0  -0.191863  0  3.521119  0  0  -0.203404  0  3.53224  0  -1.172945  0  -0.307591  -0.184369  0  3.514167  0
O  O96  1  0.85517012  0.88600394  0.40934147  1  0  -0.71051  0  2.06282  0  0  -0.655443  0  2.33077  0  0  -0.679407  0  2.314654  0  -1.195304  0  -0.38326  -0.638368  0  2.34116  0
O  O97  1  0.64482885  0.11399377  0.90934252  1  0  -0.710524  0  2.06271  0  0  -0.655437  0  2.330655  0  0  -0.679396  0  2.314542  0  -1.19579  0  -0.383277  -0.638361  0  2.341045  0
O  O98  1  0.14482731  0.11398485  0.59066012  1  0  -0.710717  0  2.062477  0  0  -0.655586  0  2.330537  0  0  -0.679557  0  2.3144  0  -1.195645  0  -0.383377  -0.638509  0  2.340931  0
O  O99  1  0.35517274  0.88600889  0.09065800  1  0  -0.710526  0  2.062729  0  0  -0.655425  0  2.330694  0  0  -0.679394  0  2.314576  0  -1.195796  0  -0.38325  -0.638346  0  2.341081  0
O  O100  1  0.82106983  0.10516673  0.40783019  1  0  -0.587408  0  2.054327  0  0  -0.524241  0  2.321184  0  0  -0.552923  0  2.309701  0  -1.130539  0  -0.307359  -0.504094  0  2.328323  0
O  O101  1  0.67893546  0.89483197  0.90783019  1  0  -0.587409  0  2.054498  0  0  -0.524271  0  2.321362  0  0  -0.55295  0  2.30988  0  -1.130585  0  -0.307412  -0.504124  0  2.3285  0
O  O102  1  0.17894135  0.89482306  0.59216822  1  0  -0.587429  0  2.05452  0  0  -0.524217  0  2.321449  0  0  -0.552906  0  2.309947  0  -1.130884  0  -0.307316  -0.504078  0  2.328606  0
O  O103  1  0.32106973  0.10516970  0.09216505  1  0  -0.587347  0  2.054325  0  0  -0.52417  0  2.321175  0  0  -0.552855  0  2.309689  0  -1.130635  0  -0.307358  -0.504027  0  2.328324  0
O  O104  1  0.64434462  0.71470323  0.27924812  1  0  -0.676241  0  1.969376  0  0  -0.628484  0  2.205141  0  0  -0.651585  0  2.193828  0  -1.177351  0  -0.373011  -0.612089  0  2.212204  0
O  O105  1  0.85565619  0.28529943  0.77925023  1  0  -0.676256  0  1.969391  0  0  -0.628509  0  2.20513  0  0  -0.651608  0  2.193816  0  -1.176857  0  -0.373013  -0.612117  0  2.212196  0
O  O106  1  0.35565697  0.28529943  0.72075241  1  0  -0.676288  0  1.969265  0  0  -0.62853  0  2.205006  0  0  -0.651632  0  2.193694  0  -1.177218  0  -0.373003  -0.612136  0  2.212071  0
O  O107  1  0.14433301  0.71470323  0.22075136  1  0  -0.676255  0  1.969287  0  0  -0.628491  0  2.205052  0  0  -0.651593  0  2.19374  0  -1.177286  0  -0.373037  -0.612095  0  2.212115  0
O  O108  1  0.52040763  0.66399454  0.17410217  1  0  -0.719598  0  2.030523  0  0  -0.667166  0  2.292062  0  0  -0.693559  0  2.281819  0  -1.203966  0  -0.383156  -0.648217  0  2.298453  0
O  O109  1  0.97959590  0.33601010  0.67410323  1  0  -0.719536  0  2.030564  0  0  -0.667138  0  2.292078  0  0  -0.693537  0  2.281839  0  -1.203981  0  -0.383131  -0.648177  0  2.298438  0
O  O110  1  0.47959641  0.33601803  0.82589836  1  0  -0.719684  0  2.03076  0  0  -0.667263  0  2.292304  0  0  -0.693663  0  2.282073  0  -1.204587  0  -0.38324  -0.648303  0  2.298669  0
O  O111  1  0.02039913  0.66398959  0.32589730  1  0  -0.719645  0  2.03074  0  0  -0.667228  0  2.292258  0  0  -0.69363  0  2.282034  0  -1.204172  0  -0.383206  -0.648268  0  2.29862  0
O  O112  1  0.84184955  0.43613379  0.44196735  1  0  -0.650654  0  2.084177  0  0  -0.602424  0  2.338055  0  0  -0.625747  0  2.329783  0  -1.185032  0  -0.362702  -0.58597  0  2.343258  0
O  O113  1  0.65814938  0.56387382  0.94196894  1  0  -0.650558  0  2.083865  0  0  -0.602305  0  2.337811  0  0  -0.625633  0  2.329539  0  -1.185369  0  -0.362666  -0.585849  0  2.34301  0
O  O114  1  0.15814744  0.56387184  0.55803212  1  0  -0.650578  0  2.083921  0  0  -0.602299  0  2.337837  0  0  -0.625628  0  2.329558  0  -1.18552  0  -0.362639  -0.585841  0  2.343036  0
O  O115  1  0.34184934  0.43613578  0.05802947  1  0  -0.650553  0  2.083991  0  0  -0.602364  0  2.338059  0  0  -0.625689  0  2.329784  0  -1.185761  0  -0.362672  -0.585898  0  2.343235  0
O  O116  1  0.00962227  0.32895322  0.51325366  1  0  -0.648086  0  2.12533  0  0  -0.584189  0  2.390262  0  0  -0.608707  0  2.37932  0  -1.168558  0  -0.353766  -0.567075  0  2.397226  0
O  O117  1  0.49037119  0.67104746  0.01325577  1  0  -0.647863  0  2.125607  0  0  -0.583856  0  2.390471  0  0  -0.60837  0  2.379529  0  -1.168788  0  -0.353655  -0.566741  0  2.397428  0
O  O118  1  0.99036844  0.67104151  0.48674317  1  0  -0.647742  0  2.125873  0  0  -0.583749  0  2.390752  0  0  -0.608273  0  2.379817  0  -1.168736  0  -0.353574  -0.566633  0  2.397706  0
O  O119  1  0.50962693  0.32895718  0.98674529  1  0  -0.64801  0  2.125494  0  0  -0.584024  0  2.390391  0  0  -0.608543  0  2.37945  0  -1.168757  0  -0.353681  -0.566908  0  2.397348  0
O  O120  1  0.64631714  0.63640495  0.51735773  1  0  -0.67626  0  2.093802  0  0  -0.627097  0  2.355346  0  0  -0.651656  0  2.346904  0  -1.185604  0  -0.37113  -0.609798  0  2.360164  0
O  O121  1  0.85367727  0.36358582  0.01736248  1  0  -0.676269  0  2.093368  0  0  -0.62712  0  2.355006  0  0  -0.651681  0  2.346565  0  -1.185588  0  -0.371164  -0.609817  0  2.359816  0
O  O122  1  0.35366198  0.36357592  0.48264174  1  0  -0.676497  0  2.09342  0  0  -0.627307  0  2.355146  0  0  -0.651866  0  2.346686  0  -1.18572  0  -0.371268  -0.610001  0  2.359957  0
O  O123  1  0.14632208  0.63641882  0.98263910  1  0  -0.676219  0  2.093726  0  0  -0.627065  0  2.355342  0  0  -0.651625  0  2.346898  0  -1.185678  0  -0.371149  -0.609767  0  2.36016  0
O  O124  1  0.50499641  0.49440555  0.59320851  1  0  -0.658842  0  2.044164  0  0  -0.613395  0  2.289251  0  0  -0.636833  0  2.282709  0  -1.180194  0  -0.375678  -0.596646  0  2.293049  0
O  O125  1  0.99499848  0.50558918  0.09321221  1  0  -0.658859  0  2.04436  0  0  -0.613398  0  2.289437  0  0  -0.636832  0  2.28289  0  -1.180471  0  -0.375718  -0.596651  0  2.293238  0
O  O126  1  0.49498194  0.50557928  0.40678726  1  0  -0.658858  0  2.044222  0  0  -0.613393  0  2.289445  0  0  -0.636829  0  2.282894  0  -1.180711  0  -0.37571  -0.596644  0  2.293247  0
O  O127  1  0.00499716  0.49441546  0.90679149  1  0  -0.658827  0  2.044224  0  0  -0.613361  0  2.289295  0  0  -0.636798  0  2.282752  0  -1.180548  0  -0.375706  -0.596603  0  2.293073  0
