# generated using pymatgen
data_GaAsH4C5NO4
_symmetry_space_group_name_H-M   'P 1'
_cell_length_a   5.12797570
_cell_length_b   5.96169002
_cell_length_c   11.63767152
_cell_angle_alpha   79.77456588
_cell_angle_beta   87.99458940
_cell_angle_gamma   88.92149588
_symmetry_Int_Tables_number   1
_chemical_formula_structural   GaAsH4C5NO4
_chemical_formula_sum   'Ga2 As2 H8 C10 N2 O8'
_cell_volume   349.88583397
_cell_formula_units_Z   2
loop_
 _symmetry_equiv_pos_site_id
 _symmetry_equiv_pos_as_xyz
  1  'x, y, z'
loop_
 _atom_site_type_symbol
 _atom_site_label
 _atom_site_symmetry_multiplicity
 _atom_site_fract_x
 _atom_site_fract_y
 _atom_site_fract_z
 _atom_site_occupancy
 _atom_site_hle17_bader_spin_density
 _atom_site_hle17_ddec_charge
 _atom_site_hle17_ddec_spin_density
 _atom_site_hle17_ddec_sum_bond_order
 _atom_site_hle17_magmom
 _atom_site_hse06_10hf_bader_spin_density
 _atom_site_hse06_10hf_ddec_charge
 _atom_site_hse06_10hf_ddec_spin_density
 _atom_site_hse06_10hf_ddec_sum_bond_order
 _atom_site_hse06_10hf_magmom
 _atom_site_hse06_bader_spin_density
 _atom_site_hse06_ddec_charge
 _atom_site_hse06_ddec_spin_density
 _atom_site_hse06_ddec_sum_bond_order
 _atom_site_hse06_magmom
 _atom_site_pbe_bader_spin_density
 _atom_site_pbe_cm5_charge
 _atom_site_pbe_ddec_charge
 _atom_site_pbe_ddec_spin_density
 _atom_site_pbe_ddec_sum_bond_order
 _atom_site_pbe_magmom
Ga  Ga0  1  0.66531083  0.79180876  0.89051967  1  0  1.597251  0  2.398261  0  0  1.433405  0  2.860806  0  0  1.491761  0  2.802851  0  0  0.577823  1.391861  0  2.900987  0
Ga  Ga1  1  0.33468681  0.20818667  0.10948150  1  0  1.597146  0  2.398338  0  0  1.433314  0  2.86088  0  0  1.491669  0  2.802933  0  0  0.577776  1.391768  0  2.901061  0
As  As2  1  0.14167762  0.72397182  0.07660132  1  0  1.850023  0  4.056859  0  0  1.773127  0  4.530944  0  0  1.835794  0  4.481664  0  0  0.721516  1.728562  0  4.565443  0
As  As3  1  0.85831794  0.27603043  0.92340011  1  0  1.850013  0  4.056877  0  0  1.773133  0  4.530953  0  0  1.835794  0  4.481686  0  0  0.721518  1.728567  0  4.565452  0
H  H4  1  0.29810841  0.55141468  0.76539378  1  0  0.097474  0  0.948029  0  0  0.10066  0  1.019066  0  0  0.103509  0  1.015798  0  0  0.126205  0.098369  0  1.021748  0
H  H5  1  0.70187728  0.44859436  0.23460628  1  0  0.097459  0  0.948009  0  0  0.100691  0  1.019003  0  0  0.103531  0  1.015754  0  0  0.126211  0.0984  0  1.021686  0
H  H6  1  0.26916380  0.31072944  0.52118268  1  0  0.096159  0  0.963067  0  0  0.10843  0  1.02162  0  0  0.111034  0  1.021785  0  0  0.10496  0.106564  0  1.021611  0
H  H7  1  0.73085125  0.68927796  0.47881375  1  0  0.096225  0  0.963076  0  0  0.108468  0  1.021647  0  0  0.111094  0  1.021785  0  0  0.105013  0.106608  0  1.02163  0
H  H8  1  0.97493012  0.62239853  0.61067518  1  0  0.108766  0  0.95331  0  0  0.1196  0  1.012632  0  0  0.122988  0  1.011118  0  0  0.109146  0.117176  0  1.013845  0
H  H9  1  0.02505341  0.37761563  0.38933132  1  0  0.108772  0  0.953222  0  0  0.119532  0  1.012637  0  0  0.122916  0  1.011133  0  0  0.109125  0.117107  0  1.013851  0
H  H10  1  0.57431591  0.20760043  0.68436727  1  0  0.092788  0  0.942937  0  0  0.098465  0  1.008949  0  0  0.101493  0  1.005823  0  0  0.121335  0.096024  0  1.011522  0
H  H11  1  0.42570126  0.79239504  0.31563280  1  0  0.092775  0  0.94297  0  0  0.098428  0  1.009001  0  0  0.101454  0  1.005876  0  0  0.121321  0.095999  0  1.011558  0
C  C12  1  0.28735269  0.71538562  0.70688422  1  0  0.154291  0  3.659908  0  0  0.120204  0  3.914551  0  0  0.128217  0  3.931063  0  0  0.065881  0.114927  0  3.903589  0
C  C13  1  0.71263896  0.28461832  0.29311538  1  0  0.154199  0  3.659799  0  0  0.120076  0  3.914443  0  0  0.128086  0  3.930953  0  0  0.065857  0.114799  0  3.903479  0
C  C14  1  0.10768872  0.75830894  0.61894582  1  0  -0.15244  0  3.687635  0  0  -0.173323  0  3.941531  0  0  -0.180963  0  3.961947  0  0  -0.077526  -0.168423  0  3.927892  0
C  C15  1  0.89230278  0.24170352  0.38105301  1  0  -0.152365  0  3.687422  0  0  -0.173161  0  3.941322  0  0  -0.180797  0  3.961731  0  0  -0.077533  -0.16826  0  3.927679  0
C  C16  1  0.09395009  0.97415511  0.54759921  1  0  0.09338  0  3.751684  0  0  0.104268  0  3.98411  0  0  0.10832  0  4.005838  0  0  0.013612  0.101779  0  3.969099  0
C  C17  1  0.90605713  0.02585227  0.45239903  1  0  0.093439  0  3.751659  0  0  0.104295  0  3.984096  0  0  0.108346  0  4.005828  0  0  0.013681  0.101803  0  3.969085  0
C  C18  1  0.26627421  0.13879420  0.57192463  1  0  -0.155012  0  3.708718  0  0  -0.175647  0  3.960748  0  0  -0.183685  0  3.982979  0  0  -0.081047  -0.170342  0  3.945636  0
C  C19  1  0.73373104  0.86121318  0.42807450  1  0  -0.155126  0  3.708898  0  0  -0.175757  0  3.960938  0  0  -0.183813  0  3.983163  0  0  -0.081126  -0.17046  0  3.945832  0
C  C20  1  0.43979944  0.08388177  0.66195782  1  0  0.14177  0  3.68186  0  0  0.107875  0  3.937908  0  0  0.115456  0  3.955505  0  0  0.05986  0.102986  0  3.926003  0
C  C21  1  0.56020985  0.91611710  0.33804289  1  0  0.141777  0  3.681835  0  0  0.107965  0  3.937818  0  0  0.115546  0  3.955421  0  0  0.059899  0.103069  0  3.925907  0
N  N22  1  0.45264778  0.87486592  0.72762001  1  0  -0.297776  0  3.22531  0  0  -0.220086  0  3.472723  0  0  -0.239783  0  3.49225  0  0  -0.276905  -0.206913  0  3.459433  0
N  N23  1  0.54734587  0.12513632  0.27237886  1  0  -0.29775  0  3.225277  0  0  -0.220117  0  3.472734  0  0  -0.239814  0  3.49226  0  0  -0.276932  -0.206943  0  3.459445  0
O  O24  1  0.82298679  0.69560242  0.04293474  1  0  -0.924204  0  1.818305  0  0  -0.873645  0  2.109474  0  0  -0.903484  0  2.085052  0  0  -0.36772  -0.852419  0  2.126021  0
O  O25  1  0.17701310  0.30437937  0.95706421  1  0  -0.924191  0  1.818386  0  0  -0.873592  0  2.109453  0  0  -0.903477  0  2.085132  0  0  -0.367716  -0.852367  0  2.126003  0
O  O26  1  0.32164410  0.80113446  0.95024079  1  0  -0.924609  0  1.921458  0  0  -0.867198  0  2.223852  0  0  -0.896611  0  2.198411  0  0  -0.362313  -0.846094  0  2.241071  0
O  O27  1  0.67834608  0.19884220  0.04976132  1  0  -0.924536  0  1.921359  0  0  -0.867149  0  2.223783  0  0  -0.89656  0  2.198345  0  0  -0.362306  -0.846046  0  2.241004  0
O  O28  1  0.16075498  0.93093079  0.16253187  1  0  -0.88693  0  1.777237  0  0  -0.825842  0  2.057499  0  0  -0.854508  0  2.03405  0  0  -0.36893  -0.805091  0  2.073782  0
O  O29  1  0.83925257  0.06905614  0.83746996  1  0  -0.886918  0  1.777091  0  0  -0.82586  0  2.057396  0  0  -0.854527  0  2.033945  0  0  -0.368949  -0.80511  0  2.073681  0
O  O30  1  0.24228251  0.47901191  0.16761908  1  0  -0.890912  0  1.778115  0  0  -0.83028  0  2.063269  0  0  -0.859496  0  2.039769  0  0  -0.365881  -0.808953  0  2.079455  0
O  O31  1  0.75771518  0.52098011  0.83238326  1  0  -0.890938  0  1.778206  0  0  -0.830279  0  2.063333  0  0  -0.859491  0  2.039827  0  0  -0.365855  -0.808948  0  2.079508  0
