# generated using pymatgen
data_CdH12C14IN4ClO4
_symmetry_space_group_name_H-M   'P 1'
_cell_length_a   9.22535468
_cell_length_b   14.00919181
_cell_length_c   16.48277834
_cell_angle_alpha   92.12851897
_cell_angle_beta   90.03532012
_cell_angle_gamma   109.15653207
_symmetry_Int_Tables_number   1
_chemical_formula_structural   CdH12C14IN4ClO4
_chemical_formula_sum   'Cd4 H48 C56 I4 N16 Cl4 O16'
_cell_volume   2010.69672873
_cell_formula_units_Z   4
loop_
 _symmetry_equiv_pos_site_id
 _symmetry_equiv_pos_as_xyz
  1  'x, y, z'
loop_
 _atom_site_type_symbol
 _atom_site_label
 _atom_site_symmetry_multiplicity
 _atom_site_fract_x
 _atom_site_fract_y
 _atom_site_fract_z
 _atom_site_occupancy
 _atom_site_pbe_bader_charge
 _atom_site_pbe_bader_spin_density
 _atom_site_pbe_cm5_charge
 _atom_site_pbe_ddec_charge
 _atom_site_pbe_ddec_spin_density
 _atom_site_pbe_ddec_sum_bond_order
 _atom_site_pbe_magmom
Cd  Cd0  1  0.55627124  0.37848634  0.01031208  1  1.035172  0  0.562234  0.744585  0  2.407531  0
Cd  Cd1  1  0.17777190  0.62152146  0.49030733  1  1.033146  0  0.562605  0.745263  0  2.40587  0
Cd  Cd2  1  0.44372463  0.62151097  0.98968445  1  1.035124  0  0.562307  0.744695  0  2.407455  0
Cd  Cd3  1  0.82222011  0.37848113  0.50969005  1  1.033288  0  0.562622  0.745326  0  2.405919  0
H  H4  1  0.07128454  0.38018545  0.85399990  1  0.520572  0  0.332362  0.301846  0  0.909446  0
H  H5  1  0.69213832  0.61962571  0.64569511  1  0.491963  0  0.33176  0.301216  0  0.910423  0
H  H6  1  0.92870900  0.61980934  0.14600804  1  0.520992  0  0.332343  0.301744  0  0.909403  0
H  H7  1  0.30784458  0.38037167  0.35429839  1  0.491731  0  0.331729  0.301228  0  0.910317  0
H  H8  1  0.61484897  0.12164440  0.79045049  1  0.660172  0  0.308733  0.354717  0  0.982761  0
H  H9  1  0.49368172  0.87820534  0.70999369  1  0.660689  0  0.308368  0.355337  0  0.981375  0
H  H10  1  0.38516901  0.87835595  0.20954497  1  0.659968  0  0.308698  0.354758  0  0.98284  0
H  H11  1  0.50633163  0.12179659  0.28999881  1  0.660598  0  0.308317  0.355186  0  0.981493  0
H  H12  1  0.08559163  0.22697986  0.81288569  1  0.616612  0  0.33573  0.361914  0  0.896694  0
H  H13  1  0.85884388  0.77211566  0.68701678  1  0.63034  0  0.336282  0.362123  0  0.895287  0
H  H14  1  0.91442065  0.77303945  0.18710820  1  0.616636  0  0.335736  0.361799  0  0.897008  0
H  H15  1  0.14115026  0.22788252  0.31297433  1  0.630127  0  0.336281  0.362171  0  0.895214  0
H  H16  1  0.90354253  0.55718432  0.95979284  1  0.085242  0  0.100183  0.131287  0  0.992076  0
H  H17  1  0.34684123  0.44281869  0.54039737  1  0.103106  0  0.100346  0.131651  0  0.991681  0
H  H18  1  0.09647134  0.44281428  0.04021346  1  0.084905  0  0.100198  0.131287  0  0.991929  0
H  H19  1  0.65314272  0.55717862  0.45959916  1  0.103243  0  0.100334  0.131624  0  0.991734  0
H  H20  1  0.08012598  0.54881662  0.92200748  1  0.110689  0  0.086425  0.10552  0  1.048339  0
H  H21  1  0.53199892  0.45091039  0.57778946  1  0.083885  0  0.086117  0.105881  0  1.048972  0
H  H22  1  0.91987520  0.45118044  0.07800057  1  0.11082  0  0.086394  0.105527  0  1.048289  0
H  H23  1  0.46798583  0.54909071  0.42220724  1  0.083661  0  0.086178  0.105879  0  1.049021  0
H  H24  1  0.24697987  0.13741611  0.90854788  1  0.506936  0  0.304537  0.287944  0  0.987372  0
H  H25  1  0.10960751  0.86298135  0.59102163  1  0.513866  0  0.304813  0.287869  0  0.986578  0
H  H26  1  0.75302326  0.86258488  0.09145307  1  0.506975  0  0.304531  0.28789  0  0.987454  0
H  H27  1  0.89038681  0.13701502  0.40898335  1  0.513875  0  0.304799  0.287855  0  0.986614  0
H  H28  1  0.63466351  0.96493827  0.92954066  1  0.055843  0  0.100913  0.115636  0  1.00533  0
H  H29  1  0.66843205  0.03510641  0.57125047  1  0.085421  0  0.100688  0.115009  0  1.005603  0
H  H30  1  0.36533908  0.03506814  0.07045446  1  0.055778  0  0.100907  0.115631  0  1.005312  0
H  H31  1  0.33157190  0.96489841  0.42874883  1  0.085548  0  0.100726  0.115085  0  1.005588  0
H  H32  1  0.62077524  0.09437816  0.03687565  1  0.051274  0  0.090406  0.090659  0  1.030179  0
H  H33  1  0.52447701  0.90551605  0.46416329  1  0.051839  0  0.090609  0.091342  0  1.030946  0
H  H34  1  0.37922252  0.90562293  0.96312106  1  0.051252  0  0.090397  0.090656  0  1.030199  0
H  H35  1  0.47552540  0.09448565  0.53584012  1  0.0518  0  0.090607  0.091289  0  1.030964  0
H  H36  1  0.85325817  0.23010770  0.08418123  1  0.051427  0  0.078792  0.084418  0  1.048989  0
H  H37  1  0.62179056  0.77012135  0.41624445  1  0.061245  0  0.07865  0.084451  0  1.049869  0
H  H38  1  0.14674337  0.76989009  0.91582807  1  0.051395  0  0.078784  0.084354  0  1.049135  0
H  H39  1  0.37820418  0.22987800  0.58376248  1  0.061141  0  0.078598  0.084375  0  1.049967  0
H  H40  1  0.11071534  0.24522940  0.02703895  1  0.073353  0  0.088684  0.112351  0  1.025634  0
H  H41  1  0.86518286  0.75540891  0.47255135  1  0.037585  0  0.088656  0.111756  0  1.025786  0
H  H42  1  0.88929438  0.75476305  0.97297192  1  0.073672  0  0.088668  0.112301  0  1.025687  0
H  H43  1  0.13480711  0.24458742  0.52745545  1  0.037384  0  0.08863  0.111677  0  1.0258  0
H  H44  1  0.10530941  0.89332360  0.78347945  1  0.044361  0  0.100235  0.115716  0  0.983062  0
H  H45  1  0.21226523  0.10715080  0.71598962  1  0.035299  0  0.100216  0.116058  0  0.982869  0
H  H46  1  0.89467529  0.10667523  0.21651715  1  0.044592  0  0.100281  0.115831  0  0.982974  0
H  H47  1  0.78774405  0.89284949  0.28400887  1  0.035318  0  0.10022  0.116081  0  0.982866  0
H  H48  1  0.27514047  0.98768379  0.81911440  1  0.104005  0  0.097799  0.110707  0  1.010016  0
H  H49  1  0.28757831  0.01259535  0.68039731  1  0.088385  0  0.097766  0.111254  0  1.009193  0
H  H50  1  0.72485129  0.01230746  0.18088246  1  0.103957  0  0.097816  0.110804  0  1.009971  0
H  H51  1  0.71242691  0.98740114  0.31960222  1  0.08848  0  0.09781  0.111323  0  1.009215  0
C  C52  1  0.55413749  0.19929942  0.87665231  1  1.566139  0  0.240496  0.571977  0  4.143564  0
C  C53  1  0.35475805  0.80042517  0.62410493  1  1.575364  0  0.241089  0.573237  0  4.14347  0
C  C54  1  0.44586926  0.80069796  0.12334058  1  1.566513  0  0.240456  0.571953  0  4.144062  0
C  C55  1  0.64523617  0.19957969  0.37589255  1  1.575256  0  0.241161  0.573372  0  4.143532  0
C  C56  1  0.71209010  0.27115572  0.87880292  1  0.425131  0  0.09139  0.009244  0  4.011922  0
C  C57  1  0.44126162  0.72864835  0.62165676  1  0.451247  0  0.091446  0.008382  0  4.012339  0
C  C58  1  0.28792471  0.72884912  0.12119517  1  0.425012  0  0.091478  0.009395  0  4.012078  0
C  C59  1  0.55873426  0.27135115  0.37834351  1  0.451178  0  0.091454  0.008479  0  4.012383  0
C  C60  1  0.84687689  0.26707102  0.84306167  1  0.452806  0  0.091303  -0.021827  0  4.012327  0
C  C61  1  0.58047470  0.73274978  0.65706881  1  0.429629  0  0.091449  -0.021412  0  4.012278  0
C  C62  1  0.15315060  0.73293749  0.15694144  1  0.452832  0  0.091194  -0.02195  0  4.012289  0
C  C63  1  0.41952078  0.26724673  0.34292951  1  0.429669  0  0.091408  -0.021628  0  4.012443  0
C  C64  1  0.87081763  0.19148290  0.78572365  1  1.570408  0  0.246905  0.552845  0  4.144605  0
C  C65  1  0.68018555  0.80837491  0.71423481  1  1.557124  0  0.247973  0.554542  0  4.143557  0
C  C66  1  0.12917018  0.80850912  0.21427264  1  1.570028  0  0.247037  0.553207  0  4.144081  0
C  C67  1  0.31981993  0.19161559  0.28576141  1  1.557332  0  0.24802  0.554669  0  4.143903  0
C  C68  1  0.89163668  0.41187344  0.91505361  1  1.043066  0  0.246364  0.399706  0  3.900134  0
C  C69  1  0.48025337  0.58794894  0.58516550  1  1.033626  0  0.247201  0.400956  0  3.899325  0
C  C70  1  0.10837360  0.58812449  0.08494902  1  1.042131  0  0.246267  0.399654  0  3.899778  0
C  C71  1  0.51973173  0.41205066  0.41482991  1  1.03432  0  0.247101  0.400638  0  3.899428  0
C  C72  1  0.97706988  0.50939974  0.95652700  1  -0.011387  0  -0.154119  -0.242962  0  3.909866  0
C  C73  1  0.46806336  0.49050195  0.54352045  1  0.003095  0  -0.154156  -0.243896  0  3.910957  0
C  C74  1  0.02293027  0.49059527  0.04347064  1  -0.029114  0  -0.154089  -0.243027  0  3.909575  0
C  C75  1  0.53191952  0.50949757  0.45647921  1  -0.016425  0  -0.154213  -0.243776  0  3.911016  0
C  C76  1  0.87984737  0.03439961  0.91740810  1  0.404577  0  0.077278  0.137904  0  4.08871  0
C  C77  1  0.84506371  0.96607098  0.58254309  1  0.407919  0  0.077752  0.137953  0  4.090669  0
C  C78  1  0.12015617  0.96560437  0.08259481  1  0.404637  0  0.077318  0.137932  0  4.088792  0
C  C79  1  0.15493716  0.03392766  0.41746199  1  0.407688  0  0.077688  0.137936  0  4.090614  0
C  C80  1  0.73653352  0.02631468  0.95040911  1  -0.002981  0  -0.100713  -0.159539  0  3.987624  0
C  C81  1  0.70917962  0.97388836  0.55005257  1  -0.069153  0  -0.101398  -0.158964  0  3.986734  0
C  C82  1  0.26346644  0.97368866  0.04958830  1  -0.003166  0  -0.100751  -0.159579  0  3.987611  0
C  C83  1  0.29082203  0.02611184  0.44995016  1  -0.069047  0  -0.101424  -0.159084  0  3.986677  0
C  C84  1  0.73033526  0.09841071  0.00972504  1  -0.053668  0  -0.116333  -0.119855  0  4.073589  0
C  C85  1  0.63052186  0.90169696  0.49092329  1  -0.038929  0  -0.11683  -0.12255  0  4.075186  0
C  C86  1  0.26967049  0.90159336  0.99027362  1  -0.053428  0  -0.116341  -0.119903  0  4.073635  0
C  C87  1  0.36947691  0.09830397  0.50908069  1  -0.038941  0  -0.116785  -0.122382  0  4.075155  0
C  C88  1  0.86381357  0.17657275  0.03671285  1  -0.057793  0  -0.115425  -0.097791  0  4.057053  0
C  C89  1  0.68610906  0.82367337  0.46362480  1  -0.016224  0  -0.1155  -0.097036  0  4.058523  0
C  C90  1  0.13618946  0.82342586  0.96329344  1  -0.058052  0  -0.115361  -0.097647  0  4.057088  0
C  C91  1  0.31388926  0.17632447  0.53638207  1  -0.017363  0  -0.115489  -0.097099  0  4.058616  0
C  C92  1  0.00766786  0.18594473  0.00491882  1  -0.020633  0  -0.112999  -0.178461  0  4.025091  0
C  C93  1  0.82120618  0.81456742  0.49492334  1  0.001345  0  -0.113204  -0.178479  0  4.026114  0
C  C94  1  0.99234199  0.81405234  0.99508862  1  -0.020632  0  -0.113022  -0.178428  0  4.025068  0
C  C95  1  0.17878845  0.18542740  0.50508339  1  0.002612  0  -0.113192  -0.178337  0  4.025925  0
C  C96  1  0.01343083  0.11473702  0.94434697  1  0.306226  0  0.0774  0.119551  0  4.067232  0
C  C97  1  0.89857903  0.88586840  0.55533302  1  0.270475  0  0.077346  0.119789  0  4.070103  0
C  C98  1  0.98657915  0.88526465  0.05565764  1  0.306235  0  0.07745  0.119659  0  4.06723  0
C  C99  1  0.10141636  0.11412793  0.44467378  1  0.270516  0  0.077396  0.119866  0  4.069854  0
C  C100  1  0.06793672  0.01406256  0.84951892  1  0.997264  0  0.225567  0.372191  0  3.955061  0
C  C101  1  0.05406664  0.98653252  0.64998138  1  0.975312  0  0.225353  0.372094  0  3.957439  0
C  C102  1  0.93206467  0.98594145  0.15048277  1  0.996904  0  0.225528  0.372206  0  3.954907  0
C  C103  1  0.94593544  0.01346853  0.35001714  1  0.975149  0  0.225394  0.372171  0  3.957275  0
C  C104  1  0.16174511  0.97524058  0.79170561  1  -0.021473  0  -0.153305  -0.23459  0  3.916499  0
C  C105  1  0.18674227  0.02522532  0.70775393  1  0.029801  0  -0.152888  -0.236233  0  3.918611  0
C  C106  1  0.83824643  0.02475890  0.20829587  1  -0.021019  0  -0.153418  -0.2349  0  3.916663  0
C  C107  1  0.81325767  0.97477579  0.29224156  1  0.02975  0  -0.152927  -0.236298  0  3.91874  0
I  I108  1  0.64000677  0.34228231  0.16129835  1  -0.485857  0  -0.267876  -0.446225  0  1.274539  0
I  I109  1  0.29721968  0.65805072  0.33932228  1  -0.485241  0  -0.267279  -0.445676  0  1.275003  0
I  I110  1  0.35999131  0.65771724  0.83869950  1  -0.485872  0  -0.267881  -0.446223  0  1.274476  0
I  I111  1  0.70277346  0.34195415  0.66067459  1  -0.485311  0  -0.267305  -0.4457  0  1.27496  0
N  N112  1  0.95735537  0.35674483  0.86750452  1  -1.280874  0  -0.358834  -0.266319  0  3.61961  0
N  N113  1  0.60137386  0.64306201  0.63249668  1  -1.247176  0  -0.359334  -0.266985  0  3.619247  0
N  N114  1  0.04264989  0.64325607  0.13250067  1  -1.28088  0  -0.358738  -0.26622  0  3.61886  0
N  N115  1  0.39861444  0.35693531  0.36749925  1  -1.247298  0  -0.359168  -0.266723  0  3.619083  0
N  N116  1  0.74254514  0.36082624  0.92275478  1  -1.207913  0  -0.340131  -0.339771  0  3.425586  0
N  N117  1  0.38198083  0.63899782  0.57773897  1  -1.204803  0  -0.341204  -0.340509  0  3.426157  0
N  N118  1  0.25746387  0.63917784  0.07724327  1  -1.207338  0  -0.340153  -0.339863  0  3.425455  0
N  N119  1  0.61800895  0.36100248  0.42225952  1  -1.205096  0  -0.341244  -0.340561  0  3.426269  0
N  N120  1  0.13167030  0.10077291  0.89887515  1  -1.283057  0  -0.396997  -0.363536  0  3.575603  0
N  N121  1  0.03124793  0.89999264  0.60044648  1  -1.266104  0  -0.396563  -0.362277  0  3.577416  0
N  N122  1  0.86833675  0.89922725  0.10112940  1  -1.283291  0  -0.396949  -0.363521  0  3.575733  0
N  N123  1  0.96875194  0.10000833  0.39955568  1  -1.26575  0  -0.396584  -0.362372  0  3.577326  0
N  N124  1  0.91864047  0.97342897  0.85937667  1  -1.126935  0  -0.341635  -0.394454  0  3.189814  0
N  N125  1  0.94506352  0.02709033  0.64041904  1  -1.127966  0  -0.341933  -0.394827  0  3.191593  0
N  N126  1  0.08136063  0.02657663  0.14062145  1  -1.126997  0  -0.341612  -0.394467  0  3.189808  0
N  N127  1  0.05494151  0.97291447  0.35958087  1  -1.127987  0  -0.341943  -0.394863  0  3.191494  0
Cl  Cl128  1  0.32468863  0.41217097  0.95657830  1  -0.63908  0  -0.309753  -0.49545  0  1.287061  0
Cl  Cl129  1  0.91226141  0.58784302  0.54335035  1  -0.638005  0  -0.309851  -0.496015  0  1.286516  0
Cl  Cl130  1  0.67530398  0.58782198  0.04340954  1  -0.639085  0  -0.309724  -0.495446  0  1.287141  0
Cl  Cl131  1  0.08772480  0.41215664  0.45664265  1  -0.638106  0  -0.309864  -0.496048  0  1.286514  0
O  O132  1  0.45659847  0.21451944  0.92319252  1  -1.146402  0  -0.278994  -0.47356  0  2.22202  0
O  O133  1  0.24151531  0.78505802  0.57784146  1  -1.143892  0  -0.279442  -0.474006  0  2.222571  0
O  O134  1  0.54340729  0.78548463  0.07680614  1  -1.146655  0  -0.278923  -0.473491  0  2.222526  0
O  O135  1  0.75847624  0.21494366  0.42216316  1  -1.143967  0  -0.279481  -0.474076  0  2.22225  0
O  O136  1  0.51924620  0.12196471  0.82450506  1  -1.146046  0  -0.299002  -0.428101  0  2.311211  0
O  O137  1  0.39733125  0.87779865  0.67620552  1  -1.149198  0  -0.298556  -0.428419  0  2.310138  0
O  O138  1  0.48075442  0.87803560  0.17549221  1  -1.145636  0  -0.299066  -0.428208  0  2.311242  0
O  O139  1  0.60268953  0.12221380  0.32379048  1  -1.148894  0  -0.298511  -0.428309  0  2.310634  0
O  O140  1  0.01588472  0.20005233  0.76639439  1  -1.102277  0  -0.305631  -0.427457  0  2.317421  0
O  O141  1  0.81692417  0.79993918  0.73332825  1  -1.116561  0  -0.304742  -0.426  0  2.317396  0
O  O142  1  0.98412103  0.79995175  0.23360427  1  -1.102499  0  -0.305574  -0.427302  0  2.318074  0
O  O143  1  0.18307454  0.20005514  0.26666633  1  -1.116282  0  -0.30479  -0.426112  0  2.317105  0
O  O144  1  0.76167020  0.12611053  0.75190097  1  -1.092518  0  -0.232276  -0.390888  0  2.236523  0
O  O145  1  0.63638346  0.87377252  0.74817258  1  -1.092041  0  -0.233303  -0.392778  0  2.235526  0
O  O146  1  0.23834532  0.87389574  0.24810083  1  -1.092444  0  -0.232497  -0.391295  0  2.235696  0
O  O147  1  0.36361313  0.12622839  0.25183261  1  -1.092244  0  -0.233258  -0.392711  0  2.23625  0
