# generated using pymatgen
data_SrH14C12O5
_symmetry_space_group_name_H-M   'P 1'
_cell_length_a   7.17677423
_cell_length_b   11.73130191
_cell_length_c   14.60120984
_cell_angle_alpha   90.00001348
_cell_angle_beta   89.99992105
_cell_angle_gamma   89.99996671
_symmetry_Int_Tables_number   1
_chemical_formula_structural   SrH14C12O5
_chemical_formula_sum   'Sr4 H56 C48 O20'
_cell_volume   1229.31827565
_cell_formula_units_Z   4
loop_
 _symmetry_equiv_pos_site_id
 _symmetry_equiv_pos_as_xyz
  1  'x, y, z'
loop_
 _atom_site_type_symbol
 _atom_site_label
 _atom_site_symmetry_multiplicity
 _atom_site_fract_x
 _atom_site_fract_y
 _atom_site_fract_z
 _atom_site_occupancy
 _atom_site_hle17_bader_spin_density
 _atom_site_hle17_ddec_charge
 _atom_site_hle17_ddec_spin_density
 _atom_site_hle17_ddec_sum_bond_order
 _atom_site_hle17_magmom
 _atom_site_hse06_10hf_bader_spin_density
 _atom_site_hse06_10hf_ddec_charge
 _atom_site_hse06_10hf_ddec_spin_density
 _atom_site_hse06_10hf_ddec_sum_bond_order
 _atom_site_hse06_10hf_magmom
 _atom_site_hse06_bader_spin_density
 _atom_site_hse06_ddec_charge
 _atom_site_hse06_ddec_spin_density
 _atom_site_hse06_ddec_sum_bond_order
 _atom_site_hse06_magmom
 _atom_site_pbe_bader_spin_density
 _atom_site_pbe_cm5_charge
 _atom_site_pbe_ddec_charge
 _atom_site_pbe_ddec_spin_density
 _atom_site_pbe_ddec_sum_bond_order
 _atom_site_pbe_magmom
Sr  Sr0  1  0.06168644  0.06022690  0.01435907  1  0  1.60917  0  1.146652  0  0  1.466486  0  1.519772  0  0  1.504893  0  1.474479  0  0  0.976689  1.438404  0  1.551494  0
Sr  Sr1  1  0.56168506  0.93977298  0.98564151  1  0  1.609139  0  1.146701  0  0  1.466473  0  1.519774  0  0  1.504895  0  1.474456  0  0  0.976683  1.438391  0  1.551496  0
Sr  Sr2  1  0.56168387  0.43977292  0.01435962  1  0  1.609128  0  1.146712  0  0  1.466412  0  1.519868  0  0  1.504863  0  1.474514  0  0  0.976667  1.43833  0  1.551591  0
Sr  Sr3  1  0.06168484  0.56022610  0.98564233  1  0  1.609125  0  1.146699  0  0  1.466461  0  1.519762  0  0  1.504889  0  1.474448  0  0  0.976674  1.43838  0  1.551483  0
H  H4  1  0.49200993  0.54890921  0.38896149  1  0  0.078086  0  0.975006  0  0  0.089363  0  1.040915  0  0  0.091899  0  1.039927  0  0  0.093873  0.087507  0  1.041771  0
H  H5  1  0.99200868  0.45109051  0.61103811  1  0  0.0781  0  0.974994  0  0  0.089357  0  1.040917  0  0  0.091894  0  1.039928  0  0  0.093875  0.087502  0  1.041773  0
H  H6  1  0.99201015  0.95109210  0.38896204  1  0  0.078093  0  0.974985  0  0  0.089355  0  1.040909  0  0  0.091899  0  1.039911  0  0  0.093893  0.087501  0  1.041764  0
H  H7  1  0.49201125  0.04890847  0.61103756  1  0  0.078095  0  0.974964  0  0  0.089353  0  1.040897  0  0  0.091897  0  1.039899  0  0  0.093878  0.087498  0  1.041752  0
H  H8  1  0.54349942  0.53165709  0.55448406  1  0  0.088703  0  0.970839  0  0  0.100335  0  1.03178  0  0  0.102125  0  1.032922  0  0  0.095515  0.099063  0  1.031013  0
H  H9  1  0.04349641  0.46834364  0.44551654  1  0  0.088744  0  0.97082  0  0  0.100368  0  1.031768  0  0  0.102158  0  1.032909  0  0  0.095525  0.099089  0  1.031021  0
H  H10  1  0.04349741  0.96834443  0.55448358  1  0  0.088764  0  0.970788  0  0  0.100385  0  1.031739  0  0  0.102174  0  1.03288  0  0  0.095524  0.099109  0  1.030981  0
H  H11  1  0.54349841  0.03165715  0.44551701  1  0  0.088756  0  0.970816  0  0  0.100394  0  1.031742  0  0  0.10218  0  1.032898  0  0  0.095526  0.099122  0  1.030973  0
H  H12  1  0.30034577  0.19598595  0.54902771  1  0  0.08263  0  0.984133  0  0  0.092947  0  1.050246  0  0  0.094825  0  1.050694  0  0  0.094356  0.091601  0  1.049974  0
H  H13  1  0.80034602  0.80401555  0.45097339  1  0  0.082631  0  0.984117  0  0  0.092957  0  1.050214  0  0  0.094831  0  1.050675  0  0  0.094357  0.091612  0  1.049941  0
H  H14  1  0.80034613  0.30401479  0.54902618  1  0  0.082601  0  0.984191  0  0  0.092923  0  1.050289  0  0  0.094795  0  1.050756  0  0  0.094348  0.091578  0  1.050015  0
H  H15  1  0.30034846  0.69598585  0.45097287  1  0  0.082635  0  0.984141  0  0  0.092946  0  1.05026  0  0  0.094824  0  1.050713  0  0  0.094356  0.091602  0  1.049986  0
H  H16  1  0.24497572  0.21394643  0.38469751  1  0  0.082801  0  0.981821  0  0  0.092551  0  1.04862  0  0  0.094699  0  1.048773  0  0  0.093765  0.090993  0  1.04865  0
H  H17  1  0.74497831  0.78605338  0.61530294  1  0  0.082803  0  0.981824  0  0  0.09253  0  1.048647  0  0  0.094675  0  1.048801  0  0  0.093755  0.090972  0  1.048676  0
H  H18  1  0.74497608  0.28605343  0.38469666  1  0  0.08278  0  0.981844  0  0  0.092517  0  1.048655  0  0  0.094663  0  1.048809  0  0  0.09375  0.09096  0  1.048684  0
H  H19  1  0.24497655  0.71394809  0.61530242  1  0  0.08281  0  0.981836  0  0  0.092567  0  1.048623  0  0  0.094713  0  1.048776  0  0  0.093773  0.091009  0  1.048652  0
H  H20  1  0.47639178  0.39770517  0.23681724  1  0  0.073968  0  0.940795  0  0  0.091921  0  1.007919  0  0  0.09331  0  1.006905  0  0  0.102747  0.090819  0  1.008782  0
H  H21  1  0.97639135  0.60229541  0.76318237  1  0  0.073963  0  0.940778  0  0  0.091909  0  1.00791  0  0  0.093299  0  1.006894  0  0  0.10275  0.090807  0  1.008773  0
H  H22  1  0.97639232  0.10229541  0.23681773  1  0  0.073964  0  0.940776  0  0  0.091928  0  1.007892  0  0  0.093318  0  1.006877  0  0  0.102756  0.090828  0  1.008756  0
H  H23  1  0.47639220  0.89770517  0.76318189  1  0  0.073967  0  0.940758  0  0  0.091934  0  1.00788  0  0  0.093323  0  1.006865  0  0  0.102758  0.090833  0  1.008743  0
H  H24  1  0.27929202  0.48168736  0.25692250  1  0  0.077734  0  0.930427  0  0  0.098181  0  0.987871  0  0  0.0993  0  0.987326  0  0  0.099226  0.097292  0  0.988384  0
H  H25  1  0.77929312  0.51831243  0.74307657  1  0  0.077737  0  0.930402  0  0  0.098195  0  0.98783  0  0  0.099317  0  0.98728  0  0  0.099221  0.097306  0  0.988344  0
H  H26  1  0.77929264  0.01831330  0.25692434  1  0  0.077735  0  0.930435  0  0  0.09819  0  0.987875  0  0  0.09931  0  0.987328  0  0  0.099219  0.097302  0  0.98839  0
H  H27  1  0.27929250  0.98168735  0.74307678  1  0  0.077729  0  0.93042  0  0  0.098202  0  0.987848  0  0  0.099323  0  0.987299  0  0  0.099215  0.097312  0  0.988366  0
H  H28  1  0.28086810  0.22123800  0.23074519  1  0  0.103992  0  0.936162  0  0  0.117566  0  1.002159  0  0  0.119996  0  1.000449  0  0  0.106827  0.115836  0  1.003476  0
H  H29  1  0.78086609  0.77876094  0.76925524  1  0  0.104025  0  0.936172  0  0  0.117578  0  1.002178  0  0  0.120008  0  1.000471  0  0  0.106836  0.115845  0  1.003494  0
H  H30  1  0.78086708  0.27876094  0.23074502  1  0  0.103999  0  0.936167  0  0  0.117557  0  1.002174  0  0  0.119986  0  1.000466  0  0  0.106836  0.115826  0  1.003491  0
H  H31  1  0.28086850  0.72123885  0.76925404  1  0  0.104023  0  0.936129  0  0  0.117573  0  1.002149  0  0  0.120003  0  1.00044  0  0  0.106806  0.11584  0  1.003466  0
H  H32  1  0.08382824  0.29912795  0.26379321  1  0  0.102397  0  0.939386  0  0  0.121103  0  0.996904  0  0  0.121956  0  0.997983  0  0  0.104041  0.120512  0  0.996208  0
H  H33  1  0.58382779  0.70087192  0.73620667  1  0  0.102397  0  0.939348  0  0  0.1211  0  0.99687  0  0  0.121955  0  0.99795  0  0  0.104028  0.120505  0  0.996174  0
H  H34  1  0.58382869  0.20087193  0.26379371  1  0  0.102362  0  0.939368  0  0  0.121068  0  0.996892  0  0  0.121921  0  0.997973  0  0  0.10402  0.120476  0  0.996196  0
H  H35  1  0.08382873  0.79912794  0.73620616  1  0  0.102405  0  0.939359  0  0  0.121111  0  0.996874  0  0  0.121965  0  0.997954  0  0  0.104022  0.120518  0  0.996177  0
H  H36  1  0.60779701  0.37217522  0.68114339  1  0  0.06935  0  0.936711  0  0  0.087716  0  0.999152  0  0  0.088677  0  0.998741  0  0  0.091618  0.086933  0  0.999552  0
H  H37  1  0.10779560  0.62782463  0.31885785  1  0  0.069373  0  0.936714  0  0  0.087739  0  0.99914  0  0  0.088706  0  0.998728  0  0  0.091639  0.08696  0  0.999536  0
H  H38  1  0.10779533  0.12782562  0.68114285  1  0  0.069352  0  0.936705  0  0  0.08773  0  0.99914  0  0  0.088693  0  0.99873  0  0  0.09163  0.086948  0  0.999536  0
H  H39  1  0.60779588  0.87217679  0.31885633  1  0  0.069337  0  0.936684  0  0  0.087711  0  0.999127  0  0  0.088677  0  0.998715  0  0  0.091622  0.086931  0  0.999523  0
H  H40  1  0.44787005  0.25853910  0.68583962  1  0  0.070459  0  0.936029  0  0  0.087203  0  1.0002  0  0  0.08896  0  0.99857  0  0  0.091089  0.085884  0  1.001422  0
H  H41  1  0.94786656  0.74146234  0.31416139  1  0  0.070461  0  0.935993  0  0  0.0872  0  1.000163  0  0  0.088958  0  0.998533  0  0  0.091106  0.085882  0  1.001386  0
H  H42  1  0.94786767  0.24146333  0.68583944  1  0  0.070436  0  0.936012  0  0  0.087182  0  1.000191  0  0  0.088939  0  0.998561  0  0  0.091099  0.085864  0  1.001412  0
H  H43  1  0.44786894  0.75853897  0.31416087  1  0  0.07043  0  0.936025  0  0  0.087179  0  1.00021  0  0  0.088935  0  0.99858  0  0  0.0911  0.08586  0  1.001432  0
H  H44  1  0.33552277  0.51060151  0.70473537  1  0  0.098505  0  0.92764  0  0  0.116381  0  0.986352  0  0  0.118171  0  0.985961  0  0  0.099879  0.115075  0  0.986746  0
H  H45  1  0.83552236  0.48939911  0.29526502  1  0  0.098519  0  0.927592  0  0  0.116379  0  0.986376  0  0  0.118168  0  0.985987  0  0  0.099883  0.115074  0  0.986768  0
H  H46  1  0.83552295  0.98939909  0.70473593  1  0  0.098571  0  0.927608  0  0  0.116397  0  0.986369  0  0  0.118186  0  0.985977  0  0  0.099884  0.115091  0  0.986763  0
H  H47  1  0.33552080  0.01060154  0.29526446  1  0  0.098533  0  0.927619  0  0  0.116418  0  0.986336  0  0  0.118208  0  0.985944  0  0  0.099885  0.115111  0  0.986729  0
H  H48  1  0.18798020  0.39242796  0.71809252  1  0  0.099939  0  0.929244  0  0  0.118817  0  0.986372  0  0  0.12062  0  0.985624  0  0  0.104186  0.117478  0  0.987074  0
H  H49  1  0.68797832  0.60757272  0.28190797  1  0  0.099904  0  0.929217  0  0  0.118809  0  0.986352  0  0  0.120612  0  0.985608  0  0  0.104189  0.117469  0  0.987055  0
H  H50  1  0.68797656  0.10757287  0.71809233  1  0  0.099919  0  0.929257  0  0  0.118796  0  0.986366  0  0  0.120596  0  0.985623  0  0  0.104184  0.117459  0  0.987066  0
H  H51  1  0.18797778  0.89242696  0.28190817  1  0  0.099927  0  0.929236  0  0  0.118817  0  0.986363  0  0  0.120619  0  0.98562  0  0  0.10418  0.117477  0  0.987064  0
H  H52  1  0.95665643  0.81899092  0.99523783  1  0  0.409697  0  0.909711  0  0  0.376439  0  0.978517  0  0  0.388487  0  0.960925  0  0  0.303392  0.367911  0  0.990962  0
H  H53  1  0.45665493  0.18100882  0.00476248  1  0  0.409712  0  0.909696  0  0  0.376451  0  0.978508  0  0  0.388498  0  0.960918  0  0  0.303376  0.367922  0  0.990953  0
H  H54  1  0.45665609  0.68100717  0.99523867  1  0  0.409745  0  0.909642  0  0  0.376484  0  0.978452  0  0  0.388531  0  0.960861  0  0  0.303405  0.367957  0  0.990894  0
H  H55  1  0.95665527  0.31899085  0.00476164  1  0  0.409722  0  0.909679  0  0  0.376462  0  0.978488  0  0  0.38851  0  0.960895  0  0  0.3034  0.367934  0  0.990933  0
H  H56  1  0.89818016  0.80951444  0.09733349  1  0  0.443694  0  0.838028  0  0  0.418908  0  0.889791  0  0  0.428695  0  0.875409  0  0  0.319087  0.411953  0  0.900018  0
H  H57  1  0.39818172  0.19048531  0.90266686  1  0  0.443712  0  0.838008  0  0  0.418915  0  0.88979  0  0  0.428702  0  0.875408  0  0  0.319072  0.41196  0  0.900018  0
H  H58  1  0.39817982  0.69048341  0.09733365  1  0  0.443711  0  0.838015  0  0  0.418916  0  0.889792  0  0  0.428704  0  0.87541  0  0  0.31909  0.41196  0  0.900019  0
H  H59  1  0.89818067  0.30951464  0.90266602  1  0  0.443677  0  0.838053  0  0  0.41888  0  0.889834  0  0  0.428668  0  0.875451  0  0  0.319067  0.411925  0  0.900061  0
C  C60  1  0.36600078  0.38283815  0.37302106  1  0  0.071615  0  3.757906  0  0  0.092645  0  3.997354  0  0  0.092691  0  4.021455  0  0  -0.019046  0.092601  0  3.980914  0
C  C61  1  0.86599793  0.61716162  0.62698000  1  0  0.071638  0  3.757975  0  0  0.092654  0  3.997419  0  0  0.0927  0  4.02152  0  0  -0.019046  0.092609  0  3.98098  0
C  C62  1  0.86599852  0.11716337  0.37302018  1  0  0.07159  0  3.757861  0  0  0.092617  0  3.997308  0  0  0.092664  0  4.021409  0  0  -0.019044  0.092573  0  3.980872  0
C  C63  1  0.36599879  0.88283725  0.62697951  1  0  0.071643  0  3.757919  0  0  0.092673  0  3.997369  0  0  0.092718  0  4.021473  0  0  -0.019021  0.092629  0  3.98093  0
C  C64  1  0.44880388  0.47100397  0.42387367  1  0  -0.127871  0  3.772982  0  0  -0.148249  0  4.02512  0  0  -0.151349  0  4.046886  0  0  -0.098642  -0.146079  0  4.010343  0
C  C65  1  0.94879847  0.52899662  0.57612733  1  0  -0.127898  0  3.772947  0  0  -0.148251  0  4.025087  0  0  -0.151351  0  4.046852  0  0  -0.098655  -0.14608  0  4.01031  0
C  C66  1  0.94880171  0.02899753  0.42387209  1  0  -0.127831  0  3.772888  0  0  -0.148192  0  4.025029  0  0  -0.151298  0  4.046791  0  0  -0.098687  -0.146022  0  4.010253  0
C  C67  1  0.44880064  0.97100306  0.57612686  1  0  -0.127839  0  3.772811  0  0  -0.148189  0  4.024935  0  0  -0.151295  0  4.046697  0  0  -0.098656  -0.146019  0  4.010158  0
C  C68  1  0.47731796  0.46137248  0.51782820  1  0  -0.112701  0  3.744623  0  0  -0.129384  0  3.987622  0  0  -0.131574  0  4.010114  0  0  -0.094287  -0.127778  0  3.972331  0
C  C69  1  0.97731559  0.53862639  0.48217209  1  0  -0.112738  0  3.744558  0  0  -0.129445  0  3.987551  0  0  -0.131634  0  4.01004  0  0  -0.094324  -0.127841  0  3.972259  0
C  C70  1  0.97731717  0.03862903  0.51782799  1  0  -0.112796  0  3.744458  0  0  -0.129497  0  3.987451  0  0  -0.131686  0  4.009943  0  0  -0.094324  -0.12789  0  3.972159  0
C  C71  1  0.47731638  0.96137154  0.48217093  1  0  -0.112816  0  3.744508  0  0  -0.129531  0  3.987503  0  0  -0.131723  0  4.009994  0  0  -0.094337  -0.127922  0  3.972214  0
C  C72  1  0.42563316  0.36183623  0.56488938  1  0  0.077075  0  3.755412  0  0  0.099976  0  3.990161  0  0  0.098955  0  4.01514  0  0  -0.016325  0.100589  0  3.973152  0
C  C73  1  0.92562943  0.63816436  0.43510890  1  0  0.07698  0  3.755617  0  0  0.099945  0  3.990274  0  0  0.098925  0  4.015249  0  0  -0.016282  0.100556  0  3.973267  0
C  C74  1  0.92563088  0.13816617  0.56489056  1  0  0.076962  0  3.75548  0  0  0.099925  0  3.990173  0  0  0.098906  0  4.015147  0  0  -0.016282  0.100537  0  3.973165  0
C  C75  1  0.42563171  0.86183528  0.43510909  1  0  0.076968  0  3.755555  0  0  0.099951  0  3.990218  0  0  0.098932  0  4.015192  0  0  -0.016281  0.100561  0  3.973214  0
C  C76  1  0.34205812  0.27440093  0.51460590  1  0  -0.113727  0  3.756548  0  0  -0.131974  0  3.998943  0  0  -0.13449  0  4.022008  0  0  -0.095382  -0.130138  0  3.98326  0
C  C77  1  0.84205695  0.72559969  0.48539518  1  0  -0.113667  0  3.75653  0  0  -0.131941  0  3.998917  0  0  -0.134456  0  4.021978  0  0  -0.095358  -0.130105  0  3.983234  0
C  C78  1  0.84205715  0.22560148  0.51460435  1  0  -0.113668  0  3.75661  0  0  -0.131939  0  3.999015  0  0  -0.134454  0  4.022075  0  0  -0.095392  -0.130103  0  3.983332  0
C  C79  1  0.34205653  0.77439999  0.48539467  1  0  -0.113708  0  3.756607  0  0  -0.131982  0  3.999011  0  0  -0.134497  0  4.022073  0  0  -0.095383  -0.130147  0  3.983329  0
C  C80  1  0.31212558  0.28445181  0.42039728  1  0  -0.126865  0  3.766452  0  0  -0.145156  0  4.013499  0  0  -0.14799  0  4.035254  0  0  -0.100519  -0.143212  0  3.998777  0
C  C81  1  0.81212555  0.71554797  0.57960382  1  0  -0.126871  0  3.766394  0  0  -0.14514  0  4.013453  0  0  -0.147972  0  4.035207  0  0  -0.100512  -0.143196  0  3.998731  0
C  C82  1  0.81212462  0.21554888  0.42039642  1  0  -0.126831  0  3.766403  0  0  -0.145111  0  4.013464  0  0  -0.147943  0  4.035215  0  0  -0.100497  -0.143168  0  3.998742  0
C  C83  1  0.31212512  0.78445261  0.57960262  1  0  -0.126876  0  3.766458  0  0  -0.145166  0  4.013506  0  0  -0.148  0  4.035261  0  0  -0.100518  -0.143222  0  3.998784  0
C  C84  1  0.33923959  0.39703520  0.27091446  1  0  -0.126263  0  3.736117  0  0  -0.17731  0  3.994532  0  0  -0.176862  0  4.006365  0  0  -0.156766  -0.177351  0  3.986266  0
C  C85  1  0.83923925  0.60296458  0.72908525  1  0  -0.126265  0  3.736115  0  0  -0.177306  0  3.99451  0  0  -0.176856  0  4.006345  0  0  -0.156783  -0.17735  0  3.98624  0
C  C86  1  0.83924013  0.10296459  0.27091426  1  0  -0.126275  0  3.736084  0  0  -0.177338  0  3.994496  0  0  -0.176889  0  4.006331  0  0  -0.156767  -0.177384  0  3.986238  0
C  C87  1  0.33924010  0.89703603  0.72908544  1  0  -0.126197  0  3.736008  0  0  -0.177286  0  3.994445  0  0  -0.176839  0  4.006282  0  0  -0.156749  -0.177333  0  3.986181  0
C  C88  1  0.21709429  0.30650988  0.22688595  1  0  -0.27395  0  3.695738  0  0  -0.313544  0  3.948748  0  0  -0.318943  0  3.956417  0  0  -0.158528  -0.309878  0  3.943508  0
C  C89  1  0.71709513  0.69348909  0.77311384  1  0  -0.27404  0  3.695691  0  0  -0.313602  0  3.948715  0  0  -0.319009  0  3.956392  0  0  -0.158511  -0.30992  0  3.943456  0
C  C90  1  0.71709474  0.19348909  0.22688645  1  0  -0.2739  0  3.69567  0  0  -0.313468  0  3.948705  0  0  -0.318871  0  3.956382  0  0  -0.158497  -0.309796  0  3.943461  0
C  C91  1  0.21709607  0.80651073  0.77311334  1  0  -0.274093  0  3.69567  0  0  -0.313654  0  3.948695  0  0  -0.319057  0  3.956363  0  0  -0.158491  -0.309975  0  3.943442  0
C  C92  1  0.17053171  0.32626471  0.12710177  1  0  0.76835  0  3.795556  0  0  0.715982  0  4.096594  0  0  0.750863  0  4.086026  0  0  0.245492  0.692213  0  4.103137  0
C  C93  1  0.67053369  0.67373171  0.87289805  1  0  0.768591  0  3.795262  0  0  0.716163  0  4.096389  0  0  0.751046  0  4.085816  0  0  0.245589  0.69239  0  4.102933  0
C  C94  1  0.67053358  0.17373339  0.12710296  1  0  0.7684  0  3.795367  0  0  0.715984  0  4.096485  0  0  0.750866  0  4.085918  0  0  0.245509  0.692216  0  4.103025  0
C  C95  1  0.17053322  0.82626645  0.87289687  1  0  0.768548  0  3.795348  0  0  0.716148  0  4.096416  0  0  0.751031  0  4.085843  0  0  0.24551  0.692375  0  4.102962  0
C  C96  1  0.46236540  0.34852825  0.66609673  1  0  -0.119027  0  3.722888  0  0  -0.168929  0  3.983072  0  0  -0.168373  0  3.995075  0  0  -0.158781  -0.169012  0  3.974631  0
C  C97  1  0.96236195  0.65147148  0.33390426  1  0  -0.119078  0  3.723052  0  0  -0.168934  0  3.983211  0  0  -0.168383  0  3.995223  0  0  -0.158852  -0.169019  0  3.974773  0
C  C98  1  0.96236311  0.15147331  0.66609586  1  0  -0.118895  0  3.722918  0  0  -0.168839  0  3.983104  0  0  -0.168287  0  3.99511  0  0  -0.158793  -0.168921  0  3.974664  0
C  C99  1  0.46236284  0.84852898  0.33390376  1  0  -0.118879  0  3.722948  0  0  -0.16882  0  3.983172  0  0  -0.16827  0  3.99518  0  0  -0.158816  -0.168906  0  3.974734  0
C  C100  1  0.33352606  0.42074534  0.72624659  1  0  -0.25247  0  3.661889  0  0  -0.291751  0  3.913591  0  0  -0.297245  0  3.9221  0  0  -0.158292  -0.287949  0  3.907646  0
C  C101  1  0.83352424  0.57925444  0.27375243  1  0  -0.25229  0  3.661709  0  0  -0.291686  0  3.913581  0  0  -0.297184  0  3.922096  0  0  -0.158253  -0.287882  0  3.907635  0
C  C102  1  0.83352384  0.07925544  0.72624708  1  0  -0.252528  0  3.6619  0  0  -0.291741  0  3.913567  0  0  -0.297232  0  3.92207  0  0  -0.158291  -0.287945  0  3.907628  0
C  C103  1  0.33352367  0.92074434  0.27375263  1  0  -0.252495  0  3.661856  0  0  -0.291821  0  3.913642  0  0  -0.297316  0  3.922151  0  0  -0.158287  -0.288012  0  3.907692  0
C  C104  1  0.37696605  0.41583029  0.82806075  1  0  0.723475  0  3.854756  0  0  0.68007  0  4.14972  0  0  0.713  0  4.142108  0  0  0.21612  0.657707  0  4.154089  0
C  C105  1  0.87696590  0.58416947  0.17193962  1  0  0.723357  0  3.854755  0  0  0.679979  0  4.14974  0  0  0.712912  0  4.142125  0  0  0.216068  0.657616  0  4.154107  0
C  C106  1  0.87696383  0.08417050  0.82806123  1  0  0.723432  0  3.854706  0  0  0.680014  0  4.149666  0  0  0.712945  0  4.142051  0  0  0.216143  0.657654  0  4.154035  0
C  C107  1  0.37696395  0.91583011  0.17193845  1  0  0.72339  0  3.854862  0  0  0.679984  0  4.149848  0  0  0.712914  0  4.142236  0  0  0.216099  0.657619  0  4.154218  0
O  O108  1  0.06348510  0.25328135  0.08898304  1  0  -0.720279  0  2.007093  0  0  -0.651222  0  2.249161  0  0  -0.67882  0  2.237474  0  0  -0.368027  -0.63193  0  2.256785  0
O  O109  1  0.56348412  0.74671596  0.91101822  1  0  -0.720432  0  2.007006  0  0  -0.651336  0  2.24906  0  0  -0.678934  0  2.237367  0  0  -0.368095  -0.632046  0  2.256687  0
O  O110  1  0.56348551  0.24671678  0.08898355  1  0  -0.720349  0  2.007016  0  0  -0.651283  0  2.249115  0  0  -0.678887  0  2.237425  0  0  -0.368055  -0.631992  0  2.256741  0
O  O111  1  0.06348511  0.75328310  0.91101634  1  0  -0.720336  0  2.006987  0  0  -0.651274  0  2.249064  0  0  -0.678874  0  2.237373  0  0  -0.36801  -0.631982  0  2.256692  0
O  O112  1  0.23421912  0.41340677  0.08587093  1  0  -0.764705  0  2.0114  0  0  -0.696028  0  2.267281  0  0  -0.723274  0  2.255603  0  0  -0.405747  -0.676871  0  2.274741  0
O  O113  1  0.73421828  0.58659048  0.91412748  1  0  -0.764778  0  2.011326  0  0  -0.696075  0  2.267226  0  0  -0.723327  0  2.255559  0  0  -0.405774  -0.67692  0  2.274689  0
O  O114  1  0.73421828  0.08659129  0.08587141  1  0  -0.764664  0  2.011242  0  0  -0.695983  0  2.267179  0  0  -0.723208  0  2.255468  0  0  -0.405734  -0.676826  0  2.274636  0
O  O115  1  0.23421911  0.91340852  0.91412700  1  0  -0.76481  0  2.011292  0  0  -0.696139  0  2.267224  0  0  -0.723367  0  2.255514  0  0  -0.405792  -0.676982  0  2.274686  0
O  O116  1  0.31123307  0.49562622  0.87872439  1  0  -0.777835  0  1.960163  0  0  -0.714661  0  2.210401  0  0  -0.741995  0  2.19938  0  0  -0.4203  -0.695343  0  2.217309  0
O  O117  1  0.81123314  0.50437527  0.12127602  1  0  -0.777808  0  1.960223  0  0  -0.714609  0  2.210417  0  0  -0.741943  0  2.199394  0  0  -0.420276  -0.695299  0  2.217344  0
O  O118  1  0.81123092  0.00437461  0.87872485  1  0  -0.777859  0  1.960211  0  0  -0.714687  0  2.210461  0  0  -0.742019  0  2.19944  0  0  -0.420339  -0.695369  0  2.217366  0
O  O119  1  0.31122832  0.99562518  0.12127556  1  0  -0.777823  0  1.960302  0  0  -0.714642  0  2.210536  0  0  -0.741971  0  2.199518  0  0  -0.420306  -0.69533  0  2.217462  0
O  O120  1  0.47705698  0.33564650  0.85990327  1  0  -0.697741  0  1.913667  0  0  -0.636209  0  2.133485  0  0  -0.660518  0  2.121997  0  0  -0.35654  -0.619243  0  2.140943  0
O  O121  1  0.97706102  0.66435407  0.14009703  1  0  -0.697729  0  1.913578  0  0  -0.636212  0  2.1334  0  0  -0.66052  0  2.121912  0  0  -0.356554  -0.619247  0  2.140859  0
O  O122  1  0.97705885  0.16435511  0.85990309  1  0  -0.697702  0  1.913536  0  0  -0.636178  0  2.133378  0  0  -0.660485  0  2.121892  0  0  -0.356543  -0.619214  0  2.140835  0
O  O123  1  0.47705635  0.83564547  0.14009516  1  0  -0.69771  0  1.913663  0  0  -0.636169  0  2.133467  0  0  -0.660478  0  2.121982  0  0  -0.35653  -0.619203  0  2.140927  0
O  O124  1  0.89090536  0.86267563  0.04521590  1  0  -0.918181  0  1.846697  0  0  -0.860129  0  2.030988  0  0  -0.880672  0  1.998004  0  0  -0.630719  -0.84554  0  2.054008  0
O  O125  1  0.39090681  0.13732328  0.95478446  1  0  -0.918208  0  1.846662  0  0  -0.860141  0  2.030945  0  0  -0.880684  0  1.997964  0  0  -0.630678  -0.845551  0  2.053965  0
O  O126  1  0.39090645  0.63732221  0.04521604  1  0  -0.918217  0  1.84664  0  0  -0.860162  0  2.03094  0  0  -0.880708  0  1.997958  0  0  -0.630719  -0.845572  0  2.05396  0
O  O127  1  0.89090571  0.36267584  0.95478363  1  0  -0.918177  0  1.846684  0  0  -0.860116  0  2.030975  0  0  -0.880662  0  1.997991  0  0  -0.630696  -0.845526  0  2.053996  0
