# generated using pymatgen
data_H14PbC18(BrN2)2
_symmetry_space_group_name_H-M   'P 1'
_cell_length_a   4.22755459
_cell_length_b   13.91189513
_cell_length_c   16.22693858
_cell_angle_alpha   104.42847162
_cell_angle_beta   90.00020775
_cell_angle_gamma   90.00032584
_symmetry_Int_Tables_number   1
_chemical_formula_structural   H14PbC18(BrN2)2
_chemical_formula_sum   'H28 Pb2 C36 Br4 N8'
_cell_volume   924.25872388
_cell_formula_units_Z   2
loop_
 _symmetry_equiv_pos_site_id
 _symmetry_equiv_pos_as_xyz
  1  'x, y, z'
loop_
 _atom_site_type_symbol
 _atom_site_label
 _atom_site_symmetry_multiplicity
 _atom_site_fract_x
 _atom_site_fract_y
 _atom_site_fract_z
 _atom_site_occupancy
 _atom_site_hle17_bader_spin_density
 _atom_site_hle17_ddec_charge
 _atom_site_hle17_ddec_spin_density
 _atom_site_hle17_ddec_sum_bond_order
 _atom_site_hle17_magmom
 _atom_site_hse06_10hf_bader_spin_density
 _atom_site_hse06_10hf_ddec_charge
 _atom_site_hse06_10hf_ddec_spin_density
 _atom_site_hse06_10hf_ddec_sum_bond_order
 _atom_site_hse06_10hf_magmom
 _atom_site_hse06_bader_spin_density
 _atom_site_hse06_ddec_charge
 _atom_site_hse06_ddec_spin_density
 _atom_site_hse06_ddec_sum_bond_order
 _atom_site_hse06_magmom
 _atom_site_pbe_bader_spin_density
 _atom_site_pbe_cm5_charge
 _atom_site_pbe_ddec_charge
 _atom_site_pbe_ddec_spin_density
 _atom_site_pbe_ddec_sum_bond_order
 _atom_site_pbe_magmom
H  H0  1  0.74450000  0.47178158  0.19860433  1  0  0.072782  0  0.95891  0  0  0.077872  0  1.031221  0  0  0.080298  0  1.029744  0  0  0.105551  0.076101  0  1.032326  0
H  H1  1  0.74451785  0.02822018  0.30139787  1  0  0.07278  0  0.958888  0  0  0.077859  0  1.031203  0  0  0.080287  0  1.029725  0  0  0.105551  0.07608  0  1.032336  0
H  H2  1  0.25548673  0.52821764  0.80139387  1  0  0.072782  0  0.958995  0  0  0.077851  0  1.031305  0  0  0.080279  0  1.029829  0  0  0.10553  0.07607  0  1.03244  0
H  H3  1  0.25546652  0.97178200  0.69860222  1  0  0.072814  0  0.958843  0  0  0.077873  0  1.03117  0  0  0.080302  0  1.029691  0  0  0.105556  0.076092  0  1.032307  0
H  H4  1  0.84420518  0.65246583  0.26532402  1  0  0.117496  0  0.948293  0  0  0.12075  0  1.019442  0  0  0.125556  0  1.015765  0  0  0.108918  0.117316  0  1.022161  0
H  H5  1  0.84422572  0.84753129  0.23467488  1  0  0.117514  0  0.948336  0  0  0.120819  0  1.019413  0  0  0.125623  0  1.01574  0  0  0.108947  0.117386  0  1.022129  0
H  H6  1  0.15578392  0.34753339  0.73467357  1  0  0.117522  0  0.948385  0  0  0.120857  0  1.01944  0  0  0.125629  0  1.015798  0  0  0.108969  0.117422  0  1.022157  0
H  H7  1  0.15578467  0.15247093  0.76532153  1  0  0.117486  0  0.948355  0  0  0.120805  0  1.019432  0  0  0.125598  0  1.015767  0  0  0.108929  0.117369  0  1.022147  0
H  H8  1  0.30731441  0.61822638  0.48280816  1  0  0.104459  0  0.98962  0  0  0.110571  0  1.059174  0  0  0.114403  0  1.057504  0  0  0.09095  0.107754  0  1.060557  0
H  H9  1  0.30731368  0.88177255  0.01719186  1  0  0.104452  0  0.989586  0  0  0.110573  0  1.059148  0  0  0.114401  0  1.057487  0  0  0.090951  0.107768  0  1.060509  0
H  H10  1  0.69267943  0.38177061  0.51719016  1  0  0.104469  0  0.989504  0  0  0.110582  0  1.059074  0  0  0.114414  0  1.057416  0  0  0.09093  0.107778  0  1.060432  0
H  H11  1  0.69268489  0.11822813  0.98280851  1  0  0.104475  0  0.989553  0  0  0.110594  0  1.059097  0  0  0.114429  0  1.057433  0  0  0.090955  0.107797  0  1.060456  0
H  H12  1  0.22514651  0.43958587  0.40671163  1  0  0.067996  0  0.959134  0  0  0.074169  0  1.028624  0  0  0.076779  0  1.026541  0  0  0.100739  0.072153  0  1.030273  0
H  H13  1  0.22514791  0.06041258  0.09328627  1  0  0.068004  0  0.959179  0  0  0.074196  0  1.028658  0  0  0.076808  0  1.02657  0  0  0.100747  0.072194  0  1.030302  0
H  H14  1  0.77487334  0.56041032  0.59329083  1  0  0.067951  0  0.959254  0  0  0.074185  0  1.028674  0  0  0.076798  0  1.026587  0  0  0.10076  0.072172  0  1.030339  0
H  H15  1  0.77486721  0.93958970  0.90670460  1  0  0.067998  0  0.959252  0  0  0.074253  0  1.02864  0  0  0.076869  0  1.026547  0  0  0.10081  0.07223  0  1.030307  0
H  H16  1  0.50236248  0.77650203  0.48621646  1  0  0.06065  0  0.968833  0  0  0.067589  0  1.042686  0  0  0.071211  0  1.038491  0  0  0.096554  0.064864  0  1.045901  0
H  H17  1  0.50236347  0.72349651  0.01378983  1  0  0.060623  0  0.968844  0  0  0.067593  0  1.042661  0  0  0.071222  0  1.038455  0  0  0.096553  0.064843  0  1.045941  0
H  H18  1  0.49761717  0.22349568  0.51378388  1  0  0.060615  0  0.96888  0  0  0.067586  0  1.042697  0  0  0.071209  0  1.038501  0  0  0.096542  0.064838  0  1.045966  0
H  H19  1  0.49761144  0.27650032  0.98622264  1  0  0.060579  0  0.968817  0  0  0.067555  0  1.042658  0  0  0.071175  0  1.038466  0  0  0.096537  0.064826  0  1.045896  0
H  H20  1  0.21838087  0.92872628  0.35592205  1  0  0.097266  0  0.950783  0  0  0.108034  0  1.012621  0  0  0.110455  0  1.012396  0  0  0.10182  0.106278  0  1.012855  0
H  H21  1  0.21838317  0.57127471  0.14407651  1  0  0.097385  0  0.950775  0  0  0.108142  0  1.012607  0  0  0.110558  0  1.012398  0  0  0.101869  0.106378  0  1.012849  0
H  H22  1  0.78160824  0.07127441  0.64407772  1  0  0.097379  0  0.950819  0  0  0.10813  0  1.012651  0  0  0.11055  0  1.012429  0  0  0.101855  0.106359  0  1.012899  0
H  H23  1  0.78160357  0.42872451  0.85592231  1  0  0.097403  0  0.950791  0  0  0.108167  0  1.012611  0  0  0.110584  0  1.012402  0  0  0.101872  0.106429  0  1.012821  0
H  H24  1  0.63877165  0.90027451  0.56721806  1  0  0.096484  0  0.971169  0  0  0.105158  0  1.037674  0  0  0.107778  0  1.036155  0  0  0.094886  0.103164  0  1.039002  0
H  H25  1  0.63875479  0.59972147  0.93277944  1  0  0.096517  0  0.971062  0  0  0.105155  0  1.03761  0  0  0.107775  0  1.036089  0  0  0.094891  0.10316  0  1.038935  0
H  H26  1  0.36121035  0.09972173  0.43278072  1  0  0.096499  0  0.971223  0  0  0.10518  0  1.037709  0  0  0.1078  0  1.036194  0  0  0.09492  0.103184  0  1.03904  0
H  H27  1  0.36122012  0.40027851  0.06721709  1  0  0.096466  0  0.971219  0  0  0.105115  0  1.037741  0  0  0.107736  0  1.036223  0  0  0.094883  0.103126  0  1.039062  0
Pb  Pb28  1  0.42716116  0.24999255  0.25001605  1  0  0.984274  0  1.797053  0  0  0.789307  0  2.26456  0  0  0.847526  0  2.225723  0  0  0.406975  0.748963  0  2.289931  0
Pb  Pb29  1  0.57301481  0.75000434  0.74999088  1  0  0.984421  0  1.797092  0  0  0.789481  0  2.264627  0  0  0.84768  0  2.225813  0  0  0.407001  0.749171  0  2.28992  0
C  C30  1  0.65005373  0.50762986  0.26142394  1  0  0.118468  0  3.725508  0  0  0.090202  0  3.978929  0  0  0.096674  0  3.997795  0  0  0.040816  0.085988  0  3.966107  0
C  C31  1  0.65004865  0.99236979  0.23857842  1  0  0.118331  0  3.725611  0  0  0.090086  0  3.979033  0  0  0.096559  0  3.997902  0  0  0.040796  0.085868  0  3.966208  0
C  C32  1  0.34994483  0.49236935  0.73857550  1  0  0.118334  0  3.725589  0  0  0.090102  0  3.978993  0  0  0.096575  0  3.997851  0  0  0.040787  0.08588  0  3.966174  0
C  C33  1  0.34994046  0.00763241  0.76141983  1  0  0.118472  0  3.725618  0  0  0.090255  0  3.97901  0  0  0.096728  0  3.997869  0  0  0.040884  0.086034  0  3.966191  0
C  C34  1  0.70773839  0.60742603  0.29872634  1  0  -0.136248  0  3.663723  0  0  -0.153053  0  3.906832  0  0  -0.159205  0  3.926109  0  0  -0.074143  -0.149094  0  3.893972  0
C  C35  1  0.70773565  0.89257226  0.20127516  1  0  -0.136334  0  3.663713  0  0  -0.153164  0  3.906824  0  0  -0.159318  0  3.926103  0  0  -0.074185  -0.1492  0  3.893961  0
C  C36  1  0.29226254  0.39256947  0.70127166  1  0  -0.136255  0  3.663746  0  0  -0.153083  0  3.906873  0  0  -0.159206  0  3.92617  0  0  -0.074108  -0.14912  0  3.894006  0
C  C37  1  0.29227001  0.10743143  0.79872342  1  0  -0.136256  0  3.663691  0  0  -0.153061  0  3.90682  0  0  -0.159201  0  3.926108  0  0  -0.07415  -0.149096  0  3.893949  0
C  C38  1  0.58748542  0.64932151  0.38061364  1  0  0.096014  0  3.767591  0  0  0.110259  0  3.999897  0  0  0.113084  0  4.021365  0  0  0.009633  0.108524  0  3.985223  0
C  C39  1  0.58745713  0.85067279  0.11938932  1  0  0.096072  0  3.767224  0  0  0.110273  0  3.999667  0  0  0.1131  0  4.021132  0  0  0.009562  0.108542  0  3.984997  0
C  C40  1  0.41251551  0.35067025  0.61938661  1  0  0.096125  0  3.767457  0  0  0.110237  0  4.000021  0  0  0.113068  0  4.021474  0  0  0.009564  0.108503  0  3.985342  0
C  C41  1  0.41251778  0.14932714  0.88061213  1  0  0.096077  0  3.767248  0  0  0.110165  0  3.999853  0  0  0.112993  0  4.021315  0  0  0.009593  0.108432  0  3.985175  0
C  C42  1  0.40812375  0.58812955  0.41977056  1  0  -0.149857  0  3.694999  0  0  -0.165461  0  3.935028  0  0  -0.17331  0  3.957164  0  0  -0.082064  -0.160276  0  3.920126  0
C  C43  1  0.40811735  0.91186886  0.08022945  1  0  -0.149857  0  3.694809  0  0  -0.165451  0  3.934848  0  0  -0.173306  0  3.956996  0  0  -0.082031  -0.160267  0  3.919956  0
C  C44  1  0.59187245  0.41186667  0.58023006  1  0  -0.14989  0  3.694704  0  0  -0.165465  0  3.934783  0  0  -0.173325  0  3.956927  0  0  -0.082014  -0.160282  0  3.919884  0
C  C45  1  0.59189541  0.08813335  0.91976757  1  0  -0.149897  0  3.694826  0  0  -0.165443  0  3.934883  0  0  -0.173305  0  3.957037  0  0  -0.082028  -0.160269  0  3.91997  0
C  C46  1  0.36250751  0.48921458  0.37778308  1  0  0.119349  0  3.750912  0  0  0.093524  0  3.997889  0  0  0.099699  0  4.018215  0  0  0.03944  0.089612  0  3.984056  0
C  C47  1  0.36249419  0.01078415  0.12221686  1  0  0.119341  0  3.750822  0  0  0.093493  0  3.99781  0  0  0.09967  0  4.018131  0  0  0.039426  0.08957  0  3.983969  0
C  C48  1  0.63750288  0.51078383  0.62222173  1  0  0.11925  0  3.75098  0  0  0.0934  0  3.997937  0  0  0.099575  0  4.018264  0  0  0.039308  0.089472  0  3.984099  0
C  C49  1  0.63750674  0.98921809  0.87777770  1  0  0.119296  0  3.750965  0  0  0.093423  0  3.997909  0  0  0.099595  0  4.018231  0  0  0.039306  0.089507  0  3.984088  0
C  C50  1  0.64482009  0.75179197  0.42802297  1  0  0.126271  0  3.673212  0  0  0.093178  0  3.93637  0  0  0.101373  0  3.946439  0  0  0.072526  0.087769  0  3.929468  0
C  C51  1  0.64480342  0.74820394  0.07197978  1  0  0.126389  0  3.673158  0  0  0.093233  0  3.936431  0  0  0.101425  0  3.946495  0  0  0.072569  0.087817  0  3.929539  0
C  C52  1  0.35516665  0.24820652  0.57197445  1  0  0.126295  0  3.673335  0  0  0.093164  0  3.936648  0  0  0.101357  0  3.946715  0  0  0.072499  0.087756  0  3.929741  0
C  C53  1  0.35516912  0.25179447  0.92802441  1  0  0.126374  0  3.673046  0  0  0.093221  0  3.936388  0  0  0.101415  0  3.946459  0  0  0.072523  0.087805  0  3.929479  0
C  C54  1  0.91626702  0.90258374  0.45450865  1  0  0.199684  0  3.820215  0  0  0.20555  0  4.064845  0  0  0.207765  0  4.090473  0  0  0.08729  0.204066  0  4.047427  0
C  C55  1  0.91627319  0.59741728  0.04548871  1  0  0.199504  0  3.82038  0  0  0.205473  0  4.064856  0  0  0.207686  0  4.090486  0  0  0.087306  0.203989  0  4.04743  0
C  C56  1  0.08371972  0.09741696  0.54549050  1  0  0.199745  0  3.820226  0  0  0.205584  0  4.06489  0  0  0.2078  0  4.090516  0  0  0.087305  0.204104  0  4.04746  0
C  C57  1  0.08373011  0.40258344  0.95450859  1  0  0.199773  0  3.820096  0  0  0.205576  0  4.064789  0  0  0.207792  0  4.090421  0  0  0.08729  0.204095  0  4.047364  0
C  C58  1  0.12195470  0.96126392  0.41907350  1  0  -0.121575  0  3.723329  0  0  -0.139334  0  3.968708  0  0  -0.143753  0  3.992228  0  0  -0.086031  -0.136215  0  3.952704  0
C  C59  1  0.12196972  0.53873909  0.08092541  1  0  -0.121554  0  3.723277  0  0  -0.139347  0  3.968608  0  0  -0.143769  0  3.992123  0  0  -0.086054  -0.136223  0  3.952604  0
C  C60  1  0.87803440  0.03873899  0.58092737  1  0  -0.121708  0  3.7234  0  0  -0.139436  0  3.968753  0  0  -0.14386  0  3.992277  0  0  -0.086049  -0.136304  0  3.952749  0
C  C61  1  0.87801465  0.46126457  0.91907502  1  0  -0.121851  0  3.723424  0  0  -0.139601  0  3.968829  0  0  -0.144018  0  3.99233  0  0  -0.086136  -0.136497  0  3.952811  0
C  C62  1  0.79653918  0.94317990  0.53710947  1  0  -0.133304  0  3.741529  0  0  -0.151847  0  3.986152  0  0  -0.155338  0  4.00975  0  0  -0.092128  -0.149413  0  3.970228  0
C  C63  1  0.79654322  0.55682457  0.96289129  1  0  -0.133147  0  3.741625  0  0  -0.151685  0  3.98621  0  0  -0.15517  0  4.009803  0  0  -0.092058  -0.149248  0  3.970294  0
C  C64  1  0.20345229  0.05682002  0.46289259  1  0  -0.133305  0  3.741659  0  0  -0.151859  0  3.986315  0  0  -0.155346  0  4.009901  0  0  -0.09212  -0.149423  0  3.970399  0
C  C65  1  0.20343643  0.44317909  0.03710913  1  0  -0.133347  0  3.741636  0  0  -0.151842  0  3.986298  0  0  -0.155328  0  4.009884  0  0  -0.092108  -0.149415  0  3.970371  0
Br  Br66  1  0.91556733  0.24842133  0.38174285  1  0  -0.546687  0  0.984457  0  0  -0.469059  0  1.27941  0  0  -0.493391  0  1.261063  0  0  -0.200759  -0.451646  0  1.291818  0
Br  Br67  1  0.91560340  0.25158360  0.11827439  1  0  -0.546785  0  0.984196  0  0  -0.469173  0  1.279123  0  0  -0.493506  0  1.260779  0  0  -0.200848  -0.451787  0  1.291578  0
Br  Br68  1  0.08443833  0.75158659  0.61827515  1  0  -0.546746  0  0.984502  0  0  -0.469154  0  1.279521  0  0  -0.493479  0  1.261172  0  0  -0.200778  -0.451757  0  1.291925  0
Br  Br69  1  0.08446139  0.74841640  0.88172153  1  0  -0.546835  0  0.984287  0  0  -0.469253  0  1.27925  0  0  -0.493579  0  1.260904  0  0  -0.200873  -0.451847  0  1.291639  0
N  N70  1  0.48231818  0.44886506  0.30007786  1  0  -0.347117  0  3.224162  0  0  -0.272582  0  3.47723  0  0  -0.292741  0  3.500149  0  0  -0.308667  -0.25884  0  3.461412  0
N  N71  1  0.48230195  0.05113760  0.19992614  1  0  -0.346954  0  3.224141  0  0  -0.272407  0  3.477186  0  0  -0.292569  0  3.500109  0  0  -0.308588  -0.258664  0  3.461373  0
N  N72  1  0.51769458  0.55113929  0.69992764  1  0  -0.34692  0  3.224114  0  0  -0.272393  0  3.477164  0  0  -0.292552  0  3.500085  0  0  -0.308552  -0.258656  0  3.461358  0
N  N73  1  0.51769662  0.94886612  0.80006875  1  0  -0.347107  0  3.224289  0  0  -0.272589  0  3.47736  0  0  -0.292748  0  3.500279  0  0  -0.308634  -0.25885  0  3.461551  0
N  N74  1  0.85269712  0.80709885  0.40409373  1  0  -0.334246  0  3.074982  0  0  -0.300141  0  3.346439  0  0  -0.311061  0  3.361085  0  0  -0.308801  -0.292531  0  3.336209  0
N  N75  1  0.85270103  0.69290503  0.09590236  1  0  -0.334298  0  3.07516  0  0  -0.300189  0  3.346619  0  0  -0.311108  0  3.361264  0  0  -0.308835  -0.292571  0  3.336384  0
N  N76  1  0.14728725  0.19290190  0.59590112  1  0  -0.334304  0  3.075047  0  0  -0.300169  0  3.346552  0  0  -0.311088  0  3.361193  0  0  -0.308807  -0.292556  0  3.336313  0
N  N77  1  0.14728334  0.30709642  0.90409634  1  0  -0.334316  0  3.07494  0  0  -0.300162  0  3.346467  0  0  -0.311082  0  3.36111  0  0  -0.308825  -0.292552  0  3.336232  0
