# generated using pymatgen
data_CoH26C40(N3O5)2
_symmetry_space_group_name_H-M   'P 1'
_cell_length_a   8.53475430
_cell_length_b   10.02642170
_cell_length_c   10.91488712
_cell_angle_alpha   100.79661416
_cell_angle_beta   94.27386538
_cell_angle_gamma   104.92509509
_symmetry_Int_Tables_number   1
_chemical_formula_structural   CoH26C40(N3O5)2
_chemical_formula_sum   'Co1 H26 C40 N6 O10'
_cell_volume   879.08617646
_cell_formula_units_Z   1
loop_
 _symmetry_equiv_pos_site_id
 _symmetry_equiv_pos_as_xyz
  1  'x, y, z'
loop_
 _atom_site_type_symbol
 _atom_site_label
 _atom_site_symmetry_multiplicity
 _atom_site_fract_x
 _atom_site_fract_y
 _atom_site_fract_z
 _atom_site_occupancy
 _atom_site_hle17_ddec_charge
 _atom_site_hle17_ddec_spin_density
 _atom_site_hle17_ddec_sum_bond_order
 _atom_site_hle17_magmom
 _atom_site_hse06_10hf_ddec_charge
 _atom_site_hse06_10hf_ddec_spin_density
 _atom_site_hse06_10hf_ddec_sum_bond_order
 _atom_site_hse06_10hf_magmom
 _atom_site_hse06_ddec_charge
 _atom_site_hse06_ddec_spin_density
 _atom_site_hse06_ddec_sum_bond_order
 _atom_site_hse06_magmom
 _atom_site_pbe_cm5_charge
 _atom_site_pbe_ddec_charge
 _atom_site_pbe_ddec_spin_density
 _atom_site_pbe_ddec_sum_bond_order
 _atom_site_pbe_magmom
Co  Co0  1  0.49999745  0.99999592  0.49999646  1  0.606805  1.141378  2.590356  1.022  0.583712  1.034104  3.033624  0.959  0.65111  1.029629  2.962527  0.963  0.638105  0.548809  1.028564  3.074174  0.944
H  H1  1  0.40150026  0.55758842  0.99677079  1  0.399567  2.3e-05  0.876225  0.0  0.371482  2.3e-05  0.949978  0.0  0.384191  1.5e-05  0.936334  0.0  0.308959  0.362569  2.1e-05  0.959475  0.0
H  H2  1  0.59851401  0.44238514  0.00322719  1  0.39945  2.3e-05  0.876332  0.0  0.37143  2.3e-05  0.949966  0.0  0.384142  1.5e-05  0.936318  0.0  0.308939  0.36251  2.1e-05  0.95948  0.0
H  H3  1  0.78390389  0.89793776  0.18423334  1  0.300182  3.5e-05  0.954977  0.0  0.277558  -1.1e-05  1.024121  0.0  0.287707  -1.8e-05  1.015835  0.0  0.300643  0.270409  -3e-06  1.029917  0.0
H  H4  1  0.21609810  0.10206803  0.81576321  1  0.300188  3.5e-05  0.954887  0.0  0.277554  -1.1e-05  1.024056  0.0  0.287702  -1.8e-05  1.015764  0.0  0.300618  0.270406  -3e-06  1.029855  0.0
H  H5  1  0.26956856  0.35173690  0.31043534  1  0.10635  9.9e-05  0.951148  0.0  0.117022  -5.7e-05  1.014575  0.0  0.119777  -4.9e-05  1.012882  0.0  0.110486  0.114686  -0.000144  1.016511  0.0
H  H6  1  0.73043809  0.64825161  0.68958781  1  0.106358  9.9e-05  0.951114  0.0  0.117056  -5.7e-05  1.014507  0.0  0.119789  -4.9e-05  1.012842  0.0  0.110546  0.114743  -0.000144  1.016418  0.0
H  H7  1  0.27800017  0.82256281  0.67586347  1  0.115532  -0.000186  0.965802  0.0  0.12137  -9e-05  1.035842  0.0  0.125298  -9.8e-05  1.033514  0.0  0.107056  0.118371  -7.5e-05  1.037827  0.0
H  H8  1  0.72198571  0.17745512  0.32412794  1  0.115589  -0.000188  0.965695  0.0  0.12136  -9e-05  1.035776  0.0  0.125293  -9.8e-05  1.033442  0.0  0.10709  0.118362  -7.5e-05  1.037761  0.0
H  H9  1  0.10351694  0.65264879  0.78389011  1  0.102502  1e-05  0.96067  0.0  0.113768  -2.4e-05  1.017305  0.0  0.11667  -2.1e-05  1.015591  0.0  0.106413  0.111606  -4.2e-05  1.018697  0.0
H  H10  1  0.89648953  0.34737939  0.21611415  1  0.102522  8e-06  0.960617  0.0  0.113804  -2.4e-05  1.017234  0.0  0.116703  -2.1e-05  1.015519  0.0  0.106484  0.111645  -4.2e-05  1.018623  0.0
H  H11  1  0.04074425  0.39402490  0.70025421  1  0.096271  -0.000111  0.932841  0.0  0.109839  -1.6e-05  0.9856  0.0  0.11243  -1e-05  0.985084  0.0  0.10735  0.107915  -2.4e-05  0.986129  0.0
H  H12  1  0.95926441  0.60599978  0.29976169  1  0.096358  -0.000113  0.932808  0.0  0.109995  -1.6e-05  0.985499  0.0  0.112586  -1.1e-05  0.984982  0.0  0.107399  0.108071  -2.4e-05  0.986024  0.0
H  H13  1  0.13712990  0.30245280  0.49956020  1  0.092879  0.000159  0.945551  0.0  0.105144  0.00012  1.005145  0.0  0.10751  8.4e-05  1.005176  0.0  0.102562  0.103384  0.000177  1.005213  0.0
H  H14  1  0.86286699  0.69755308  0.50045710  1  0.092883  0.000159  0.945475  0.0  0.10518  0.00012  1.00504  0.0  0.107545  8.4e-05  1.005071  0.0  0.102554  0.103394  0.000177  1.005141  0.0
H  H15  1  0.15871638  0.87125151  0.48818734  1  0.081458  -0.000179  0.958761  0.0  0.087294  -0.000209  1.029131  0.0  0.089282  -0.000158  1.026405  0.0  0.117305  0.085829  -0.000227  1.031262  0.0
H  H16  1  0.84127898  0.12872860  0.51179910  1  0.081553  -0.000182  0.958733  0.0  0.087383  -0.000209  1.029109  0.0  0.089371  -0.000158  1.026389  0.0  0.117364  0.085926  -0.000227  1.031234  0.0
H  H17  1  0.90382397  0.85221331  0.35227370  1  0.122883  -0.000292  0.971506  0.0  0.1306  -6.4e-05  1.033967  0.0  0.134268  -6e-05  1.032805  0.0  0.11116  0.128113  -4.9e-05  1.034688  0.0
H  H18  1  0.09617400  0.14777539  0.64771675  1  0.122859  -0.000293  0.971559  0.0  0.13059  -6.3e-05  1.034003  0.0  0.13426  -6e-05  1.032841  0.0  0.111158  0.128091  -4.9e-05  1.034742  0.0
H  H19  1  0.44035446  0.12949043  0.28391341  1  0.087061  -9.8e-05  0.946465  0.0  0.093764  -0.000166  1.013945  0.0  0.095427  -0.000129  1.012006  0.0  0.119323  0.092514  -0.000192  1.015478  0.0
H  H20  1  0.55964783  0.87051693  0.71609253  1  0.087136  -9.7e-05  0.946383  0.0  0.093747  -0.000166  1.013987  0.0  0.09538  -0.00013  1.012072  0.0  0.119313  0.092502  -0.000192  1.015514  0.0
H  H21  1  0.19481169  0.13255772  0.14818408  1  0.126739  -0.000299  0.969644  0.0  0.133337  -3.2e-05  1.032443  0.0  0.136905  -3.1e-05  1.030931  0.0  0.110184  0.130961  -2.5e-05  1.033488  0.0
H  H22  1  0.80518719  0.86745376  0.85182122  1  0.126719  -0.000302  0.969825  0.0  0.133327  -3.3e-05  1.032618  0.0  0.136892  -3.1e-05  1.031114  0.0  0.110211  0.130952  -2.5e-05  1.033664  0.0
H  H23  1  0.68150620  0.24520626  0.04810465  1  0.105241  -6e-06  0.958113  0.0  0.113532  -3e-06  1.021797  0.0  0.117201  -4e-06  1.019068  0.0  0.106717  0.110856  -5e-06  1.023845  0.0
H  H24  1  0.31851015  0.75480887  0.95190785  1  0.105277  -7e-06  0.958091  0.0  0.11352  -3e-06  1.021791  0.0  0.117207  -5e-06  1.019043  0.0  0.106743  0.110842  -5e-06  1.023837  0.0
H  H25  1  0.61236471  0.79955424  0.02184904  1  0.103306  -2.2e-05  0.965379  0.0  0.112393  -1.8e-05  1.026832  0.0  0.11588  -1e-05  1.02478  0.0  0.106855  0.109984  -2.4e-05  1.02821  0.0
H  H26  1  0.38764276  0.20045828  0.97815516  1  0.103399  -2.3e-05  0.965326  0.0  0.112449  -1.8e-05  1.026819  0.0  0.115942  -1e-05  1.024755  0.0  0.106895  0.110039  -2.4e-05  1.028199  0.0
C  C27  1  0.45085373  0.70574249  0.35973085  1  0.101433  -0.01132  3.727286  -0.008  0.095035  -0.002886  3.976667  -0.002  0.100327  -0.003305  3.991087  -0.002  0.124534  0.090517  -0.002363  3.968572  -0.001
C  C28  1  0.54913816  0.29424904  0.64025494  1  0.101396  -0.011312  3.727126  -0.008  0.095067  -0.002878  3.976468  -0.002  0.100352  -0.003303  3.990884  -0.002  0.124766  0.090551  -0.002352  3.96837  -0.001
C  C29  1  0.39949400  0.56143774  0.29514949  1  -0.101944  0.003614  3.716138  0.005  -0.085299  0.001164  3.956146  0.001  -0.095171  0.001136  3.975907  0.001  -0.002774  -0.078853  0.001184  3.943426  0.001
C  C30  1  0.60051088  0.43854750  0.70485295  1  -0.101883  0.003611  3.715822  0.005  -0.085268  0.001163  3.95584  0.001  -0.095132  0.001137  3.975592  0.001  -0.002856  -0.078828  0.001182  3.943131  0.001
C  C31  1  0.30982899  0.46386457  0.35514292  1  -0.050556  -0.012082  3.655081  -0.008  -0.085739  -0.003941  3.900549  -0.002  -0.080627  -0.003446  3.916102  -0.002  -0.057114  -0.089579  -0.004972  3.891065  -0.003
C  C32  1  0.69016853  0.53613122  0.64486215  1  -0.050737  -0.012078  3.655299  -0.008  -0.085926  -0.003935  3.900824  -0.002  -0.080803  -0.003447  3.916385  -0.002  -0.057244  -0.089781  -0.004965  3.891328  -0.003
C  C33  1  0.26297860  0.51005332  0.47402969  1  0.02195  0.003558  3.78869  0.005  0.038974  0.001754  4.02031  0.003  0.035485  0.001555  4.045722  0.002  -0.002018  0.041078  0.002003  4.003455  0.003
C  C34  1  0.73702637  0.48995506  0.52597565  1  0.021941  0.003557  3.788688  0.005  0.038923  0.001751  4.020398  0.003  0.035437  0.001556  4.045802  0.002  -0.00196  0.041026  0.002002  4.00354  0.003
C  C35  1  0.30651408  0.65927217  0.52634178  1  0.193511  -0.003518  3.758255  -0.003  0.192868  -0.000171  4.002721  0.0  0.197977  -0.000627  4.025458  0.0  0.111532  0.189487  0.000115  3.987844  0.001
C  C36  1  0.69349509  0.34073826  0.47366228  1  0.193544  -0.003522  3.758129  -0.003  0.192872  -0.000168  4.00263  0.0  0.197982  -0.000626  4.025371  0.0  0.111519  0.189493  0.000115  3.987748  0.001
C  C37  1  0.24684543  0.70879376  0.63878199  1  -0.15475  0.002434  3.701504  0.004  -0.176492  0.000687  3.960131  0.001  -0.181803  0.000731  3.980219  0.001  -0.088221  -0.173403  0.000754  3.947334  0.001
C  C38  1  0.75316081  0.29122548  0.36121196  1  -0.154967  0.002438  3.701508  0.004  -0.176601  0.000688  3.960116  0.001  -0.18192  0.000731  3.980197  0.001  -0.088384  -0.17351  0.000754  3.947318  0.001
C  C39  1  0.15117967  0.61388419  0.69837065  1  -0.029335  -0.005428  3.723557  -0.004  -0.047815  -0.001474  3.977927  -0.001  -0.047338  -0.00152  3.997538  -0.001  -0.076735  -0.047928  -0.001789  3.964843  -0.001
C  C40  1  0.84881158  0.38613590  0.30162141  1  -0.029306  -0.005426  3.723608  -0.004  -0.047812  -0.001475  3.977949  -0.001  -0.047331  -0.001521  3.997555  -0.001  -0.076732  -0.047927  -0.001789  3.964868  -0.001
C  C41  1  0.11381306  0.46668836  0.64990126  1  -0.038582  0.002152  3.727317  0.003  -0.057299  0.000435  3.985681  0.001  -0.058734  0.000571  4.005768  0.001  -0.077449  -0.05653  0.000423  3.972045  0.001
C  C42  1  0.88618607  0.53333154  0.35010511  1  -0.038716  0.002153  3.727734  0.003  -0.057511  0.000434  3.986126  0.001  -0.058947  0.000572  4.006212  0.001  -0.077517  -0.056737  0.000423  3.972479  0.001
C  C43  1  0.16812907  0.41564765  0.53962844  1  -0.101435  -0.004637  3.731668  -0.003  -0.124127  -0.000767  3.987597  0.0  -0.126762  -0.000958  4.010362  -0.001  -0.083521  -0.122024  -0.000849  3.972046  0.0
C  C44  1  0.83188547  0.58436489  0.46037535  1  -0.101282  -0.004634  3.731886  -0.003  -0.123975  -0.000764  3.987821  0.0  -0.12661  -0.000959  4.010585  -0.001  -0.083478  -0.121855  -0.000848  3.972267  0.0
C  C45  1  0.57571048  0.80967076  0.30941553  1  0.594664  -0.00422  3.883632  -0.002  0.54641  -0.001571  4.189055  0.0  0.582398  -0.000657  4.18135  0.0  0.212954  0.521473  -0.00226  4.193996  -0.001
C  C46  1  0.42426714  0.19031631  0.69056685  1  0.594866  -0.004217  3.882973  -0.002  0.546598  -0.00157  4.188399  0.0  0.582614  -0.000656  4.180642  0.0  0.213036  0.521661  -0.002259  4.193348  -0.001
C  C47  1  0.43782289  0.52055822  0.16372448  1  0.695178  0.000421  3.788742  0.0  0.637288  0.00056  4.098608  0.001  0.673624  0.000295  4.08594  0.0  0.245402  0.612555  0.000961  4.106958  0.001
C  C48  1  0.56218250  0.47942529  0.83628420  1  0.695251  0.000424  3.788484  0.0  0.637321  0.000559  4.098415  0.001  0.673654  0.000295  4.085754  0.0  0.245435  0.612592  0.000961  4.106755  0.001
C  C49  1  0.16204509  0.92477803  0.41006192  1  0.123108  -0.013106  3.726494  -0.009  0.091676  -0.005181  3.985202  -0.003  0.103495  -0.003639  4.001687  -0.002  0.035156  0.083631  -0.005564  3.97488  -0.003
C  C50  1  0.83794424  0.07519816  0.58993002  1  0.122875  -0.013099  3.726829  -0.009  0.091487  -0.005182  3.985524  -0.003  0.103298  -0.003639  4.002021  -0.002  0.035047  0.083402  -0.005564  3.975266  -0.003
C  C51  1  0.02079972  0.91596728  0.33548362  1  -0.224769  0.003495  3.709041  0.005  -0.240793  0.000586  3.957473  0.001  -0.25158  0.000469  3.974745  0.001  -0.093164  -0.233545  0.000372  3.945549  0.001
C  C52  1  0.97919983  0.08401497  0.66450339  1  -0.224698  0.0035  3.709091  0.005  -0.240698  0.000587  3.957469  0.001  -0.251481  0.00047  3.974745  0.001  -0.093129  -0.233433  0.000373  3.945547  0.001
C  C53  1  0.02734706  0.99035741  0.23760973  1  0.328205  -0.012236  3.762017  -0.008  0.317861  -0.004848  4.003499  -0.003  0.335113  -0.00296  4.01898  -0.002  0.123632  0.306453  -0.005831  3.992687  -0.004
C  C54  1  0.97265219  0.00963587  0.76238781  1  0.328269  -0.012247  3.762029  -0.008  0.317863  -0.004849  4.003606  -0.003  0.335111  -0.002959  4.019092  -0.002  0.123704  0.306459  -0.005831  3.992787  -0.004
C  C55  1  0.31891380  0.07109034  0.29788047  1  0.136509  -0.014257  3.67652  -0.01  0.106922  -0.005606  3.933587  -0.004  0.119244  -0.00384  3.949927  -0.003  0.044723  0.098695  -0.006265  3.92295  -0.004
C  C56  1  0.68108066  0.92891031  0.70211857  1  0.136443  -0.014273  3.676431  -0.01  0.106928  -0.005608  3.933559  -0.004  0.119282  -0.00384  3.949899  -0.003  0.044665  0.098701  -0.006267  3.922917  -0.004
C  C57  1  0.84550852  0.06335258  0.09152409  1  0.547452  -0.001694  3.804892  -0.001  0.500785  -0.000762  4.095874  0.0  0.530171  -0.000357  4.094325  0.0  0.244332  0.48099  -0.001154  4.096299  -0.001
C  C58  1  0.15449871  0.93665115  0.90847258  1  0.547454  -0.001689  3.804513  -0.001  0.500743  -0.000764  4.095578  0.0  0.530121  -0.000359  4.094034  0.0  0.244352  0.480947  -0.001154  4.096006  -0.001
C  C59  1  0.18199068  0.07193318  0.22120060  1  -0.225257  0.003496  3.7038  0.005  -0.244794  0.000554  3.95662  0.001  -0.256553  0.000434  3.975602  0.001  -0.092613  -0.237013  0.000327  3.943796  0.001
C  C60  1  0.81800966  0.92806774  0.77880256  1  -0.225285  0.003507  3.703904  0.005  -0.244821  0.000554  3.956755  0.001  -0.256575  0.000434  3.975718  0.001  -0.09263  -0.237041  0.000327  3.943936  0.001
C  C61  1  0.66732361  0.02691616  0.04204770  1  -0.060216  -7.1e-05  3.761955  0.0  -0.039075  -9.8e-05  3.997559  0.0  -0.044702  -5e-05  4.020413  0.0  -0.012621  -0.035533  -0.000161  3.982262  0.0
C  C62  1  0.33269264  0.97309435  0.95795687  1  -0.060178  -9.2e-05  3.762128  0.0  -0.03907  -9.9e-05  3.997758  0.0  -0.044693  -4.9e-05  4.020617  0.0  -0.012585  -0.035526  -0.000161  3.982461  0.0
C  C63  1  0.60145034  0.13798812  0.02701720  1  -0.065012  -0.000176  3.712352  0.0  -0.089726  -8.5e-05  3.964293  0.0  -0.090499  -3.4e-05  3.983663  0.0  -0.081166  -0.08896  -0.000156  3.951077  0.0
C  C64  1  0.39855112  0.86203232  0.97299857  1  -0.065126  -0.000145  3.712272  0.0  -0.08978  -8.3e-05  3.96427  0.0  -0.090569  -3.4e-05  3.98363  0.0  -0.081294  -0.089013  -0.000156  3.951058  0.0
C  C65  1  0.56416299  0.88828676  0.01360241  1  -0.077502  -0.000299  3.725861  0.0  -0.102846  -0.00018  3.980073  0.0  -0.103176  -9.8e-05  3.99921  0.0  -0.086796  -0.102613  -0.000245  3.966923  0.0
C  C66  1  0.43584466  0.11172291  0.98640695  1  -0.077689  -0.000268  3.726434  0.0  -0.103002  -0.000178  3.980674  0.0  -0.103334  -9.9e-05  3.999808  0.0  -0.086901  -0.102768  -0.000245  3.967525  0.0
N  N67  1  0.40427836  0.75350610  0.46872615  1  -0.326986  0.027926  3.192276  0.047  -0.29247  0.024002  3.462302  0.038  -0.308409  0.02035  3.476366  0.033  -0.290524  -0.282393  0.028027  3.453818  0.044
N  N68  1  0.59571338  0.24649995  0.53125777  1  -0.326894  0.027916  3.192115  0.047  -0.292449  0.023994  3.462233  0.038  -0.308394  0.020345  3.476311  0.033  -0.290598  -0.282368  0.028019  3.453743  0.044
N  N69  1  0.31142136  0.99987282  0.39188374  1  -0.268398  -0.013068  3.407266  -0.007  -0.222775  -0.009104  3.693773  -0.006  -0.251198  -0.008892  3.711982  -0.006  -0.355751  -0.205751  -0.008473  3.681378  -0.006
N  N70  1  0.68856867  0.00011716  0.60811181  1  -0.268323  -0.01306  3.407377  -0.007  -0.222777  -0.009102  3.69394  -0.006  -0.251193  -0.008889  3.712132  -0.006  -0.355735  -0.205747  -0.008471  3.681535  -0.006
N  N71  1  0.88122375  0.97597058  0.16601483  1  -0.446919  -0.000676  3.335182  0.0  -0.388266  -0.000619  3.568798  0.0  -0.412587  -0.000423  3.574585  0.0  -0.392781  -0.371734  -0.00073  3.564444  0.0
N  N72  1  0.11877609  0.02403208  0.83398209  1  -0.446892  -0.000678  3.335108  0.0  -0.388156  -0.000619  3.568686  0.0  -0.412482  -0.000422  3.574506  0.0  -0.392792  -0.371621  -0.000731  3.56432  0.0
O  O73  1  0.52617669  0.44169205  0.13527716  1  -0.554288  0.000365  1.981016  0.001  -0.508444  0.000344  2.198103  0.001  -0.531359  0.000223  2.189798  0.0  -0.275244  -0.492858  0.000556  2.203513  0.001
O  O74  1  0.47383641  0.55829395  0.86473789  1  -0.554295  0.000364  1.981079  0.001  -0.508401  0.000344  2.1982  0.001  -0.531314  0.000223  2.1899  0.0  -0.275221  -0.492816  0.000556  2.203599  0.001
O  O75  1  0.35888858  0.57097600  0.08234645  1  -0.530272  0.000127  2.074243  0.0  -0.481884  0.000165  2.280005  0.0  -0.503668  9.1e-05  2.264601  0.0  -0.323626  -0.467078  0.000292  2.290574  0.001
O  O76  1  0.64110882  0.42898470  0.91764780  1  -0.530055  0.000128  2.074269  0.0  -0.481667  0.000166  2.27998  0.0  -0.503453  9.1e-05  2.264578  0.0  -0.323466  -0.466857  0.000292  2.290548  0.001
O  O77  1  0.94779036  0.16738672  0.07200471  1  -0.528594  -0.00121  1.88183  -0.001  -0.490781  -0.000674  2.089501  -0.001  -0.509185  -0.000372  2.082904  0.0  -0.295224  -0.477948  -0.000855  2.093671  -0.001
O  O78  1  0.05222073  0.83261811  0.92799236  1  -0.528593  -0.001216  1.881732  -0.001  -0.490759  -0.000674  2.089433  -0.001  -0.509161  -0.000371  2.082838  0.0  -0.295226  -0.477926  -0.000855  2.093605  -0.001
O  O79  1  0.65251845  0.76006416  0.22665215  1  -0.567135  -0.006266  2.013965  -0.006  -0.518424  -0.002879  2.232128  -0.003  -0.544193  -0.001938  2.226421  -0.002  -0.288685  -0.499598  -0.003118  2.234953  -0.003
O  O80  1  0.34747279  0.23992526  0.77333333  1  -0.567159  -0.006261  2.013819  -0.006  -0.518471  -0.002876  2.232025  -0.003  -0.544242  -0.001936  2.226296  -0.002  -0.288803  -0.499648  -0.003114  2.234853  -0.003
O  O81  1  0.60362327  0.94241392  0.35659129  1  -0.533424  -0.013165  2.173384  -0.01  -0.509717  -0.005914  2.465573  -0.005  -0.548376  -0.007064  2.457534  -0.006  -0.300302  -0.483128  -0.003904  2.4692  -0.002
O  O82  1  0.39634689  0.05756076  0.64339451  1  -0.533659  -0.013173  2.173029  -0.01  -0.509921  -0.005915  2.465196  -0.005  -0.548597  -0.007067  2.457141  -0.006  -0.300343  -0.483326  -0.003907  2.468826  -0.002
