# generated using pymatgen
data_Al4H23C25NO20
_symmetry_space_group_name_H-M   'P 1'
_cell_length_a   6.66699435
_cell_length_b   13.44305075
_cell_length_c   16.89641803
_cell_angle_alpha   90.20490006
_cell_angle_beta   88.57490640
_cell_angle_gamma   88.70844684
_symmetry_Int_Tables_number   1
_chemical_formula_structural   Al4H23C25NO20
_chemical_formula_sum   'Al4 H23 C25 N1 O20'
_cell_volume   1513.47116159
_cell_formula_units_Z   1
loop_
 _symmetry_equiv_pos_site_id
 _symmetry_equiv_pos_as_xyz
  1  'x, y, z'
loop_
 _atom_site_type_symbol
 _atom_site_label
 _atom_site_symmetry_multiplicity
 _atom_site_fract_x
 _atom_site_fract_y
 _atom_site_fract_z
 _atom_site_occupancy
 _atom_site_pbe_bader_charge
 _atom_site_pbe_bader_spin_density
 _atom_site_pbe_cm5_charge
 _atom_site_pbe_ddec_charge
 _atom_site_pbe_ddec_spin_density
 _atom_site_pbe_ddec_sum_bond_order
 _atom_site_pbe_magmom
Al  Al0  1  0.89086970  0.50292588  0.49357166  1  2.502452  0  0.396709  1.641218  0  2.578493  0
Al  Al1  1  0.38766825  0.50332458  0.49499551  1  2.500099  0  0.394455  1.63949  0  2.583612  0
Al  Al2  1  0.37378968  0.00482712  0.99970358  1  2.501075  0  0.393431  1.64516  0  2.584903  0
Al  Al3  1  0.87345389  0.00358308  0.99866456  1  2.503286  0  0.397325  1.642913  0  2.575749  0
H  H4  1  0.41659848  0.17684180  0.18290529  1  0.081047  0  0.118434  0.118564  0  0.985337  0
H  H5  1  0.95956343  0.19573590  0.20904831  1  0.095403  0  0.10754  0.12425  0  1.003385  0
H  H6  1  0.00865194  0.30251820  0.29896656  1  0.088673  0  0.099049  0.130627  0  1.033667  0
H  H7  1  0.82919475  0.30928160  0.69039347  1  0.111443  0  0.108901  0.104966  0  0.986088  0
H  H8  1  0.29017433  0.30704012  0.69969493  1  0.074222  0  0.10818  0.122544  0  0.995148  0
H  H9  1  0.82688238  0.20742420  0.81119704  1  0.100963  0  0.11015  0.105781  0  0.982926  0
H  H10  1  0.28687541  0.19188489  0.79071165  1  0.077251  0  0.108416  0.123017  0  0.995382  0
H  H11  1  0.92655170  0.80071778  0.17758519  1  0.103383  0  0.114051  0.11342  0  0.976114  0
H  H12  1  0.46992496  0.81937714  0.20927741  1  0.109546  0  0.110474  0.127192  0  0.992701  0
H  H13  1  0.94085871  0.69884155  0.29911453  1  0.118392  0  0.114583  0.11527  0  0.972996  0
H  H14  1  0.47924683  0.69462194  0.29368521  1  0.069264  0  0.111754  0.127294  0  0.990007  0
H  H15  1  0.93624174  0.81333761  0.79566634  1  0.08822  0  0.109998  0.105361  0  0.983826  0
H  H16  1  0.47953609  0.78668316  0.81224848  1  0.063282  0  0.109055  0.124329  0  0.992811  0
H  H17  1  0.93090508  0.69657572  0.68337458  1  0.103797  0  0.110406  0.107038  0  0.98569  0
H  H18  1  0.46960896  0.71547042  0.69311438  1  0.067202  0  0.108243  0.122801  0  0.994081  0
H  H19  1  0.58686585  0.19165880  0.28222218  1  0.427924  0  0.315459  0.245169  0  0.953867  0
H  H20  1  0.62239600  0.31100139  0.41516882  1  0.144782  0  0.112656  0.140413  0  1.022795  0
H  H21  1  0.67728227  0.18034526  0.40898792  1  0.040415  0  0.102312  0.102539  0  0.982616  0
H  H22  1  0.43356056  0.22470170  0.44135433  1  0.049565  0  0.103492  0.109532  0  0.984695  0
H  H23  1  0.64262575  0.39199812  0.54204235  1  0.624074  0  0.348483  0.418784  0  0.872153  0
H  H24  1  0.13002765  0.62623153  0.52702841  1  0.633895  0  0.35055  0.426335  0  0.862701  0
H  H25  1  0.62184860  0.12686092  0.96568399  1  0.642401  0  0.351968  0.428509  0  0.857176  0
H  H26  1  0.13335487  0.87862935  0.97273023  1  0.628658  0  0.353017  0.431039  0  0.853144  0
C  C27  1  0.64277383  0.61446745  0.38342768  1  1.561954  0  0.261113  0.673175  0  4.123418  0
C  C28  1  0.62706255  0.62686205  0.60190882  1  1.55727  0  0.252437  0.669115  0  4.130534  0
C  C29  1  0.13443539  0.38870213  0.60814038  1  1.552978  0  0.254097  0.671985  0  4.125416  0
C  C30  1  0.15416629  0.37748121  0.39162894  1  1.510103  0  0.243529  0.6856  0  4.151678  0
C  C31  1  0.27983195  0.20148191  0.21543288  1  -0.137714  0  -0.059942  -0.091424  0  3.946659  0
C  C32  1  0.10616824  0.17810942  0.18197640  1  0.076683  0  -0.091741  -0.23268  0  3.909271  0
C  C33  1  0.30912895  0.25161648  0.29163843  1  0.428099  0  0.113404  0.266861  0  4.10125  0
C  C34  1  0.15359553  0.30661482  0.32690167  1  -0.017921  0  -0.14229  -0.43339  0  3.916774  0
C  C35  1  0.97428782  0.28752374  0.71457947  1  -0.052975  0  -0.071182  -0.02856  0  3.987544  0
C  C36  1  0.14003854  0.32371037  0.67845084  1  -0.040151  0  -0.08434  -0.224995  0  3.87446  0
C  C37  1  0.97264069  0.22338464  0.78359166  1  -0.06755  0  -0.068217  -0.022296  0  3.984357  0
C  C38  1  0.13679519  0.18138662  0.81604562  1  -0.021097  0  -0.084638  -0.226563  0  3.878842  0
C  C39  1  0.78502413  0.78482035  0.20867522  1  -0.069035  0  -0.065876  -0.021846  0  3.973849  0
C  C40  1  0.61689021  0.82889396  0.18087683  1  -0.011886  0  -0.086032  -0.236345  0  3.880672  0
C  C41  1  0.79308209  0.71902974  0.27665172  1  -0.099209  0  -0.067244  -0.028527  0  3.978263  0
C  C42  1  0.63145702  0.67977205  0.31352538  1  0.025948  0  -0.080183  -0.224248  0  3.873565  0
C  C43  1  0.79050210  0.78550395  0.77867224  1  0.009941  0  -0.068322  -0.02185  0  3.985191  0
C  C44  1  0.62948615  0.81279761  0.82436127  1  -0.083697  0  -0.085576  -0.228799  0  3.878233  0
C  C45  1  0.78650141  0.72208518  0.70898688  1  -0.022542  0  -0.070719  -0.027468  0  3.98543  0
C  C46  1  0.61999714  0.69284308  0.67224638  1  -0.042323  0  -0.083957  -0.223853  0  3.870291  0
C  C47  1  0.63891522  0.88081737  0.89288405  1  1.566301  0  0.255198  0.672659  0  4.124248  0
C  C48  1  0.61735796  0.89287935  0.11016299  1  1.524721  0  0.258195  0.671655  0  4.127127  0
C  C49  1  0.10598993  0.12013989  0.10749036  1  1.520982  0  0.260825  0.679825  0  4.112908  0
C  C50  1  0.13090435  0.11811017  0.88724222  1  1.556416  0  0.255487  0.672956  0  4.125654  0
C  C51  1  0.56120656  0.23838851  0.40068104  1  0.254257  0  -0.134406  -0.214927  0  3.930135  0
N  N52  1  0.49652685  0.23284145  0.31933118  1  -1.184697  0  -0.415449  -0.23712  0  3.576369  0
O  O53  1  0.45674148  0.59877626  0.57787599  1  -1.249022  0  -0.24639  -0.605323  0  2.295928  0
O  O54  1  0.81394427  0.58636845  0.40786738  1  -1.263552  0  -0.233384  -0.585412  0  2.320037  0
O  O55  1  0.98066749  0.40550078  0.41997336  1  -1.265894  0  -0.253975  -0.621693  0  2.322474  0
O  O56  1  0.79849987  0.60347155  0.57121393  1  -1.256894  0  -0.244132  -0.609525  0  2.334336  0
O  O57  1  0.96416209  0.41628466  0.58222053  1  -1.252892  0  -0.242755  -0.605405  0  2.326314  0
O  O58  1  0.47343104  0.59198661  0.41454975  1  -1.252313  0  -0.235235  -0.588611  0  2.316684  0
O  O59  1  0.64146038  0.44324235  0.50172614  1  -1.42912  0  -0.446365  -0.980222  0  2.215572  0
O  O60  1  0.30627179  0.41165180  0.57896797  1  -1.246828  0  -0.245276  -0.609531  0  2.304908  0
O  O61  1  0.32024245  0.41167255  0.41572569  1  -1.275958  0  -0.245436  -0.606279  0  2.347499  0
O  O62  1  0.13620143  0.56474439  0.49687521  1  -1.439411  0  -0.447011  -0.984934  0  2.204486  0
O  O63  1  0.78400453  0.90841447  0.07416026  1  -1.261103  0  -0.23905  -0.59981  0  2.340998  0
O  O64  1  0.46973460  0.90097228  0.92751451  1  -1.256795  0  -0.243751  -0.610044  0  2.309761  0
O  O65  1  0.30252492  0.08631995  0.90975755  1  -1.253458  0  -0.243427  -0.604612  0  2.306896  0
O  O66  1  0.44628293  0.92754575  0.08977780  1  -1.24203  0  -0.238369  -0.589245  0  2.299783  0
O  O67  1  0.27327309  0.10471678  0.07074245  1  -1.261848  0  -0.240525  -0.601274  0  2.341404  0
O  O68  1  0.80858114  0.91413885  0.91231305  1  -1.259787  0  -0.242207  -0.604248  0  2.31461  0
O  O69  1  0.62178352  0.06541969  0.99547890  1  -1.446859  0  -0.44793  -0.988965  0  2.197716  0
O  O70  1  0.93658209  0.08889302  0.08569798  1  -1.241195  0  -0.238526  -0.587505  0  2.293494  0
O  O71  1  0.96148211  0.10057905  0.92065450  1  -1.258765  0  -0.241719  -0.608976  0  2.320521  0
O  O72  1  0.12667663  0.94324413  0.99837430  1  -1.431846  0  -0.4478  -0.990879  0  2.197044  0
