# generated using pymatgen
data_AlH33(C8O)6
_symmetry_space_group_name_H-M   'P 1'
_cell_length_a   3.93875984
_cell_length_b   23.46798687
_cell_length_c   23.55529915
_cell_angle_alpha   59.94823238
_cell_angle_beta   85.95068193
_cell_angle_gamma   85.49406274
_symmetry_Int_Tables_number   1
_chemical_formula_structural   AlH33(C8O)6
_chemical_formula_sum   'Al1 H33 C48 O6'
_cell_volume   1877.57813254
_cell_formula_units_Z   1
loop_
 _symmetry_equiv_pos_site_id
 _symmetry_equiv_pos_as_xyz
  1  'x, y, z'
loop_
 _atom_site_type_symbol
 _atom_site_label
 _atom_site_symmetry_multiplicity
 _atom_site_fract_x
 _atom_site_fract_y
 _atom_site_fract_z
 _atom_site_occupancy
 _atom_site_pbe_bader_charge
 _atom_site_pbe_bader_spin_density
 _atom_site_pbe_cm5_charge
 _atom_site_pbe_ddec_charge
 _atom_site_pbe_ddec_spin_density
 _atom_site_pbe_ddec_sum_bond_order
 _atom_site_pbe_magmom
Al  Al0  1  0.98405056  0.49890580  0.50112050  1  2.501685  0  0.423313  1.586179  0  2.582218  0
H  H1  1  0.52833868  0.31888121  0.68216246  1  0.040909  0  0.105052  0.106341  0  0.988096  0
H  H2  1  0.53019877  0.25666478  0.80383218  1  0.026552  0  0.09712  0.093691  0  1.013238  0
H  H3  1  0.83514981  0.22574827  0.89191003  1  0.05331  0  0.097731  0.09544  0  1.011314  0
H  H4  1  0.84455766  0.16515201  0.01237036  1  0.043533  0  0.097378  0.096071  0  1.008108  0
H  H5  1  0.47336111  0.80325545  0.25629422  1  0.009255  0  0.096379  0.095627  0  1.021014  0
H  H6  1  0.24704248  0.89831523  0.22378480  1  0.054072  0  0.098286  0.095772  0  1.013674  0
H  H7  1  0.25515231  0.01838568  0.16438921  1  0.040438  0  0.097714  0.096758  0  1.011603  0
H  H8  1  0.52586523  0.10614592  0.10541706  1  0.019523  0  0.096218  0.091823  0  1.036116  0
H  H9  1  0.56843252  0.67851163  0.49726886  1  0.091629  0  0.105683  0.107445  0  0.990614  0
H  H10  1  0.57133450  0.80033468  0.43886481  1  0.053178  0  0.098036  0.095573  0  1.01559  0
H  H11  1  0.79836351  0.89067427  0.37940778  1  0.043237  0  0.098212  0.095819  0  1.01277  0
H  H12  1  0.80372984  0.01075742  0.32015891  1  0.048792  0  0.098286  0.097411  0  1.010131  0
H  H13  1  0.56410911  0.25592954  0.43832421  1  0.064263  0  0.095792  0.094243  0  1.021432  0
H  H14  1  0.27883500  0.22857505  0.38144671  1  0.055884  0  0.097707  0.095242  0  1.01348  0
H  H15  1  0.26781882  0.16826612  0.32166455  1  0.049259  0  0.097788  0.096685  0  1.008736  0
H  H16  1  0.54830744  0.10583903  0.28785405  1  0.022845  0  0.096611  0.092882  0  1.035039  0
H  H17  1  0.62049712  0.49863395  0.32011873  1  0.043952  0  0.104617  0.105263  0  0.991136  0
H  H18  1  0.61277279  0.44053357  0.25665855  1  0.024709  0  0.097556  0.094514  0  1.013656  0
H  H19  1  0.86441812  0.37722568  0.22136923  1  0.030686  0  0.098247  0.096333  0  1.010615  0
H  H20  1  0.85127693  0.31708384  0.16147472  1  0.038728  0  0.096832  0.095624  0  1.011849  0
H  H21  1  0.49721456  0.44042012  0.80399381  1  0.06229  0  0.096707  0.096506  0  1.012868  0
H  H22  1  0.19900059  0.38058883  0.89809398  1  0.074984  0  0.097575  0.094944  0  1.0107  0
H  H23  1  0.21125737  0.32017201  0.01857248  1  0.059501  0  0.096671  0.09493  0  1.009853  0
H  H24  1  0.54617093  0.28897974  0.10510415  1  0.007708  0  0.096219  0.091817  0  1.033696  0
H  H25  1  0.25541855  0.29808995  0.54000098  1  0.037553  0  0.094379  0.136677  0  1.006929  0
H  H26  1  0.65211027  0.32490824  0.54498173  1  0.057711  0  0.09597  0.139688  0  1.004752  0
H  H27  1  0.63485244  0.25200704  0.53952252  1  0.016495  0  0.08681  0.1167  0  1.007073  0
H  H28  1  0.23110529  0.54327615  0.68836703  1  0.007935  0  0.088447  0.119809  0  1.019691  0
H  H29  1  0.48047666  0.54610055  0.62138136  1  0.059316  0  0.097396  0.14713  0  1.008961  0
H  H30  1  0.68048487  0.53967466  0.68979366  1  0.031225  0  0.087953  0.11922  0  1.021923  0
H  H31  1  0.14076182  0.66929971  0.29955743  1  0.046642  0  0.094832  0.139456  0  1.007222  0
H  H32  1  0.53519380  0.62516164  0.32549391  1  0.058906  0  0.095967  0.1408  0  1.004064  0
H  H33  1  0.51911748  0.70428413  0.25293342  1  0.030403  0  0.086456  0.11514  0  1.00968  0
C  C34  1  0.47155840  0.44792672  0.60240538  1  1.575315  0  0.279384  0.665065  0  4.052392  0
C  C35  1  0.53031758  0.44911246  0.44910247  1  1.542014  0  0.277475  0.660249  0  4.058472  0
C  C36  1  0.46638772  0.60044875  0.45039451  1  1.537613  0  0.276302  0.658312  0  4.058045  0
C  C37  1  0.51531456  0.34503410  0.70968595  1  0.103139  0  -0.084908  -0.086145  0  4.011504  0
C  C38  1  0.52065336  0.31039715  0.77770058  1  -0.151146  0  -0.094793  -0.14091  0  4.011338  0
C  C39  1  0.69065932  0.24611445  0.91944466  1  -0.068363  0  -0.091615  -0.126295  0  3.99775  0
C  C40  1  0.69581926  0.21181060  0.98756876  1  -0.040757  0  -0.092319  -0.125716  0  4.000432  0
C  C41  1  0.45431427  0.70824478  0.34227805  1  0.002571  0  0.002156  0.16843  0  3.942968  0
C  C42  1  0.47898069  0.77657087  0.30976638  1  -0.031886  0  -0.092498  -0.194607  0  3.935907  0
C  C43  1  0.37867174  0.92230834  0.24468040  1  -0.207657  0  -0.09296  -0.125049  0  3.997546  0
C  C44  1  0.38246153  0.99065393  0.21093081  1  0.056409  0  -0.092011  -0.12627  0  3.998231  0
C  C45  1  0.48494381  0.41411725  0.67524875  1  -9e-05  0  -0.009541  -0.094276  0  3.917747  0
C  C46  1  0.50857729  0.34417197  0.81313886  1  0.028952  0  -0.005624  0.077477  0  4.018961  0
C  C47  1  0.51659480  0.30801838  0.88541698  1  -0.017393  0  -0.00886  0.064373  0  3.997343  0
C  C48  1  0.52834543  0.23792620  0.02482338  1  0.057592  0  -0.00917  0.063431  0  4.002181  0
C  C49  1  0.53499435  0.20159632  0.09714310  1  -0.101598  0  -0.007369  0.081682  0  4.025401  0
C  C50  1  0.53233068  0.13263746  0.13230922  1  0.056944  0  -0.089451  -0.176912  0  3.933111  0
C  C51  1  0.53790654  0.70696689  0.44437024  1  0.054788  0  -0.08235  -0.080386  0  4.008666  0
C  C52  1  0.54478334  0.77515774  0.41125863  1  -0.11304  0  -0.095924  -0.143414  0  4.008483  0
C  C53  1  0.67071413  0.91822755  0.33290142  1  -0.087476  0  -0.091662  -0.124892  0  3.997255  0
C  C54  1  0.67346459  0.98659735  0.29924263  1  -0.050846  0  -0.092591  -0.126618  0  3.999127  0
C  C55  1  0.54755340  0.34176767  0.44834680  1  -0.053192  0  0.001752  0.168438  0  3.944853  0
C  C56  1  0.56281941  0.30967602  0.41178173  1  -0.088815  0  -0.092592  -0.197025  0  3.941701  0
C  C57  1  0.41332742  0.24752477  0.33385448  1  -0.078611  0  -0.092801  -0.127014  0  3.99721  0
C  C58  1  0.40731769  0.21327527  0.30001694  1  -0.059395  0  -0.092314  -0.125559  0  4.00071  0
C  C59  1  0.48379604  0.67319928  0.41098112  1  0.011726  0  -0.011265  -0.099615  0  3.921722  0
C  C60  1  0.51552891  0.81164551  0.34270212  1  -0.062961  0  -0.003647  0.080148  0  4.0114  0
C  C61  1  0.52312637  0.88421983  0.30657588  1  0.103889  0  -0.009344  0.060701  0  3.996648  0
C  C62  1  0.53007688  0.02459039  0.23729523  1  0.01629  0  -0.007753  0.064896  0  3.995856  0
C  C63  1  0.53573412  0.09724422  0.20106823  1  0.018891  0  -0.008235  0.080123  0  4.021562  0
C  C64  1  0.54481064  0.13254328  0.23444305  1  -0.005591  0  -0.089598  -0.175944  0  3.92826  0
C  C65  1  0.60217052  0.44528756  0.34547318  1  0.085719  0  -0.082834  -0.082863  0  4.008203  0
C  C66  1  0.60199805  0.41244241  0.31012667  1  -0.04155  0  -0.094216  -0.140847  0  4.006013  0
C  C67  1  0.72538907  0.33216993  0.24318492  1  -0.028224  0  -0.092149  -0.126897  0  3.998818  0
C  C68  1  0.71858236  0.29799432  0.20925708  1  -0.001356  0  -0.091941  -0.125495  0  3.996382  0
C  C69  1  0.47389598  0.44934452  0.70923636  1  0.010839  0  0.001107  0.167035  0  3.93788  0
C  C70  1  0.49051040  0.41327883  0.77762092  1  -0.072949  0  -0.092811  -0.195643  0  3.940536  0
C  C71  1  0.34856836  0.33405423  0.92276204  1  0.005275  0  -0.091844  -0.1257  0  3.997235  0
C  C72  1  0.35486284  0.29984137  0.99088453  1  -0.150744  0  -0.092515  -0.12569  0  3.998322  0
C  C73  1  0.56482830  0.41089658  0.41405938  1  -0.059404  0  -0.011432  -0.096164  0  3.920114  0
C  C74  1  0.57973699  0.34362100  0.34282153  1  0.081273  0  -0.005224  0.081848  0  4.011151  0
C  C75  1  0.57331844  0.30774254  0.30640825  1  -0.066543  0  -0.008572  0.063495  0  3.995838  0
C  C76  1  0.55957508  0.23768658  0.23686288  1  0.024441  0  -0.008739  0.062826  0  3.998615  0
C  C77  1  0.54989815  0.20150697  0.20075302  1  0.035323  0  -0.007045  0.08276  0  4.022132  0
C  C78  1  0.54380637  0.23532622  0.13205048  1  -0.035852  0  -0.089719  -0.178918  0  3.934754  0
C  C79  1  0.52281724  0.30212079  0.52215618  1  -0.015299  0  -0.2392  -0.415832  0  3.968814  0
C  C80  1  0.46573475  0.52353548  0.67484959  1  -0.024025  0  -0.237914  -0.409009  0  3.954883  0
C  C81  1  0.41190919  0.67479143  0.30304462  1  -0.056342  0  -0.239821  -0.417808  0  3.970257  0
O  O82  1  0.23675953  0.57301530  0.43826611  1  -1.251439  0  -0.228973  -0.58423  0  2.37769  0
O  O83  1  0.21853752  0.48785269  0.57504228  1  -1.254968  0  -0.230498  -0.586155  0  2.36706  0
O  O84  1  0.27958849  0.43662035  0.49039572  1  -1.261124  0  -0.23215  -0.592817  0  2.387748  0
O  O85  1  0.68364722  0.56927043  0.49531351  1  -1.26804  0  -0.244833  -0.616143  0  2.379821  0
O  O86  1  0.74649529  0.49234764  0.43568373  1  -1.250338  0  -0.241494  -0.603232  0  2.354635  0
O  O87  1  0.71493670  0.43408351  0.57170050  1  -1.259098  0  -0.242997  -0.608752  0  2.361715  0
