# generated using pymatgen
data_NiH20C22(N2O3)2
_symmetry_space_group_name_H-M   'P 1'
_cell_length_a   7.54607247
_cell_length_b   8.05682406
_cell_length_c   8.90202142
_cell_angle_alpha   90.00584790
_cell_angle_beta   82.99603094
_cell_angle_gamma   83.96037835
_symmetry_Int_Tables_number   1
_chemical_formula_structural   NiH20C22(N2O3)2
_chemical_formula_sum   'Ni1 H20 C22 N4 O6'
_cell_volume   534.15328221
_cell_formula_units_Z   1
loop_
 _symmetry_equiv_pos_site_id
 _symmetry_equiv_pos_as_xyz
  1  'x, y, z'
loop_
 _atom_site_type_symbol
 _atom_site_label
 _atom_site_symmetry_multiplicity
 _atom_site_fract_x
 _atom_site_fract_y
 _atom_site_fract_z
 _atom_site_occupancy
 _atom_site_hle17_bader_spin_density
 _atom_site_hle17_ddec_charge
 _atom_site_hle17_ddec_spin_density
 _atom_site_hle17_ddec_sum_bond_order
 _atom_site_hle17_magmom
 _atom_site_hse06_10hf_bader_spin_density
 _atom_site_hse06_10hf_ddec_charge
 _atom_site_hse06_10hf_ddec_spin_density
 _atom_site_hse06_10hf_ddec_sum_bond_order
 _atom_site_hse06_10hf_magmom
 _atom_site_hse06_bader_spin_density
 _atom_site_hse06_ddec_charge
 _atom_site_hse06_ddec_spin_density
 _atom_site_hse06_ddec_sum_bond_order
 _atom_site_hse06_magmom
 _atom_site_pbe_bader_spin_density
 _atom_site_pbe_cm5_charge
 _atom_site_pbe_ddec_charge
 _atom_site_pbe_ddec_spin_density
 _atom_site_pbe_ddec_sum_bond_order
 _atom_site_pbe_magmom
Ni  Ni0  1  0.99999852  0.00000724  0.00000850  1  0  0.626588  0  2.209545  0  0  0.58949  0  2.677927  0  0  0.675469  0  2.593546  0  0  0.608806  0.538993  0  2.731558  0
H  H1  1  0.80304965  0.31345947  0.15212818  1  0  0.118838  0  0.954702  0  0  0.125797  0  1.016759  0  0  0.129648  0  1.010743  0  0  0.142858  0.122391  0  1.022044  0
H  H2  1  0.19695253  0.68655932  0.84787821  1  0  0.118844  0  0.95473  0  0  0.125791  0  1.016801  0  0  0.129653  0  1.010768  0  0  0.142885  0.122389  0  1.022075  0
H  H3  1  0.62494008  0.07057012  0.67311576  1  0  0.103914  0  0.956093  0  0  0.116835  0  1.013928  0  0  0.119204  0  1.013061  0  0  0.105136  0.115035  0  1.014736  0
H  H4  1  0.37506292  0.92942272  0.32687735  1  0  0.103943  0  0.955922  0  0  0.116847  0  1.013781  0  0  0.119222  0  1.012917  0  0  0.105103  0.115034  0  1.014603  0
H  H5  1  0.72875072  0.77292358  0.71473225  1  0  0.094471  0  0.966344  0  0  0.104631  0  1.027944  0  0  0.107493  0  1.026862  0  0  0.098953  0.102646  0  1.028515  0
H  H6  1  0.27124559  0.22707264  0.28525459  1  0  0.09452  0  0.966355  0  0  0.104621  0  1.028007  0  0  0.107484  0  1.026924  0  0  0.09894  0.102634  0  1.028572  0
H  H7  1  0.90506636  0.59828592  0.51217774  1  0  0.081671  0  0.972003  0  0  0.095525  0  1.029308  0  0  0.097694  0  1.028953  0  0  0.096067  0.093898  0  1.029734  0
H  H8  1  0.09492869  0.40170502  0.48780981  1  0  0.081758  0  0.972086  0  0  0.095564  0  1.029412  0  0  0.097731  0  1.02906  0  0  0.096097  0.093939  0  1.029837  0
H  H9  1  0.99610708  0.71697992  0.25561090  1  0  0.129461  0  0.947466  0  0  0.138572  0  1.007357  0  0  0.141986  0  1.004657  0  0  0.109248  0.136068  0  1.009394  0
H  H10  1  0.00388403  0.28302617  0.74437899  1  0  0.129571  0  0.94746  0  0  0.138606  0  1.007431  0  0  0.142041  0  1.004708  0  0  0.10926  0.136101  0  1.009473  0
H  H11  1  0.68025788  0.32668538  0.66978747  1  0  0.110394  0  0.975331  0  0  0.118958  0  1.04011  0  0  0.121992  0  1.038091  0  0  0.107693  0.116256  0  1.042372  0
H  H12  1  0.31974473  0.67332214  0.33022114  1  0  0.110431  0  0.975408  0  0  0.118955  0  1.040226  0  0  0.121989  0  1.038207  0  0  0.10767  0.116256  0  1.042479  0
H  H13  1  0.48309814  0.56951083  0.77303438  1  0  0.110517  0  0.96695  0  0  0.117429  0  1.033786  0  0  0.120637  0  1.031834  0  0  0.110576  0.114235  0  1.036872  0
H  H14  1  0.51689151  0.43048984  0.22697660  1  0  0.110547  0  0.966851  0  0  0.117392  0  1.033794  0  0  0.120631  0  1.031807  0  0  0.110606  0.114203  0  1.036875  0
H  H15  1  0.37891098  0.05410581  0.92432214  1  0  0.002971  0  0.934701  0  0  0.010036  0  1.008341  0  0  0.009478  0  1.004251  0  0  0.108125  0.010155  0  1.011255  0
H  H16  1  0.62109378  0.94587607  0.07567412  1  0  0.002958  0  0.934783  0  0  0.00998  0  1.008459  0  0  0.009459  0  1.004326  0  0  0.108167  0.010111  0  1.01136  0
H  H17  1  0.62683853  0.33458730  0.94697494  1  0  0.396923  0  0.914419  0  0  0.366558  0  0.980253  0  0  0.376543  0  0.965688  0  0  0.275548  0.359596  0  0.990488  0
H  H18  1  0.37319710  0.66540542  0.05301850  1  0  0.396891  0  0.914465  0  0  0.366429  0  0.980429  0  0  0.376415  0  0.965862  0  0  0.275426  0.359467  0  0.990662  0
H  H19  1  0.71525085  0.50022892  0.94306954  1  0  0.404731  0  0.896721  0  0  0.37575  0  0.958166  0  0  0.387645  0  0.940708  0  0  0.278042  0.367525  0  0.970272  0
H  H20  1  0.28476757  0.49977345  0.05692966  1  0  0.404796  0  0.896642  0  0  0.375835  0  0.958047  0  0  0.387729  0  0.940591  0  0  0.278083  0.36761  0  0.970157  0
C  C21  1  0.80496598  0.21042124  0.23142649  1  0  0.211171  0  3.580593  0  0  0.149826  0  3.850112  0  0  0.171123  0  3.856596  0  0  0.16801  0.135218  0  3.846634  0
C  C22  1  0.19503132  0.78959026  0.76857901  1  0  0.21101  0  3.58115  0  0  0.149663  0  3.850673  0  0  0.170952  0  3.857159  0  0  0.167954  0.135046  0  3.847191  0
C  C23  1  0.75453718  0.06032436  0.44015716  1  0  0.106697  0  3.752813  0  0  0.096307  0  3.995571  0  0  0.099842  0  4.018508  0  0  0.094693  0.093936  0  3.980283  0
C  C24  1  0.24544356  0.93967301  0.55984853  1  0  0.106865  0  3.752734  0  0  0.096348  0  3.995647  0  0  0.099883  0  4.018586  0  0  0.094696  0.093972  0  3.980363  0
C  C25  1  0.70474126  0.99524616  0.58277019  1  0  -0.141725  0  3.754418  0  0  -0.163553  0  4.013712  0  0  -0.166812  0  4.034436  0  0  -0.095748  -0.16189  0  3.999942  0
C  C26  1  0.29524841  0.00476209  0.41722871  1  0  -0.141847  0  3.754323  0  0  -0.163626  0  4.013621  0  0  -0.166893  0  4.034355  0  0  -0.095703  -0.161949  0  3.999846  0
C  C27  1  0.76285354  0.82825412  0.60484370  1  0  -0.058229  0  3.759271  0  0  -0.076705  0  4.019916  0  0  -0.078046  0  4.04178  0  0  -0.095904  -0.075271  0  4.004128  0
C  C28  1  0.23713241  0.17175154  0.39514916  1  0  -0.058255  0  3.759554  0  0  -0.07668  0  4.020143  0  0  -0.07802  0  4.042008  0  0  -0.095933  -0.075238  0  4.004338  0
C  C29  1  0.86536650  0.72870121  0.48882227  1  0  -0.070133  0  3.775737  0  0  -0.089396  0  4.035983  0  0  -0.091745  0  4.058919  0  0  -0.099124  -0.087236  0  4.019402  0
C  C30  1  0.13460999  0.27130430  0.51117069  1  0  -0.070148  0  3.776123  0  0  -0.089353  0  4.036313  0  0  -0.091702  0  4.059252  0  0  -0.099101  -0.087191  0  4.019733  0
C  C31  1  0.91475156  0.79195338  0.34616352  1  0  -0.137153  0  3.721817  0  0  -0.157312  0  3.972984  0  0  -0.159956  0  3.993001  0  0  -0.090089  -0.155154  0  3.958776  0
C  C32  1  0.08524149  0.20806089  0.65382754  1  0  -0.137314  0  3.722143  0  0  -0.157435  0  3.973312  0  0  -0.160096  0  3.993317  0  0  -0.090182  -0.155278  0  3.95911  0
C  C33  1  0.85752721  0.95986091  0.32350433  1  0  0.128841  0  3.815555  0  0  0.129744  0  4.059131  0  0  0.133292  0  4.084883  0  0  0.087619  0.127266  0  4.041871  0
C  C34  1  0.14246491  0.04014687  0.67648752  1  0  0.128746  0  3.815672  0  0  0.129705  0  4.059212  0  0  0.133253  0  4.084968  0  0  0.087715  0.127226  0  4.041951  0
C  C35  1  0.61115463  0.36059521  0.44062173  1  0  0.179854  0  3.785558  0  0  0.17025  0  4.034503  0  0  0.174984  0  4.057713  0  0  0.095306  0.166768  0  4.018944  0
C  C36  1  0.38883956  0.63940862  0.55938835  1  0  0.179637  0  3.785497  0  0  0.170235  0  4.034162  0  0  0.174971  0  4.057363  0  0  0.095248  0.16675  0  4.018608  0
C  C37  1  0.59864580  0.39847225  0.59488716  1  0  -0.127406  0  3.732071  0  0  -0.148817  0  3.983865  0  0  -0.151233  0  4.003588  0  0  -0.08522  -0.146944  0  3.971275  0
C  C38  1  0.40134048  0.60152997  0.40511958  1  0  -0.127379  0  3.731805  0  0  -0.1488  0  3.983481  0  0  -0.151217  0  4.003211  0  0  -0.085162  -0.146927  0  3.970887  0
C  C39  1  0.48725929  0.53752851  0.65381231  1  0  -0.131805  0  3.742689  0  0  -0.151316  0  3.994906  0  0  -0.154744  0  4.016208  0  0  -0.083451  -0.148851  0  3.981747  0
C  C40  1  0.51274769  0.46248122  0.34618760  1  0  -0.131958  0  3.742392  0  0  -0.151363  0  3.994654  0  0  -0.154818  0  4.015941  0  0  -0.08354  -0.148898  0  3.981489  0
C  C41  1  0.31099529  0.17110361  0.97967183  1  0  0.554351  0  3.899489  0  0  0.487901  0  4.209726  0  0  0.524564  0  4.205702  0  0  0.148822  0.463075  0  4.211404  0
C  C42  1  0.68901627  0.82887558  0.02033627  1  0  0.554611  0  3.899118  0  0  0.488158  0  4.209386  0  0  0.524796  0  4.205348  0  0  0.149049  0.463324  0  4.211078  0
N  N43  1  0.88483746  0.05842002  0.19567845  1  0  -0.344329  0  3.37396  0  0  -0.301283  0  3.688037  0  0  -0.332373  0  3.700159  0  0  -0.3615  -0.282245  0  3.680265  0
N  N44  1  0.11515472  0.94158280  0.80431503  1  0  -0.344189  0  3.373831  0  0  -0.301123  0  3.687846  0  0  -0.332214  0  3.699981  0  0  -0.361475  -0.282066  0  3.680046  0
N  N45  1  0.72242222  0.21851888  0.37705732  1  0  -0.143511  0  3.539609  0  0  -0.058764  0  3.754215  0  0  -0.07541  0  3.77703  0  0  -0.216941  -0.047694  0  3.738718  0
N  N46  1  0.27757134  0.78148232  0.62295311  1  0  -0.143265  0  3.539687  0  0  -0.058535  0  3.754241  0  0  -0.075187  0  3.777068  0  0  -0.216863  -0.047458  0  3.738746  0
O  O47  1  0.14029056  0.17962263  0.01746730  1  0  -0.489318  0  2.166546  0  0  -0.452055  0  2.4596  0  0  -0.49708  0  2.450469  0  0  -0.295072  -0.422403  0  2.464446  0
O  O48  1  0.85971799  0.82037820  0.98254237  1  0  -0.489539  0  2.166321  0  0  -0.452272  0  2.459405  0  0  -0.497299  0  2.450277  0  0  -0.295172  -0.422627  0  2.464272  0
O  O49  1  0.40142509  0.28790777  0.00430184  1  0  -0.581112  0  2.044975  0  0  -0.519438  0  2.270618  0  0  -0.548469  0  2.262191  0  0  -0.30206  -0.498911  0  2.276219  0
O  O50  1  0.59861551  0.71205868  0.99570270  1  0  -0.581168  0  2.044888  0  0  -0.519422  0  2.270508  0  0  -0.548456  0  2.262093  0  0  -0.302225  -0.49889  0  2.276109  0
O  O51  1  0.74455421  0.37871494  0.92695034  1  0  -0.823366  0  1.769049  0  0  -0.780276  0  1.918158  0  0  -0.798045  0  1.884682  0  0  -0.606013  -0.767029  0  1.941779  0
O  O52  1  0.25547636  0.62128533  0.07303733  1  0  -0.823372  0  1.768969  0  0  -0.780217  0  1.918241  0  0  -0.797988  0  1.884758  0  0  -0.605922  -0.766973  0  1.941863  0
