# generated using pymatgen
data_Zn4H30C32O15
_symmetry_space_group_name_H-M   'P 1'
_cell_length_a   17.95706291
_cell_length_b   18.48096338
_cell_length_c   20.38813533
_cell_angle_alpha   61.00819529
_cell_angle_beta   62.69911778
_cell_angle_gamma   89.90113325
_symmetry_Int_Tables_number   1
_chemical_formula_structural   Zn4H30C32O15
_chemical_formula_sum   'Zn8 H60 C64 O30'
_cell_volume   5042.76774892
_cell_formula_units_Z   2
loop_
 _symmetry_equiv_pos_site_id
 _symmetry_equiv_pos_as_xyz
  1  'x, y, z'
loop_
 _atom_site_type_symbol
 _atom_site_label
 _atom_site_symmetry_multiplicity
 _atom_site_fract_x
 _atom_site_fract_y
 _atom_site_fract_z
 _atom_site_occupancy
 _atom_site_pbe_bader_charge
 _atom_site_pbe_bader_spin_density
 _atom_site_pbe_cm5_charge
 _atom_site_pbe_ddec_charge
 _atom_site_pbe_ddec_spin_density
 _atom_site_pbe_ddec_sum_bond_order
 _atom_site_pbe_magmom
Zn  Zn0  1  0.13072571  0.54396703  0.92346191  1  1.31968  0  0.668534  0.953244  0  2.404265  0
Zn  Zn1  1  0.95975690  0.54801926  0.06947127  1  1.302175  0  0.666958  0.957527  0  2.380926  0
Zn  Zn2  1  0.96816950  0.37919404  0.06243354  1  1.297442  0  0.667655  0.947833  0  2.425898  0
Zn  Zn3  1  0.95622613  0.54406708  0.91283794  1  1.308113  0  0.66811  0.965017  0  2.33957  0
Zn  Zn4  1  0.37689483  0.96920564  0.06232080  1  1.300522  0  0.668085  0.950779  0  2.41105  0
Zn  Zn5  1  0.54455357  0.12900711  0.91924531  1  1.296592  0  0.668353  0.949574  0  2.42098  0
Zn  Zn6  1  0.54044983  0.96002335  0.91397096  1  1.3063  0  0.66809  0.959569  0  2.378797  0
Zn  Zn7  1  0.55323727  0.96062709  0.06838970  1  1.316435  0  0.6678  0.964189  0  2.340623  0
H  H8  1  0.42910948  0.82444331  0.34514564  1  0.074592  0  0.10261  0.098511  0  1.036711  0
H  H9  1  0.20197378  0.83755058  0.32443675  1  0.113926  0  0.115086  0.145111  0  0.979009  0
H  H10  1  0.08515015  0.68231351  0.63849674  1  0.064314  0  0.102688  0.099065  0  1.03747  0
H  H11  1  0.31203007  0.67101040  0.65966457  1  0.111232  0  0.114733  0.144089  0  0.980402  0
H  H12  1  0.67598866  0.08457919  0.64193434  1  0.061018  0  0.102722  0.098743  0  1.038806  0
H  H13  1  0.66716783  0.30987161  0.65373099  1  0.129777  0  0.115523  0.145714  0  0.979719  0
H  H14  1  0.82250513  0.42283968  0.34112930  1  0.044603  0  0.103137  0.100238  0  1.037081  0
H  H15  1  0.83308579  0.19771509  0.32921982  1  0.123889  0  0.115812  0.14571  0  0.978507  0
H  H16  1  0.21742728  0.31557692  0.88405459  1  0.026792  0  0.091099  0.085342  0  0.97953  0
H  H17  1  0.13168240  0.22828544  0.98659854  1  0.043743  0  0.093128  0.092939  0  0.98436  0
H  H18  1  0.22443959  0.13935167  0.98068872  1  0.053509  0  0.09299  0.093313  0  0.985785  0
H  H19  1  0.31055084  0.22819091  0.87998677  1  -0.007439  0  0.091776  0.087132  0  0.977909  0
H  H20  1  0.19988443  0.10894235  0.12470968  1  0.063024  0  0.093785  0.094953  0  0.983422  0
H  H21  1  0.27120230  0.17276396  0.12644465  1  0.006611  0  0.090703  0.084988  0  0.979572  0
H  H22  1  0.11060821  0.20146819  0.12835391  1  0.075463  0  0.093837  0.095023  0  0.984641  0
H  H23  1  0.18471743  0.26663902  0.12615804  1  0.000386  0  0.089966  0.083891  0  0.978838  0
H  H24  1  0.32285364  0.41100825  0.88067551  1  0.035694  0  0.091193  0.090917  0  0.983432  0
H  H25  1  0.30808255  0.39273464  0.97937519  1  0.028275  0  0.090048  0.087655  0  0.980839  0
H  H26  1  0.39666986  0.29970135  0.98150266  1  0.01111  0  0.089327  0.086751  0  0.983407  0
H  H27  1  0.41406075  0.32073041  0.88105064  1  0.022897  0  0.09104  0.090268  0  0.982623  0
H  H28  1  0.90828588  0.81640409  0.87682704  1  0.053928  0  0.091463  0.086238  0  0.979043  0
H  H29  1  0.88730366  0.79092601  0.98050231  1  0.026372  0  0.092638  0.091258  0  0.982759  0
H  H30  1  0.79823181  0.88342663  0.97971745  1  0.023597  0  0.092497  0.090736  0  0.983641  0
H  H31  1  0.81854521  0.90725186  0.87673987  1  0.022358  0  0.091505  0.086304  0  0.978508  0
H  H32  1  0.67257443  0.75847887  0.12009257  1  0.0306  0  0.092144  0.092835  0  0.989317  0
H  H33  1  0.60200112  0.69451865  0.11793872  1  -0.006656  0  0.089593  0.084112  0  0.980092  0
H  H34  1  0.76100372  0.66519813  0.12009424  1  0.057387  0  0.09222  0.093505  0  0.990606  0
H  H35  1  0.69095749  0.60277186  0.11602212  1  0.024888  0  0.089436  0.083686  0  0.979548  0
H  H36  1  0.80954812  0.72648096  0.86949226  1  0.037293  0  0.089963  0.089149  0  0.985748  0
H  H37  1  0.72133836  0.63847576  0.96651307  1  0.016306  0  0.089573  0.086578  0  0.980619  0
H  H38  1  0.63047748  0.72910818  0.96903108  1  0.015008  0  0.089092  0.08549  0  0.980504  0
H  H39  1  0.71850975  0.81676208  0.87123157  1  0.043414  0  0.089887  0.089586  0  0.987146  0
H  H40  1  0.17658374  0.81052718  0.91783542  1  0.005464  0  0.091247  0.085463  0  0.979628  0
H  H41  1  0.26713146  0.78001808  0.86377010  1  0.053118  0  0.094263  0.094479  0  0.980906  0
H  H42  1  0.35856842  0.87460195  0.85907431  1  0.067296  0  0.093516  0.093256  0  0.982752  0
H  H43  1  0.26751594  0.90425728  0.91372141  1  0.031794  0  0.091861  0.086972  0  0.979055  0
H  H44  1  0.40130297  0.74999526  0.94563129  1  0.043041  0  0.092502  0.09407  0  0.986776  0
H  H45  1  0.34189337  0.69135963  0.06175950  1  0.035375  0  0.089639  0.083547  0  0.980636  0
H  H46  1  0.30895882  0.65420518  0.95192742  1  0.066342  0  0.093415  0.09586  0  0.985458  0
H  H47  1  0.24911529  0.59735239  0.06796161  1  0.009954  0  0.089688  0.083702  0  0.979179  0
H  H48  1  0.08899447  0.72697262  0.08517569  1  0.030075  0  0.08996  0.088957  0  0.986513  0
H  H49  1  0.11856935  0.63969560  0.14624480  1  0.02456  0  0.089107  0.085691  0  0.980885  0
H  H50  1  0.21057514  0.73347736  0.14177811  1  0.023534  0  0.090068  0.087412  0  0.980645  0
H  H51  1  0.18077328  0.82063629  0.08109312  1  0.020724  0  0.090768  0.090779  0  0.984966  0
H  H52  1  0.91486289  0.28181730  0.90567173  1  0.02939  0  0.091648  0.086766  0  0.979503  0
H  H53  1  0.87814125  0.36587001  0.84910101  1  0.042139  0  0.092834  0.091071  0  0.981726  0
H  H54  1  0.79299034  0.26691517  0.85272066  1  0.047905  0  0.093845  0.093968  0  0.983612  0
H  H55  1  0.82625890  0.18241385  0.91364636  1  0.03294  0  0.091159  0.085703  0  0.978882  0
H  H56  1  0.66233927  0.30776313  0.93117978  1  0.02067  0  0.093123  0.095024  0  0.9857  0
H  H57  1  0.59966328  0.24891602  0.04723107  1  0.026267  0  0.089407  0.083193  0  0.980721  0
H  H58  1  0.74797655  0.40283106  0.93165548  1  0.061628  0  0.09208  0.093463  0  0.987053  0
H  H59  1  0.68701663  0.34135715  0.04777902  1  0.01023  0  0.089166  0.083297  0  0.980415  0
H  H60  1  0.82828432  0.19226544  0.07329411  1  0.01677  0  0.091052  0.092049  0  0.985092  0
H  H61  1  0.73729039  0.21797527  0.13197851  1  0.035838  0  0.090076  0.087192  0  0.980119  0
H  H62  1  0.64512730  0.12554015  0.13521961  1  0.03957  0  0.089271  0.086372  0  0.981282  0
H  H63  1  0.73554096  0.09594778  0.08117558  1  0.04403  0  0.089624  0.088949  0  0.985962  0
H  H64  1  0.45843742  0.78306113  0.43099511  1  0.606491  0  0.331094  0.360652  0  0.900914  0
H  H65  1  0.05599482  0.72392060  0.55327033  1  0.57464  0  0.330559  0.359501  0  0.902715  0
H  H66  1  0.72045561  0.05507685  0.55930643  1  0.580184  0  0.330728  0.35896  0  0.901968  0
H  H67  1  0.78561421  0.45257383  0.42342073  1  0.606129  0  0.330053  0.359195  0  0.900048  0
C  C68  1  0.13830843  0.63756388  0.00402959  1  1.536279  0  0.234715  0.602946  0  4.097585  0
C  C69  1  0.87902904  0.37239219  0.22970992  1  1.559381  0  0.225526  0.602851  0  4.162775  0
C  C70  1  0.14684586  0.36568703  0.99796675  1  1.514058  0  0.234045  0.60042  0  4.103385  0
C  C71  1  0.86420847  0.36763591  0.98659189  1  1.565572  0  0.234838  0.603047  0  4.094464  0
C  C72  1  0.13535532  0.62503807  0.75478576  1  1.526223  0  0.227504  0.607219  0  4.155335  0
C  C73  1  0.86209545  0.64297486  0.98811849  1  1.548106  0  0.236422  0.606702  0  4.09195  0
C  C74  1  0.36535514  0.14559610  0.99494593  1  1.563744  0  0.234271  0.601447  0  4.097106  0
C  C75  1  0.61808616  0.13510407  0.75341159  1  1.524022  0  0.226409  0.604597  0  4.157999  0
C  C76  1  0.35970051  0.86404965  0.99475630  1  1.534693  0  0.23406  0.600837  0  4.097255  0
C  C77  1  0.64371621  0.86453303  0.98962007  1  1.55287  0  0.234556  0.603996  0  4.094648  0
C  C78  1  0.37789465  0.88337584  0.22903081  1  1.556235  0  0.225651  0.603536  0  4.157924  0
C  C79  1  0.64876224  0.13888169  0.99216087  1  1.553685  0  0.234554  0.604048  0  4.094902  0
C  C80  1  0.35791372  0.80848998  0.37900162  1  -0.012614  0  -0.098121  -0.17399  0  4.001052  0
C  C81  1  0.22971804  0.81643541  0.36596037  1  0.099235  0  -0.10112  -0.226974  0  3.942878  0
C  C82  1  0.17539775  0.77179143  0.45622995  1  0.399627  0  0.085592  0.274542  0  4.067813  0
C  C83  1  0.21034999  0.74378876  0.51234055  1  0.021359  0  -0.015601  -0.021914  0  4.020284  0
C  C84  1  0.15634833  0.69849218  0.60476724  1  -0.005262  0  -0.098927  -0.175003  0  4.008161  0
C  C85  1  0.28433864  0.69143263  0.61807832  1  0.058658  0  -0.101067  -0.224928  0  3.942956  0
C  C86  1  0.33879163  0.73549428  0.52780122  1  0.462231  0  0.086238  0.274628  0  4.065284  0
C  C87  1  0.30401970  0.76328870  0.47151200  1  -0.030253  0  -0.015851  -0.022923  0  4.017314  0
C  C88  1  0.32128778  0.83481715  0.32715722  1  -0.054133  0  -0.019598  -0.008653  0  4.01765  0
C  C89  1  0.19276117  0.67275513  0.65677608  1  -0.013841  0  -0.019409  -0.010834  0  4.023307  0
C  C90  1  0.69348841  0.15490305  0.60584714  1  -0.017343  0  -0.098216  -0.17458  0  4.008981  0
C  C91  1  0.68755091  0.28202338  0.61404578  1  0.04259  0  -0.101478  -0.228521  0  3.94434  0
C  C92  1  0.73357134  0.33514411  0.52338422  1  0.438583  0  0.087333  0.276039  0  4.064226  0
C  C93  1  0.76068878  0.29998317  0.46979448  1  -0.012475  0  -0.016272  -0.021325  0  4.02382  0
C  C94  1  0.80600646  0.35254733  0.37721010  1  -0.036759  0  -0.098645  -0.176299  0  4.011841  0
C  C95  1  0.81246833  0.22550166  0.36893871  1  0.088929  0  -0.100733  -0.226703  0  3.942664  0
C  C96  1  0.76794506  0.17241102  0.45953117  1  0.375676  0  0.086555  0.274126  0  4.065216  0
C  C97  1  0.74004399  0.20752006  0.51320644  1  0.045743  0  -0.015744  -0.021628  0  4.018487  0
C  C98  1  0.66737908  0.19158352  0.65529624  1  0.011856  0  -0.019446  -0.008315  0  4.022849  0
C  C99  1  0.83120164  0.31587234  0.32777640  1  -0.027906  0  -0.018778  -0.007891  0  4.026127  0
C  C100  1  0.20013286  0.26503824  0.95109243  1  -0.031737  0  -0.155841  -0.170382  0  3.855071  0
C  C101  1  0.26132468  0.20600499  0.94839144  1  -0.014232  0  -0.155779  -0.170986  0  3.854561  0
C  C102  1  0.30846813  0.20662526  0.99548453  1  0.023852  0  -0.017376  0.019905  0  3.81324  0
C  C103  1  0.23846548  0.17518071  0.09142817  1  -0.04794  0  -0.157325  -0.172058  0  3.85676  0
C  C104  1  0.17965783  0.23661598  0.09254270  1  -0.036517  0  -0.157567  -0.170967  0  3.856599  0
C  C105  1  0.20766142  0.30829075  0.99741267  1  0.071345  0  -0.016544  0.022329  0  3.81599  0
C  C106  1  0.30315873  0.35988758  0.94815203  1  -0.01532  0  -0.165321  -0.179464  0  3.88917  0
C  C107  1  0.36274785  0.29932088  0.94841039  1  -0.004096  0  -0.164762  -0.176348  0  3.886662  0
C  C108  1  0.85588963  0.79328357  0.94449635  1  -0.053746  0  -0.155011  -0.16931  0  3.846765  0
C  C109  1  0.79630505  0.85422328  0.94447577  1  -0.013049  0  -0.154702  -0.168684  0  3.849438  0
C  C110  1  0.70077654  0.80323200  0.98932909  1  0.040508  0  -0.016994  0.021659  0  3.807174  0
C  C111  1  0.67060925  0.72995168  0.08440186  1  -0.000346  0  -0.15987  -0.173246  0  3.86983  0
C  C112  1  0.72964440  0.66883166  0.08376787  1  -0.039746  0  -0.160143  -0.173617  0  3.867399  0
C  C113  1  0.80138008  0.70081015  0.98828651  1  0.068399  0  -0.016902  0.020877  0  3.810802  0
C  C114  1  0.75844433  0.70415436  0.93717834  1  -0.019162  0  -0.164521  -0.177315  0  3.888239  0
C  C115  1  0.69838235  0.76427160  0.93836243  1  -0.029902  0  -0.163957  -0.175862  0  3.882017  0
C  C116  1  0.23189207  0.78638227  0.92034017  1  -0.029342  0  -0.155378  -0.169976  0  3.850452  0
C  C117  1  0.29251781  0.84886046  0.91739247  1  -0.064502  0  -0.155461  -0.17088  0  3.854439  0
C  C118  1  0.29846142  0.80101594  0.00087788  1  0.048645  0  -0.016715  0.021884  0  3.809095  0
C  C119  1  0.33530401  0.72465314  0.00382621  1  -0.042921  0  -0.160019  -0.174889  0  3.864025  0
C  C120  1  0.27408908  0.66188595  0.00758379  1  -0.051957  0  -0.158876  -0.172784  0  3.858445  0
C  C121  1  0.19594135  0.69590306  0.00597179  1  0.045314  0  -0.016469  0.02157  0  3.811313  0
C  C122  1  0.14538086  0.70406166  0.08540973  1  -0.023353  0  -0.1651  -0.177422  0  3.886628  0
C  C123  1  0.20626573  0.76619962  0.08251908  1  -0.000318  0  -0.16403  -0.177237  0  3.882724  0
C  C124  1  0.85606723  0.30105778  0.90821481  1  -0.043911  0  -0.154113  -0.168927  0  3.849591  0
C  C125  1  0.79801149  0.23584220  0.91151007  1  -0.043288  0  -0.155327  -0.169343  0  3.849601  0
C  C126  1  0.70501277  0.19858437  0.99406525  1  0.031182  0  -0.016177  0.020378  0  3.813159  0
C  C127  1  0.66680470  0.27467014  0.99022584  1  -0.013871  0  -0.157919  -0.170777  0  3.854814  0
C  C128  1  0.72458670  0.33722872  0.98990017  1  -0.030273  0  -0.159399  -0.173916  0  3.865826  0
C  C129  1  0.80388068  0.30559590  0.99063007  1  0.035056  0  -0.016288  0.021433  0  3.805316  0
C  C130  1  0.77154032  0.21448127  0.07342142  1  -0.019899  0  -0.164904  -0.177352  0  3.881145  0
C  C131  1  0.71113924  0.15170788  0.07663251  1  -0.039875  0  -0.165152  -0.178864  0  3.893784  0
O  O132  1  0.00256684  0.50545684  0.99119023  1  -1.212241  0  -0.573005  -1.024776  0  2.544192  0
O  O133  1  0.17743749  0.61864847  0.94652706  1  -1.170414  0  -0.317182  -0.551943  0  2.353934  0
O  O134  1  0.89233615  0.45378230  0.19505068  1  -1.172019  0  -0.318734  -0.548273  0  2.328224  0
O  O135  1  0.06514738  0.32765883  0.04309778  1  -1.179121  0  -0.316711  -0.548735  0  2.353696  0
O  O136  1  0.05610733  0.61354017  0.05792274  1  -1.173172  0  -0.313914  -0.547289  0  2.352728  0
O  O137  1  0.18139580  0.44689171  0.95264413  1  -1.166381  0  -0.313187  -0.546414  0  2.361546  0
O  O138  1  0.90270456  0.33424524  0.18858069  1  -1.165589  0  -0.312809  -0.539527  0  2.350467  0
O  O139  1  0.89425976  0.33349795  0.03693793  1  -1.189625  0  -0.314763  -0.547591  0  2.381883  0
O  O140  1  0.05266786  0.60851346  0.78790638  1  -1.172777  0  -0.318973  -0.551382  0  2.319621  0
O  O141  1  0.88150975  0.44847517  0.93254051  1  -1.180754  0  -0.316902  -0.552851  0  2.321232  0
O  O142  1  0.17452468  0.60477965  0.79726973  1  -1.17559  0  -0.314811  -0.543244  0  2.348053  0
O  O143  1  0.88822733  0.62408577  0.04163776  1  -1.192954  0  -0.319434  -0.556369  0  2.352081  0
O  O144  1  0.88310358  0.61908589  0.93438782  1  -1.185607  0  -0.313792  -0.549068  0  2.344596  0
O  O145  1  0.50480653  0.00279957  0.99185439  1  -1.202555  0  -0.573621  -1.024943  0  2.548116  0
O  O146  1  0.32623739  0.06613028  0.03487509  1  -1.179784  0  -0.317192  -0.550913  0  2.341492  0
O  O147  1  0.59362962  0.17331143  0.79450633  1  -1.162802  0  -0.314149  -0.542179  0  2.345484  0
O  O148  1  0.44074889  0.88751900  0.93657023  1  -1.18555  0  -0.318174  -0.555028  0  2.341375  0
O  O149  1  0.44753076  0.17785867  0.95466577  1  -1.179962  0  -0.313789  -0.545979  0  2.362057  0
O  O150  1  0.32546402  0.88946873  0.04715951  1  -1.161898  0  -0.311997  -0.541705  0  2.364939  0
O  O151  1  0.60446260  0.05364952  0.78822742  1  -1.178474  0  -0.317876  -0.548101  0  2.326681  0
O  O152  1  0.61737542  0.88810301  0.93593187  1  -1.17454  0  -0.31341  -0.547226  0  2.363432  0
O  O153  1  0.46035147  0.89436400  0.19495683  1  -1.181147  0  -0.317574  -0.547358  0  2.308892  0
O  O154  1  0.62775167  0.88824371  0.04300935  1  -1.183977  0  -0.31757  -0.555656  0  2.335767  0
O  O155  1  0.33809747  0.90994828  0.18729581  1  -1.168945  0  -0.313945  -0.542971  0  2.354893  0
O  O156  1  0.63267042  0.17512700  0.93043696  1  -1.172205  0  -0.319258  -0.552615  0  2.356239  0
O  O157  1  0.62270741  0.05832932  0.05060611  1  -1.188251  0  -0.312753  -0.548668  0  2.341221  0
O  O158  1  0.42664094  0.75127167  0.49499834  1  -1.12375  0  -0.354179  -0.436599  0  2.245197  0
O  O159  1  0.08752255  0.75583365  0.48927640  1  -1.091289  0  -0.354011  -0.435415  0  2.245947  0
O  O160  1  0.75172104  0.08556383  0.49541012  1  -1.094182  0  -0.354477  -0.434643  0  2.244894  0
O  O161  1  0.75180869  0.42207435  0.48736874  1  -1.11948  0  -0.35369  -0.435573  0  2.240681  0
