# generated using pymatgen
data_SmH13C16O11
_symmetry_space_group_name_H-M   'P 1'
_cell_length_a   6.73116420
_cell_length_b   10.84308381
_cell_length_c   11.51644668
_cell_angle_alpha   94.34289609
_cell_angle_beta   100.04323294
_cell_angle_gamma   94.71159496
_symmetry_Int_Tables_number   1
_chemical_formula_structural   SmH13C16O11
_chemical_formula_sum   'Sm2 H26 C32 O22'
_cell_volume   821.38892322
_cell_formula_units_Z   2
loop_
 _symmetry_equiv_pos_site_id
 _symmetry_equiv_pos_as_xyz
  1  'x, y, z'
loop_
 _atom_site_type_symbol
 _atom_site_label
 _atom_site_symmetry_multiplicity
 _atom_site_fract_x
 _atom_site_fract_y
 _atom_site_fract_z
 _atom_site_occupancy
 _atom_site_hle17_bader_spin_density
 _atom_site_hle17_ddec_charge
 _atom_site_hle17_ddec_spin_density
 _atom_site_hle17_ddec_sum_bond_order
 _atom_site_hle17_magmom
 _atom_site_hse06_10hf_bader_spin_density
 _atom_site_hse06_10hf_ddec_charge
 _atom_site_hse06_10hf_ddec_spin_density
 _atom_site_hse06_10hf_ddec_sum_bond_order
 _atom_site_hse06_10hf_magmom
 _atom_site_hse06_bader_spin_density
 _atom_site_hse06_ddec_charge
 _atom_site_hse06_ddec_spin_density
 _atom_site_hse06_ddec_sum_bond_order
 _atom_site_hse06_magmom
 _atom_site_pbe_bader_spin_density
 _atom_site_pbe_cm5_charge
 _atom_site_pbe_ddec_charge
 _atom_site_pbe_ddec_spin_density
 _atom_site_pbe_ddec_sum_bond_order
 _atom_site_pbe_magmom
Sm  Sm0  1  0.08240736  0.76471839  0.50053083  1  0  2.282419  0  1.552385  0  0  2.121116  0  2.012926  0  0  2.233065  0  1.843726  0  0  1.480383  2.08876  0  2.043026  0
Sm  Sm1  1  0.91759218  0.23528223  0.49946897  1  0  2.282427  0  1.55238  0  0  2.121198  0  2.012819  0  0  2.233081  0  1.843724  0  0  1.480375  2.08882  0  2.042942  0
H  H2  1  0.77267181  0.54555240  0.51953019  1  0  0.445907  0  0.845122  0  0  0.419027  0  0.901371  0  0  0.429529  0  0.886127  0  0  0.309273  0.411626  0  0.912276  0
H  H3  1  0.22732905  0.45444728  0.48046969  1  0  0.445913  0  0.845109  0  0  0.419036  0  0.901352  0  0  0.429537  0  0.886109  0  0  0.309283  0.411636  0  0.912255  0
H  H4  1  0.93545088  0.54831780  0.63245003  1  0  0.440503  0  0.847731  0  0  0.414648  0  0.903919  0  0  0.424551  0  0.889677  0  0  0.30819  0.407598  0  0.91425  0
H  H5  1  0.06454981  0.45168095  0.36755064  1  0  0.44052  0  0.847713  0  0  0.414667  0  0.903895  0  0  0.42457  0  0.889653  0  0  0.308201  0.407617  0  0.914226  0
H  H6  1  0.30487624  0.97028678  0.68918650  1  0  0.450321  0  0.843636  0  0  0.418814  0  0.907334  0  0  0.429813  0  0.891564  0  0  0.302384  0.411082  0  0.918527  0
H  H7  1  0.69511727  0.02971391  0.31081268  1  0  0.450342  0  0.843607  0  0  0.418838  0  0.907307  0  0  0.429838  0  0.891534  0  0  0.302391  0.411108  0  0.918499  0
H  H8  1  0.23823296  0.02529700  0.56440667  1  0  0.428066  0  0.871173  0  0  0.398168  0  0.937363  0  0  0.408373  0  0.92267  0  0  0.307149  0.390451  0  0.948844  0
H  H9  1  0.76176020  0.97470184  0.43559233  1  0  0.428074  0  0.871151  0  0  0.398169  0  0.937366  0  0  0.408372  0  0.922675  0  0  0.307148  0.390451  0  0.948848  0
H  H10  1  0.53021505  0.75780197  0.41694931  1  0  0.460106  0  0.829985  0  0  0.431068  0  0.88731  0  0  0.442508  0  0.870835  0  0  0.306568  0.423346  0  0.898401  0
H  H11  1  0.46978263  0.24219681  0.58305017  1  0  0.460066  0  0.83004  0  0  0.431028  0  0.887368  0  0  0.442468  0  0.870892  0  0  0.306556  0.423304  0  0.898461  0
H  H12  1  0.48197012  0.86564698  0.50523721  1  0  0.439918  0  0.834781  0  0  0.415197  0  0.898431  0  0  0.424072  0  0.885368  0  0  0.312493  0.408787  0  0.907975  0
H  H13  1  0.51803077  0.13435269  0.49476007  1  0  0.439908  0  0.83476  0  0  0.41518  0  0.898452  0  0  0.424055  0  0.88539  0  0  0.312481  0.40877  0  0.907998  0
H  H14  1  0.21924101  0.79146917  0.84131500  1  0  0.411268  0  0.871301  0  0  0.380869  0  0.9485  0  0  0.393595  0  0.934625  0  0  0.307755  0.372136  0  0.957741  0
H  H15  1  0.78075584  0.20853336  0.15868639  1  0  0.411275  0  0.871268  0  0  0.380884  0  0.948451  0  0  0.393608  0  0.934579  0  0  0.307739  0.372151  0  0.957693  0
H  H16  1  0.49771589  0.73466167  0.16697993  1  0  0.11062  0  0.939413  0  0  0.121254  0  0.99835  0  0  0.124846  0  0.995701  0  0  0.113082  0.119006  0  0.999605  0
H  H17  1  0.50228932  0.26533702  0.83301948  1  0  0.110584  0  0.939468  0  0  0.121239  0  0.998376  0  0  0.124834  0  0.99573  0  0  0.113085  0.11899  0  0.999628  0
H  H18  1  0.21515494  0.62707756  0.01497651  1  0  0.096249  0  0.952629  0  0  0.107192  0  1.012848  0  0  0.110475  0  1.010744  0  0  0.104319  0.104653  0  1.014771  0
H  H19  1  0.78485766  0.37292012  0.98502100  1  0  0.096274  0  0.95264  0  0  0.107209  0  1.01285  0  0  0.110493  0  1.010743  0  0  0.104312  0.104666  0  1.014778  0
H  H20  1  0.14810816  0.39633187  0.00203965  1  0  0.098237  0  0.944139  0  0  0.110384  0  1.002417  0  0  0.113225  0  1.001337  0  0  0.10571  0.108295  0  1.003281  0
H  H21  1  0.85190027  0.60366772  0.99795755  1  0  0.098221  0  0.944092  0  0  0.110394  0  1.002353  0  0  0.113213  0  1.001303  0  0  0.105715  0.108306  0  1.003223  0
H  H22  1  0.28496713  0.24803241  0.32139166  1  0  0.118362  0  0.972256  0  0  0.123044  0  1.042912  0  0  0.127106  0  1.039455  0  0  0.112618  0.119944  0  1.045983  0
H  H23  1  0.71503689  0.75196818  0.67861122  1  0  0.118367  0  0.972285  0  0  0.123062  0  1.042918  0  0  0.127124  0  1.039462  0  0  0.112627  0.119962  0  1.045989  0
H  H24  1  0.15116360  0.88505863  0.13178046  1  0  0.116964  0  0.924696  0  0  0.12748  0  0.984135  0  0  0.131257  0  0.980883  0  0  0.115358  0.124748  0  0.986368  0
H  H25  1  0.84882991  0.11494207  0.86821871  1  0  0.116992  0  0.924726  0  0  0.12749  0  0.984161  0  0  0.131269  0  0.980907  0  0  0.115349  0.124739  0  0.986414  0
H  H26  1  0.35063921  0.19662167  0.95651707  1  0  0.099578  0  0.975032  0  0  0.105871  0  1.045316  0  0  0.109352  0  1.042373  0  0  0.105605  0.103336  0  1.047451  0
H  H27  1  0.64936012  0.80337804  0.04348525  1  0  0.099556  0  0.975006  0  0  0.105845  0  1.045302  0  0  0.109326  0  1.042358  0  0  0.105588  0.10331  0  1.047443  0
C  C28  1  0.55779422  0.43469695  0.22584752  1  0  -0.101316  0  3.668521  0  0  -0.095324  0  3.904268  0  0  -0.100102  0  3.922608  0  0  -0.004517  -0.092025  0  3.891569  0
C  C29  1  0.44220780  0.56530086  0.77415235  1  0  -0.10125  0  3.668386  0  0  -0.095176  0  3.904066  0  0  -0.099956  0  3.922401  0  0  -0.004448  -0.09188  0  3.891366  0
C  C30  1  0.46989697  0.63361710  0.15789558  1  0  -0.066041  0  3.705992  0  0  -0.091699  0  3.959206  0  0  -0.092264  0  3.9775  0  0  -0.075234  -0.091162  0  3.946097  0
C  C31  1  0.53010823  0.36638160  0.84210469  1  0  -0.066005  0  3.70614  0  0  -0.091683  0  3.959335  0  0  -0.092251  0  3.977638  0  0  -0.075258  -0.091146  0  3.946218  0
C  C32  1  0.31034444  0.57299666  0.07407999  1  0  -0.044731  0  3.755375  0  0  -0.06343  0  4.017141  0  0  -0.064149  0  4.036812  0  0  -0.080603  -0.062796  0  4.003681  0
C  C33  1  0.68966735  0.42700475  0.92591769  1  0  -0.04485  0  3.755634  0  0  -0.063526  0  4.017376  0  0  -0.064246  0  4.037041  0  0  -0.080617  -0.062893  0  4.003917  0
C  C34  1  0.59790698  0.56477925  0.23078324  1  0  -0.05615  0  3.721965  0  0  -0.04156  0  3.957154  0  0  -0.045859  0  3.976768  0  0  -0.006238  -0.038532  0  3.943364  0
C  C35  1  0.40209806  0.43521852  0.76921695  1  0  -0.05622  0  3.722099  0  0  -0.041642  0  3.957278  0  0  -0.045949  0  3.976908  0  0  -0.006278  -0.038613  0  3.943483  0
C  C36  1  0.39291857  0.37348823  0.14372787  1  0  0.054615  0  3.73429  0  0  0.063674  0  3.965785  0  0  0.064547  0  3.989727  0  0  0.00641  0.063062  0  3.949484  0
C  C37  1  0.60708361  0.62651050  0.85627382  1  0  0.054712  0  3.734364  0  0  0.063646  0  3.966001  0  0  0.064524  0  3.989932  0  0  0.006396  0.063035  0  3.949698  0
C  C38  1  0.27414908  0.44413856  0.06645594  1  0  -0.094232  0  3.715765  0  0  -0.117495  0  3.967787  0  0  -0.120018  0  3.988778  0  0  -0.078394  -0.115422  0  3.953116  0
C  C39  1  0.72585501  0.55586200  0.93354087  1  0  -0.09412  0  3.715836  0  0  -0.117381  0  3.967882  0  0  -0.119889  0  3.988882  0  0  -0.07835  -0.115312  0  3.953217  0
C  C40  1  0.27949460  0.18794253  0.24052510  1  0  -0.066922  0  3.631292  0  0  -0.107604  0  3.884126  0  0  -0.10383  0  3.89924  0  0  -0.066863  -0.109731  0  3.873708  0
C  C41  1  0.72050324  0.81205719  0.75947620  1  0  -0.06693  0  3.631285  0  0  -0.107611  0  3.884119  0  0  -0.103835  0  3.899228  0  0  -0.066874  -0.109739  0  3.873698  0
C  C42  1  0.20222650  0.98321562  0.13342954  1  0  -0.032306  0  3.648432  0  0  -0.075434  0  3.901153  0  0  -0.070195  0  3.916809  0  0  -0.064291  -0.078317  0  3.889583  0
C  C43  1  0.79776854  0.01678505  0.86656805  1  0  -0.032414  0  3.64857  0  0  -0.075484  0  3.901251  0  0  -0.070246  0  3.916908  0  0  -0.064282  -0.07835  0  3.889679  0
C  C44  1  0.25479900  0.03309494  0.03309683  1  0  -0.09277  0  3.791554  0  0  -0.068003  0  4.033079  0  0  -0.079204  0  4.058433  0  0  -0.02185  -0.060672  0  4.015847  0
C  C45  1  0.74519583  0.96690481  0.96690328  1  0  -0.092729  0  3.791525  0  0  -0.068007  0  4.033063  0  0  -0.079202  0  4.058421  0  0  -0.021849  -0.060681  0  4.01583  0
C  C46  1  0.33156137  0.23837945  0.14053684  1  0  0.047243  0  3.777703  0  0  0.066209  0  4.016437  0  0  0.063284  0  4.039088  0  0  -0.004391  0.067929  0  4.000835  0
C  C47  1  0.66844063  0.76161836  0.85946477  1  0  0.047148  0  3.777945  0  0  0.066127  0  4.016718  0  0  0.063199  0  4.039367  0  0  -0.004432  0.067846  0  4.001116  0
C  C48  1  0.21010004  0.06207390  0.23638835  1  0  -0.073329  0  3.730642  0  0  -0.047065  0  3.968484  0  0  -0.056347  0  3.988686  0  0  -0.014251  -0.041057  0  3.953986  0
C  C49  1  0.78989516  0.93792770  0.76361019  1  0  -0.073346  0  3.730743  0  0  -0.04712  0  3.968581  0  0  -0.056404  0  3.988782  0  0  -0.01425  -0.041111  0  3.954069  0
C  C50  1  0.31385024  0.16041730  0.03641684  1  0  -0.07871  0  3.676034  0  0  -0.11762  0  3.928622  0  0  -0.114622  0  3.945642  0  0  -0.072232  -0.119031  0  3.916579  0
C  C51  1  0.68614761  0.83958241  0.96358272  1  0  -0.078643  0  3.676008  0  0  -0.117547  0  3.928624  0  0  -0.114544  0  3.945638  0  0  -0.072201  -0.118961  0  3.916591  0
C  C52  1  0.25372055  0.95692615  0.92000758  1  0  0.6498  0  3.822254  0  0  0.596935  0  4.123226  0  0  0.629211  0  4.117849  0  0  0.233691  0.575021  0  4.126432  0
C  C53  1  0.74627594  0.04307452  0.07999538  1  0  0.650014  0  3.822122  0  0  0.597205  0  4.123018  0  0  0.629463  0  4.117664  0  0  0.233783  0.575294  0  4.126229  0
C  C54  1  0.13953460  0.01565984  0.34263238  1  0  0.715472  0  3.849124  0  0  0.666358  0  4.137558  0  0  0.70192  0  4.130809  0  0  0.236819  0.642297  0  4.144631  0
C  C55  1  0.86046123  0.98433710  0.65736678  1  0  0.715571  0  3.84905  0  0  0.66651  0  4.137396  0  0  0.702071  0  4.130646  0  0  0.236888  0.642448  0  4.144464  0
C  C56  1  0.68398491  0.36721408  0.31571246  1  0  0.675755  0  3.884243  0  0  0.624058  0  4.18174  0  0  0.657601  0  4.178033  0  0  0.214119  0.600657  0  4.188014  0
C  C57  1  0.31601745  0.63278559  0.68428845  1  0  0.675596  0  3.884399  0  0  0.623912  0  4.181847  0  0  0.657467  0  4.178128  0  0  0.214072  0.600514  0  4.188119  0
C  C58  1  0.77591164  0.63357651  0.31291411  1  0  0.66289  0  3.897654  0  0  0.612959  0  4.191269  0  0  0.645911  0  4.189008  0  0  0.209003  0.589943  0  4.196635  0
C  C59  1  0.22409037  0.36642130  0.68708663  1  0  0.662871  0  3.897656  0  0  0.612934  0  4.191284  0  0  0.645888  0  4.189016  0  0  0.208987  0.589916  0  4.196648  0
O  O60  1  0.86189541  0.60433610  0.58030163  1  0  -0.896765  0  1.853235  0  0  -0.853375  0  2.035611  0  0  -0.879859  0  2.001828  0  0  -0.621253  -0.840127  0  2.056198  0
O  O61  1  0.13810527  0.39566266  0.41969903  1  0  -0.896811  0  1.853246  0  0  -0.853422  0  2.035589  0  0  -0.879897  0  2.00181  0  0  -0.621274  -0.84017  0  2.056175  0
O  O62  1  0.29889622  0.95485817  0.60196937  1  0  -0.912409  0  1.875976  0  0  -0.859776  0  2.070364  0  0  -0.886498  0  2.035334  0  0  -0.629652  -0.845783  0  2.092379  0
O  O63  1  0.70110047  0.04514342  0.39803020  1  0  -0.912442  0  1.875941  0  0  -0.859826  0  2.070339  0  0  -0.886542  0  2.035307  0  0  -0.629649  -0.845829  0  2.092352  0
O  O64  1  0.42191446  0.78954396  0.45687714  1  0  -0.914567  0  1.841393  0  0  -0.864032  0  2.036521  0  0  -0.891001  0  2.001003  0  0  -0.656883  -0.850632  0  2.057439  0
O  O65  1  0.57808508  0.21045666  0.54312179  1  0  -0.914509  0  1.84139  0  0  -0.86399  0  2.036546  0  0  -0.890939  0  2.001017  0  0  -0.656859  -0.850588  0  2.057464  0
O  O66  1  0.13666868  0.09777302  0.42966408  1  0  -0.795303  0  2.109079  0  0  -0.733002  0  2.367641  0  0  -0.767376  0  2.352207  0  0  -0.411726  -0.715825  0  2.377554  0
O  O67  1  0.86332596  0.90222580  0.57033769  1  0  -0.795306  0  2.109127  0  0  -0.733016  0  2.367668  0  0  -0.767398  0  2.352231  0  0  -0.411746  -0.715849  0  2.377587  0
O  O68  1  0.08820892  0.90147890  0.34442665  1  0  -0.696881  0  2.027153  0  0  -0.647373  0  2.276836  0  0  -0.679702  0  2.262362  0  0  -0.376016  -0.63094  0  2.284201  0
O  O69  1  0.91178876  0.09851989  0.65557283  1  0  -0.696934  0  2.026991  0  0  -0.64746  0  2.27666  0  0  -0.679781  0  2.262187  0  0  -0.376062  -0.631024  0  2.284021  0
O  O70  1  0.20621428  0.83551865  0.92124121  1  0  -0.550891  0  2.09554  0  0  -0.499661  0  2.318445  0  0  -0.52308  0  2.30697  0  0  -0.324441  -0.483377  0  2.325733  0
O  O71  1  0.79378055  0.16448110  0.07875977  1  0  -0.55101  0  2.095553  0  0  -0.499791  0  2.318433  0  0  -0.523202  0  2.306965  0  0  -0.324443  -0.483504  0  2.325719  0
O  O72  1  0.29759732  0.00564584  0.83264049  1  0  -0.562044  0  1.993566  0  0  -0.510079  0  2.212347  0  0  -0.531896  0  2.205554  0  0  -0.274932  -0.494984  0  2.216547  0
O  O73  1  0.70239315  0.99435489  0.16736184  1  0  -0.562179  0  1.993532  0  0  -0.510221  0  2.212281  0  0  -0.532032  0  2.205495  0  0  -0.274997  -0.495125  0  2.216486  0
O  O74  1  0.76709118  0.27008266  0.28561026  1  0  -0.691925  0  2.030048  0  0  -0.629967  0  2.262962  0  0  -0.662867  0  2.25454  0  0  -0.346449  -0.611888  0  2.268347  0
O  O75  1  0.23291253  0.72991606  0.71438898  1  0  -0.691903  0  2.030207  0  0  -0.629923  0  2.263071  0  0  -0.662833  0  2.254644  0  0  -0.346429  -0.611846  0  2.268454  0
O  O76  1  0.70892412  0.40791948  0.42426298  1  0  -0.69583  0  2.042795  0  0  -0.638138  0  2.274158  0  0  -0.669058  0  2.263152  0  0  -0.34895  -0.621131  0  2.281206  0
O  O77  1  0.29107841  0.59208112  0.57573887  1  0  -0.695745  0  2.042815  0  0  -0.63806  0  2.274163  0  0  -0.668991  0  2.263153  0  0  -0.348938  -0.621058  0  2.281211  0
O  O78  1  0.95361504  0.59758031  0.32462871  1  0  -0.696771  0  1.939124  0  0  -0.643494  0  2.161171  0  0  -0.674182  0  2.14977  0  0  -0.350318  -0.626908  0  2.168061  0
O  O79  1  0.04638583  0.40241937  0.67537117  1  0  -0.696745  0  1.939072  0  0  -0.643469  0  2.161117  0  0  -0.674149  0  2.149713  0  0  -0.350291  -0.626883  0  2.168006  0
O  O80  1  0.74421577  0.73273328  0.37197495  1  0  -0.684381  0  2.049578  0  0  -0.620211  0  2.276974  0  0  -0.65213  0  2.266879  0  0  -0.36144  -0.602334  0  2.283136  0
O  O81  1  0.25578493  0.26726547  0.62802485  1  0  -0.684361  0  2.049594  0  0  -0.620203  0  2.276986  0  0  -0.652115  0  2.266891  0  0  -0.361453  -0.602326  0  2.283147  0
