# generated using pymatgen
data_CuH14C16S3IN2
_symmetry_space_group_name_H-M   'P 1'
_cell_length_a   8.16086704
_cell_length_b   10.28300449
_cell_length_c   11.15639879
_cell_angle_alpha   74.66034147
_cell_angle_beta   73.38254274
_cell_angle_gamma   80.85603699
_symmetry_Int_Tables_number   1
_chemical_formula_structural   CuH14C16S3IN2
_chemical_formula_sum   'Cu2 H28 C32 S6 I2 N4'
_cell_volume   861.64486252
_cell_formula_units_Z   2
loop_
 _symmetry_equiv_pos_site_id
 _symmetry_equiv_pos_as_xyz
  1  'x, y, z'
loop_
 _atom_site_type_symbol
 _atom_site_label
 _atom_site_symmetry_multiplicity
 _atom_site_fract_x
 _atom_site_fract_y
 _atom_site_fract_z
 _atom_site_occupancy
 _atom_site_hle17_bader_spin_density
 _atom_site_hle17_ddec_charge
 _atom_site_hle17_ddec_spin_density
 _atom_site_hle17_ddec_sum_bond_order
 _atom_site_hle17_magmom
 _atom_site_hse06_10hf_bader_spin_density
 _atom_site_hse06_10hf_ddec_charge
 _atom_site_hse06_10hf_ddec_spin_density
 _atom_site_hse06_10hf_ddec_sum_bond_order
 _atom_site_hse06_10hf_magmom
 _atom_site_hse06_bader_spin_density
 _atom_site_hse06_ddec_charge
 _atom_site_hse06_ddec_spin_density
 _atom_site_hse06_ddec_sum_bond_order
 _atom_site_hse06_magmom
 _atom_site_pbe_bader_spin_density
 _atom_site_pbe_cm5_charge
 _atom_site_pbe_ddec_charge
 _atom_site_pbe_ddec_spin_density
 _atom_site_pbe_ddec_sum_bond_order
 _atom_site_pbe_magmom
Cu  Cu0  1  0.50396094  0.92434216  0.62362086  1  0  0.321905  0  2.01167  0  0  0.216448  0  2.488086  0  0  0.225504  0  2.437088  0  0  0.360602  0.213953  0  2.519383  0
Cu  Cu1  1  0.49603185  0.07565637  0.37637540  1  0  0.32191  0  2.011584  0  0  0.21645  0  2.487982  0  0  0.225513  0  2.437018  0  0  0.36064  0.213962  0  2.519278  0
H  H2  1  0.90583039  0.32675044  0.37916122  1  0  0.099499  0  1.00442  0  0  0.110202  0  1.067418  0  0  0.113387  0  1.066691  0  0  0.089898  0.107836  0  1.06819  0
H  H3  1  0.09416189  0.67325236  0.62084208  1  0  0.099479  0  1.004553  0  0  0.110171  0  1.06756  0  0  0.113357  0  1.06683  0  0  0.089882  0.107804  0  1.068339  0
H  H4  1  0.87753782  0.08344321  0.70346387  1  0  0.102363  0  0.99864  0  0  0.108462  0  1.069066  0  0  0.112583  0  1.067026  0  0  0.082858  0.105418  0  1.070918  0
H  H5  1  0.12246187  0.91656160  0.29653464  1  0  0.102354  0  0.998589  0  0  0.108469  0  1.068998  0  0  0.112591  0  1.066957  0  0  0.082857  0.105426  0  1.070849  0
H  H6  1  0.32400246  0.81895719  0.90643733  1  0  0.071649  0  0.945918  0  0  0.076585  0  1.017971  0  0  0.080245  0  1.013669  0  0  0.105732  0.073745  0  1.021439  0
H  H7  1  0.67599352  0.18104648  0.09355868  1  0  0.071664  0  0.945789  0  0  0.076567  0  1.017869  0  0  0.080225  0  1.013568  0  0  0.105724  0.073725  0  1.021338  0
H  H8  1  0.11642640  0.12932296  0.38999851  1  0  0.072801  0  0.954491  0  0  0.079515  0  1.024073  0  0  0.081693  0  1.022493  0  0  0.104145  0.077906  0  1.02528  0
H  H9  1  0.88356741  0.87067770  0.61000055  1  0  0.072881  0  0.954441  0  0  0.079538  0  1.024076  0  0  0.081714  0  1.022499  0  0  0.10416  0.07793  0  1.025284  0
H  H10  1  0.55350567  0.83980223  0.15551123  1  0  0.103068  0  0.952051  0  0  0.112858  0  1.024446  0  0  0.115038  0  1.022816  0  0  0.091465  0.111258  0  1.025473  0
H  H11  1  0.44650656  0.16019480  0.84449475  1  0  0.103114  0  0.951995  0  0  0.112822  0  1.024407  0  0  0.115002  0  1.022777  0  0  0.091475  0.11123  0  1.025437  0
H  H12  1  0.76968728  0.84192166  0.14887667  1  0  0.10017  0  0.953281  0  0  0.114194  0  1.017625  0  0  0.114523  0  1.019146  0  0  0.097429  0.114168  0  1.016011  0
H  H13  1  0.23032763  0.15807429  0.85112545  1  0  0.100164  0  0.953184  0  0  0.11412  0  1.017528  0  0  0.114464  0  1.01903  0  0  0.097406  0.114102  0  1.015917  0
H  H14  1  0.02155969  0.80269818  0.03092848  1  0  0.102217  0  0.985145  0  0  0.105779  0  1.059834  0  0  0.109458  0  1.058497  0  0  0.097063  0.10345  0  1.060119  0
H  H15  1  0.97843999  0.19730656  0.96906736  1  0  0.102225  0  0.985068  0  0  0.105793  0  1.05975  0  0  0.109471  0  1.058417  0  0  0.097061  0.103463  0  1.060036  0
H  H16  1  0.66717631  0.66340048  0.34790249  1  0  0.106371  0  0.964141  0  0  0.11883  0  1.030909  0  0  0.120758  0  1.030179  0  0  0.088026  0.117507  0  1.031161  0
H  H17  1  0.33282097  0.33659315  0.65209859  1  0  0.106393  0  0.964143  0  0  0.118865  0  1.030927  0  0  0.120792  0  1.030199  0  0  0.088048  0.117542  0  1.031175  0
H  H18  1  0.72376508  0.48846061  0.39582545  1  0  0.104724  0  0.940939  0  0  0.119235  0  1.001734  0  0  0.120906  0  1.001193  0  0  0.09771  0.118177  0  1.002134  0
H  H19  1  0.27623718  0.51153409  0.60417519  1  0  0.104755  0  0.940895  0  0  0.119278  0  1.001705  0  0  0.120953  0  1.001157  0  0  0.097734  0.118218  0  1.002106  0
H  H20  1  0.51549991  0.36620230  0.31907801  1  0  0.065123  0  0.993831  0  0  0.071825  0  1.066155  0  0  0.074152  0  1.064066  0  0  0.097883  0.070036  0  1.067736  0
H  H21  1  0.48449557  0.63379534  0.68092150  1  0  0.065117  0  0.993753  0  0  0.071783  0  1.066134  0  0  0.074113  0  1.064049  0  0  0.097888  0.069999  0  1.067699  0
H  H22  1  0.18810952  0.08491612  0.59306119  1  0  0.065626  0  0.986222  0  0  0.069009  0  1.063737  0  0  0.072507  0  1.059274  0  0  0.099546  0.066129  0  1.067384  0
H  H23  1  0.81189068  0.91508457  0.40693561  1  0  0.065655  0  0.986249  0  0  0.069025  0  1.063773  0  0  0.072521  0  1.059314  0  0  0.099565  0.066145  0  1.067421  0
H  H24  1  0.81303073  0.34091589  0.21312099  1  0  0.126083  0  0.981373  0  0  0.13482  0  1.043991  0  0  0.136992  0  1.043771  0  0  0.10247  0.133148  0  1.04427  0
H  H25  1  0.18697867  0.65908285  0.78687439  1  0  0.125997  0  0.98142  0  0  0.134725  0  1.044088  0  0  0.136889  0  1.043886  0  0  0.102416  0.133083  0  1.044325  0
H  H26  1  0.32519521  0.57783917  0.29095193  1  0  0.113893  0  0.938025  0  0  0.124877  0  0.996175  0  0  0.128595  0  0.994894  0  0  0.101801  0.121077  0  0.999263  0
H  H27  1  0.67480245  0.42216169  0.70905254  1  0  0.113904  0  0.938022  0  0  0.124902  0  0.99615  0  0  0.128612  0  0.994874  0  0  0.101836  0.1211  0  0.999238  0
H  H28  1  0.69809051  0.68905462  0.89093436  1  0  0.122534  0  1.003802  0  0  0.126748  0  1.074095  0  0  0.128674  0  1.074636  0  0  0.09733  0.125291  0  1.073785  0
H  H29  1  0.30190777  0.31095120  0.10906419  1  0  0.122564  0  1.003924  0  0  0.126771  0  1.074224  0  0  0.128696  0  1.074765  0  0  0.097317  0.125314  0  1.073911  0
C  C30  1  0.04020212  0.34349137  0.35942215  1  0  -0.177073  0  3.747906  0  0  -0.1973  0  3.998033  0  0  -0.206015  0  4.018457  0  0  -0.101692  -0.192123  0  3.986254  0
C  C31  1  0.95979541  0.65651041  0.64057852  1  0  -0.176982  0  3.747877  0  0  -0.197186  0  3.997954  0  0  -0.205899  0  4.018377  0  0  -0.101639  -0.192007  0  3.986193  0
C  C32  1  0.97212556  0.02228157  0.75228108  1  0  -0.182313  0  3.751434  0  0  -0.196738  0  3.996378  0  0  -0.205449  0  4.015978  0  0  -0.102463  -0.191353  0  3.983408  0
C  C33  1  0.02787157  0.97772315  0.24771530  1  0  -0.18224  0  3.751408  0  0  -0.196685  0  3.996335  0  0  -0.205394  0  4.015937  0  0  -0.102416  -0.191298  0  3.98336  0
C  C34  1  0.92063089  0.93956392  0.87667981  1  0  0.090221  0  3.779196  0  0  0.106619  0  4.028933  0  0  0.114824  0  4.049305  0  0  0.005886  0.100976  0  4.015275  0
C  C35  1  0.07936790  0.06043778  0.12331702  1  0  0.090137  0  3.779311  0  0  0.106571  0  4.029006  0  0  0.114765  0  4.049394  0  0  0.005795  0.100931  0  4.015342  0
C  C36  1  0.22106989  0.87503124  0.86417558  1  0  0.115038  0  3.723831  0  0  0.087315  0  3.978196  0  0  0.096051  0  3.991814  0  0  0.03054  0.081367  0  3.969248  0
C  C37  1  0.77893185  0.12496749  0.13582321  1  0  0.114956  0  3.72387  0  0  0.08727  0  3.978218  0  0  0.096004  0  3.991838  0  0  0.030519  0.08132  0  3.969274  0
C  C38  1  0.15818950  0.23053396  0.36872233  1  0  0.125183  0  3.709974  0  0  0.097749  0  3.962265  0  0  0.106255  0  3.977585  0  0  0.033625  0.092308  0  3.952539  0
C  C39  1  0.84180394  0.76946989  0.63128135  1  0  0.125138  0  3.709847  0  0  0.097762  0  3.962129  0  0  0.106269  0  3.977445  0  0  0.033635  0.092322  0  3.952404  0
C  C40  1  0.71878254  0.67265066  0.08789513  1  0  0.045701  0  3.775603  0  0  0.061882  0  4.013179  0  0  0.060794  0  4.037786  0  0  -0.037016  0.06221  0  3.99658  0
C  C41  1  0.28122827  0.32734708  0.91210021  1  0  0.045728  0  3.775491  0  0  0.061788  0  4.013117  0  0  0.06069  0  4.037738  0  0  -0.036983  0.062132  0  3.996512  0
C  C42  1  0.68490986  0.81778473  0.09839664  1  0  -0.175007  0  3.680694  0  0  -0.208363  0  3.923291  0  0  -0.207986  0  3.934399  0  0  -0.144497  -0.208349  0  3.915181  0
C  C43  1  0.31510224  0.18221329  0.90160822  1  0  -0.175129  0  3.68084  0  0  -0.208112  0  3.922991  0  0  -0.207736  0  3.934081  0  0  -0.144484  -0.208141  0  3.914934  0
C  C44  1  0.05025280  0.86659286  0.93398430  1  0  -0.176186  0  3.730377  0  0  -0.192142  0  3.977081  0  0  -0.200505  0  3.997989  0  0  -0.101984  -0.186634  0  3.962348  0
C  C45  1  0.94974984  0.13340899  0.06601617  1  0  -0.176156  0  3.730456  0  0  -0.192139  0  3.977157  0  0  -0.200499  0  3.998071  0  0  -0.101932  -0.18663  0  3.962421  0
C  C46  1  0.75350234  0.56266842  0.19066773  1  0  0.041665  0  3.783241  0  0  0.054362  0  4.025668  0  0  0.053264  0  4.050276  0  0  -0.037783  0.055098  0  4.009151  0
C  C47  1  0.24650617  0.43732730  0.80932953  1  0  0.041673  0  3.783124  0  0  0.054349  0  4.025686  0  0  0.053252  0  4.050297  0  0  -0.037782  0.055082  0  4.009164  0
C  C48  1  0.75814035  0.57907615  0.31887104  1  0  -0.173557  0  3.66225  0  0  -0.207727  0  3.907053  0  0  -0.207164  0  3.916864  0  0  -0.14492  -0.208146  0  3.899822  0
C  C49  1  0.24185680  0.42091844  0.68112803  1  0  -0.173601  0  3.662242  0  0  -0.207827  0  3.907151  0  0  -0.207264  0  3.916959  0  0  -0.144958  -0.208234  0  3.899903  0
C  C50  1  0.37981696  0.36231305  0.32879345  1  0  0.127824  0  3.708852  0  0  0.099566  0  3.95567  0  0  0.108046  0  3.971363  0  0  0.028104  0.093869  0  3.944222  0
C  C51  1  0.62018350  0.63768564  0.67120472  1  0  0.12786  0  3.708728  0  0  0.099629  0  3.955571  0  0  0.108099  0  3.971265  0  0  0.028113  0.093935  0  3.944123  0
C  C52  1  0.09571577  0.47325104  0.33092522  1  0  0.08028  0  3.811881  0  0  0.093074  0  4.070814  0  0  0.103091  0  4.08832  0  0  0.001889  0.085844  0  4.060781  0
C  C53  1  0.90427921  0.52675081  0.66907956  1  0  0.08026  0  3.811806  0  0  0.093037  0  4.070789  0  0  0.103054  0  4.088294  0  0  0.001878  0.085784  0  4.060793  0
C  C54  1  0.14483912  0.02333977  0.69006874  1  0  0.119141  0  3.733721  0  0  0.09084  0  3.982999  0  0  0.098893  0  3.998693  0  0  0.023158  0.085773  0  3.972475  0
C  C55  1  0.85516186  0.97665492  0.30993218  1  0  0.119078  0  3.733637  0  0  0.09078  0  3.982925  0  0  0.09883  0  3.998618  0  0  0.023114  0.085713  0  3.972402  0
C  C56  1  0.78258277  0.44014388  0.15599629  1  0  -0.246338  0  3.720155  0  0  -0.266225  0  3.99765  0  0  -0.267517  0  4.016875  0  0  -0.114517  -0.265075  0  3.984499  0
C  C57  1  0.21742114  0.55985788  0.84400035  1  0  -0.246243  0  3.719952  0  0  -0.266109  0  3.997433  0  0  -0.267403  0  4.016656  0  0  -0.1145  -0.264981  0  3.984282  0
C  C58  1  0.27216535  0.48061614  0.31405302  1  0  -0.171399  0  3.719857  0  0  -0.186281  0  3.966246  0  0  -0.193998  0  3.983656  0  0  -0.098201  -0.180886  0  3.954969  0
C  C59  1  0.72783244  0.51938369  0.68595080  1  0  -0.171387  0  3.719909  0  0  -0.186263  0  3.966286  0  0  -0.193976  0  3.983714  0  0  -0.098207  -0.180861  0  3.955016  0
C  C60  1  0.71989505  0.62827036  0.98152047  1  0  -0.248206  0  3.731158  0  0  -0.270777  0  4.01047  0  0  -0.272105  0  4.030849  0  0  -0.119555  -0.269473  0  3.996596  0
C  C61  1  0.28010375  0.37173150  0.01848260  1  0  -0.248279  0  3.731036  0  0  -0.270828  0  4.010385  0  0  -0.272153  0  4.030764  0  0  -0.119577  -0.269523  0  3.996501  0
S  S62  1  0.70029958  0.94071982  0.94703647  1  0  0.029611  0  2.477053  0  0  0.035084  0  2.818586  0  0  0.02873  0  2.820568  0  0  0.037891  0.039257  0  2.817545  0
S  S63  1  0.29970140  0.05928524  0.05297067  1  0  0.029739  0  2.477061  0  0  0.035115  0  2.818446  0  0  0.028762  0  2.820436  0  0  0.037943  0.039287  0  2.817438  0
S  S64  1  0.96484094  0.62500272  0.32064643  1  0  0.024929  0  2.392107  0  0  0.029576  0  2.724108  0  0  0.021899  0  2.728563  0  0  0.032381  0.035245  0  2.722708  0
S  S65  1  0.03515443  0.37499614  0.67936085  1  0  0.024867  0  2.392114  0  0  0.029536  0  2.724164  0  0  0.021861  0  2.728619  0  0  0.032336  0.035213  0  2.722768  0
S  S66  1  0.76554261  0.45695879  0.00335249  1  0  0.176655  0  2.799868  0  0  0.184723  0  3.15679  0  0  0.179974  0  3.169202  0  0  0.079676  0.188222  0  3.147824  0
S  S67  1  0.23445989  0.54304404  0.99664685  1  0  0.176638  0  2.799828  0  0  0.184716  0  3.15674  0  0  0.179971  0  3.16915  0  0  0.079684  0.188208  0  3.147785  0
I  I68  1  0.36984123  0.84084307  0.44500561  1  0  -0.503297  0  1.291454  0  0  -0.449049  0  1.6778  0  0  -0.465651  0  1.643569  0  0  -0.22869  -0.436935  0  1.701527  0
I  I69  1  0.63014735  0.15915865  0.55499786  1  0  -0.503304  0  1.291404  0  0  -0.449059  0  1.677725  0  0  -0.465662  0  1.643497  0  0  -0.228701  -0.436956  0  1.701477  0
N  N70  1  0.27032048  0.94866765  0.74243187  1  0  -0.296764  0  3.373243  0  0  -0.224474  0  3.662793  0  0  -0.237031  0  3.669954  0  0  -0.377865  -0.216889  0  3.657612  0
N  N71  1  0.72967844  0.05133301  0.25756431  1  0  -0.296731  0  3.373215  0  0  -0.22443  0  3.662734  0  0  -0.236983  0  3.669903  0  0  -0.377851  -0.216844  0  3.657554  0
N  N72  1  0.32702574  0.23695562  0.35472168  1  0  -0.304113  0  3.382115  0  0  -0.231089  0  3.678059  0  0  -0.243403  0  3.683161  0  0  -0.377937  -0.22339  0  3.674513  0
N  N73  1  0.67296973  0.76304197  0.64527605  1  0  -0.304217  0  3.382141  0  0  -0.231205  0  3.678087  0  0  -0.243511  0  3.683173  0  0  -0.377983  -0.223508  0  3.674545  0
