# generated using pymatgen
data_ZnH5C6N3Cl2O
_symmetry_space_group_name_H-M   'P 1'
_cell_length_a   6.88393671
_cell_length_b   13.30770748
_cell_length_c   19.27681947
_cell_angle_alpha   89.99997133
_cell_angle_beta   89.99994911
_cell_angle_gamma   90.00000673
_symmetry_Int_Tables_number   1
_chemical_formula_structural   ZnH5C6N3Cl2O
_chemical_formula_sum   'Zn8 H40 C48 N24 Cl16 O8'
_cell_volume   1765.93817411
_cell_formula_units_Z   8
loop_
 _symmetry_equiv_pos_site_id
 _symmetry_equiv_pos_as_xyz
  1  'x, y, z'
loop_
 _atom_site_type_symbol
 _atom_site_label
 _atom_site_symmetry_multiplicity
 _atom_site_fract_x
 _atom_site_fract_y
 _atom_site_fract_z
 _atom_site_occupancy
 _atom_site_hle17_bader_spin_density
 _atom_site_hle17_ddec_charge
 _atom_site_hle17_ddec_spin_density
 _atom_site_hle17_ddec_sum_bond_order
 _atom_site_hle17_magmom
 _atom_site_hse06_10hf_bader_spin_density
 _atom_site_hse06_10hf_ddec_charge
 _atom_site_hse06_10hf_ddec_spin_density
 _atom_site_hse06_10hf_ddec_sum_bond_order
 _atom_site_hse06_10hf_magmom
 _atom_site_hse06_bader_spin_density
 _atom_site_hse06_ddec_charge
 _atom_site_hse06_ddec_spin_density
 _atom_site_hse06_ddec_sum_bond_order
 _atom_site_hse06_magmom
 _atom_site_pbe_bader_spin_density
 _atom_site_pbe_cm5_charge
 _atom_site_pbe_ddec_charge
 _atom_site_pbe_ddec_spin_density
 _atom_site_pbe_ddec_sum_bond_order
 _atom_site_pbe_magmom
Zn  Zn0  1  0.50997816  0.84090428  0.40780927  1  0  0.923963  0  2.035649  0  0  0.757137  0  2.526936  0  0  0.797804  0  2.476709  0  0  0.562795  0.728869  0  2.561386  0
Zn  Zn1  1  0.99001674  0.15909622  0.90780932  1  0  0.923954  0  2.035615  0  0  0.757132  0  2.526892  0  0  0.797802  0  2.476662  0  0  0.562786  0.728858  0  2.561363  0
Zn  Zn2  1  0.49002187  0.34090468  0.09219038  1  0  0.923991  0  2.035581  0  0  0.757148  0  2.526865  0  0  0.797815  0  2.476637  0  0  0.562809  0.728879  0  2.561323  0
Zn  Zn3  1  0.00997767  0.65909603  0.59219042  1  0  0.923962  0  2.035665  0  0  0.757136  0  2.526937  0  0  0.797804  0  2.476713  0  0  0.562814  0.72887  0  2.561384  0
Zn  Zn4  1  0.49001979  0.15909632  0.59219043  1  0  0.923979  0  2.03564  0  0  0.757149  0  2.526925  0  0  0.797818  0  2.476699  0  0  0.562797  0.728875  0  2.561396  0
Zn  Zn5  1  0.00997976  0.84090438  0.09218985  1  0  0.924  0  2.035552  0  0  0.757168  0  2.526845  0  0  0.797837  0  2.476616  0  0  0.562809  0.728898  0  2.561293  0
Zn  Zn6  1  0.50997753  0.65909593  0.90781035  1  0  0.923977  0  2.035638  0  0  0.757146  0  2.526917  0  0  0.797816  0  2.47669  0  0  0.562815  0.728879  0  2.561366  0
Zn  Zn7  1  0.99002028  0.34090232  0.40780927  1  0  0.923958  0  2.035655  0  0  0.757123  0  2.526955  0  0  0.797792  0  2.476732  0  0  0.562796  0.728855  0  2.561399  0
H  H8  1  0.62528561  0.65364886  0.48499784  1  0  0.077464  0  0.965961  0  0  0.081765  0  1.040012  0  0  0.084088  0  1.036397  0  0  0.119867  0.07991  0  1.042737  0
H  H9  1  0.87471492  0.34635308  0.98499735  1  0  0.07746  0  0.965989  0  0  0.081752  0  1.040051  0  0  0.084079  0  1.036434  0  0  0.119872  0.079895  0  1.042783  0
H  H10  1  0.37471873  0.15364931  0.01500342  1  0  0.077492  0  0.965974  0  0  0.0818  0  1.040005  0  0  0.084123  0  1.036391  0  0  0.119882  0.079943  0  1.04274  0
H  H11  1  0.12528536  0.84635220  0.51500232  1  0  0.077436  0  0.966001  0  0  0.081741  0  1.040043  0  0  0.084067  0  1.036426  0  0  0.119852  0.079884  0  1.042772  0
H  H12  1  0.37471525  0.34635249  0.51500341  1  0  0.077491  0  0.965941  0  0  0.081777  0  1.040004  0  0  0.084105  0  1.036385  0  0  0.119872  0.079918  0  1.042724  0
H  H13  1  0.12528594  0.65364752  0.01500234  1  0  0.077455  0  0.965991  0  0  0.081753  0  1.040058  0  0  0.084078  0  1.03644  0  0  0.119849  0.079893  0  1.042787  0
H  H14  1  0.62528503  0.84635129  0.98499730  1  0  0.077465  0  0.96593  0  0  0.081755  0  1.039998  0  0  0.084081  0  1.036378  0  0  0.119857  0.079895  0  1.042728  0
H  H15  1  0.87471840  0.15364539  0.48499633  1  0  0.077496  0  0.965965  0  0  0.081788  0  1.040008  0  0  0.084118  0  1.036389  0  0  0.119879  0.079927  0  1.042735  0
H  H16  1  0.60634483  0.66235297  0.14304569  1  0  0.105044  0  0.972057  0  0  0.114021  0  1.036328  0  0  0.115924  0  1.035014  0  0  0.106765  0.112515  0  1.037401  0
H  H17  1  0.89365798  0.33764623  0.64304467  1  0  0.105057  0  0.972023  0  0  0.114035  0  1.03629  0  0  0.115938  0  1.034976  0  0  0.106774  0.112533  0  1.037359  0
H  H18  1  0.39365661  0.16235316  0.35695454  1  0  0.105051  0  0.972058  0  0  0.114033  0  1.036317  0  0  0.115936  0  1.035003  0  0  0.106776  0.112533  0  1.037381  0
H  H19  1  0.10634230  0.83764660  0.85695500  1  0  0.105069  0  0.97203  0  0  0.114048  0  1.036296  0  0  0.115952  0  1.034981  0  0  0.106783  0.112545  0  1.037366  0
H  H20  1  0.39365748  0.33764614  0.85695556  1  0  0.105043  0  0.97203  0  0  0.114024  0  1.036293  0  0  0.115927  0  1.034979  0  0  0.106769  0.112522  0  1.037359  0
H  H21  1  0.10634288  0.66235438  0.35695450  1  0  0.105078  0  0.972022  0  0  0.114053  0  1.036289  0  0  0.115957  0  1.034975  0  0  0.106787  0.11255  0  1.03736  0
H  H22  1  0.60634279  0.83764443  0.64304515  1  0  0.10506  0  0.972045  0  0  0.114024  0  1.036328  0  0  0.115927  0  1.035015  0  0  0.106777  0.11252  0  1.037396  0
H  H23  1  0.89365711  0.16235401  0.14304469  1  0  0.105035  0  0.97204  0  0  0.114012  0  1.036307  0  0  0.115915  0  1.034994  0  0  0.106766  0.112508  0  1.037375  0
H  H24  1  0.50714712  0.79397665  0.24483633  1  0  0.145951  0  0.946332  0  0  0.152201  0  1.007942  0  0  0.156216  0  1.006092  0  0  0.107967  0.14931  0  1.009473  0
H  H25  1  0.99285398  0.20602322  0.74483637  1  0  0.145951  0  0.946329  0  0  0.152194  0  1.007953  0  0  0.156209  0  1.006103  0  0  0.107974  0.149304  0  1.009483  0
H  H26  1  0.49285435  0.29397768  0.25516489  1  0  0.145938  0  0.946301  0  0  0.152193  0  1.007911  0  0  0.156208  0  1.006059  0  0  0.107955  0.149302  0  1.009442  0
H  H27  1  0.00714480  0.70602291  0.75516387  1  0  0.145967  0  0.946317  0  0  0.152215  0  1.007939  0  0  0.15623  0  1.006087  0  0  0.10798  0.149322  0  1.009468  0
H  H28  1  0.49285373  0.20602320  0.75516388  1  0  0.145939  0  0.946343  0  0  0.152185  0  1.007958  0  0  0.1562  0  1.006107  0  0  0.107966  0.149295  0  1.009481  0
H  H29  1  0.00714687  0.79397814  0.25516332  1  0  0.145905  0  0.946331  0  0  0.152167  0  1.007935  0  0  0.156181  0  1.006086  0  0  0.107959  0.149278  0  1.00946  0
H  H30  1  0.50714505  0.70602067  0.74483688  1  0  0.145915  0  0.946336  0  0  0.152175  0  1.007948  0  0  0.15619  0  1.006099  0  0  0.107952  0.149284  0  1.009476  0
H  H31  1  0.99285460  0.29397694  0.24483634  1  0  0.145956  0  0.946313  0  0  0.152199  0  1.007943  0  0  0.156214  0  1.006091  0  0  0.107976  0.149306  0  1.009475  0
H  H32  1  0.75148812  0.49598235  0.45653465  1  0  0.300059  0  0.928547  0  0  0.27971  0  0.997135  0  0  0.287951  0  0.991048  0  0  0.287382  0.273876  0  1.001506  0
H  H33  1  0.74851102  0.50401887  0.95653310  1  0  0.300027  0  0.928625  0  0  0.279703  0  0.997208  0  0  0.287944  0  0.991127  0  0  0.287374  0.27387  0  1.001583  0
H  H34  1  0.24851486  0.99598371  0.04346650  1  0  0.300067  0  0.928556  0  0  0.279707  0  0.997161  0  0  0.287949  0  0.991073  0  0  0.28739  0.273871  0  1.001537  0
H  H35  1  0.25148771  0.00401778  0.54346669  1  0  0.300056  0  0.928754  0  0  0.279726  0  0.99733  0  0  0.287966  0  0.991251  0  0  0.287418  0.273891  0  1.001699  0
H  H36  1  0.24851274  0.50401825  0.54346764  1  0  0.300021  0  0.928553  0  0  0.279694  0  0.997133  0  0  0.287936  0  0.991048  0  0  0.28738  0.273862  0  1.001504  0
H  H37  1  0.25148693  0.49598174  0.04346659  1  0  0.300048  0  0.92876  0  0  0.279728  0  0.997339  0  0  0.287969  0  0.991257  0  0  0.287412  0.273894  0  1.001717  0
H  H38  1  0.75148745  0.00401689  0.95653319  1  0  0.300041  0  0.928541  0  0  0.279696  0  0.997127  0  0  0.287936  0  0.991045  0  0  0.287377  0.273861  0  1.001502  0
H  H39  1  0.74851460  0.99598057  0.45653197  1  0  0.300017  0  0.928583  0  0  0.279682  0  0.997175  0  0  0.287924  0  0.991089  0  0  0.287362  0.273848  0  1.001548  0
H  H40  1  0.72370201  0.50287394  0.19775078  1  0  0.29344  0  0.923042  0  0  0.272812  0  0.992378  0  0  0.280558  0  0.986343  0  0  0.29061  0.267272  0  0.996742  0
H  H41  1  0.77629631  0.49712596  0.69774871  1  0  0.293563  0  0.922914  0  0  0.272839  0  0.992344  0  0  0.280582  0  0.98631  0  0  0.290637  0.267303  0  0.996707  0
H  H42  1  0.27629503  0.00287492  0.30224950  1  0  0.293456  0  0.923031  0  0  0.272808  0  0.992359  0  0  0.280551  0  0.986324  0  0  0.290608  0.26727  0  0.996722  0
H  H43  1  0.22370256  0.99712563  0.80224935  1  0  0.293437  0  0.923048  0  0  0.272805  0  0.992386  0  0  0.280551  0  0.98635  0  0  0.290604  0.267269  0  0.996746  0
H  H44  1  0.27629740  0.49712591  0.80225151  1  0  0.293551  0  0.922948  0  0  0.272827  0  0.99238  0  0  0.280571  0  0.986345  0  0  0.290612  0.267291  0  0.996745  0
H  H45  1  0.22370455  0.50287539  0.30224994  1  0  0.293445  0  0.923066  0  0  0.272803  0  0.992396  0  0  0.280548  0  0.986361  0  0  0.290604  0.267265  0  0.996762  0
H  H46  1  0.72370147  0.99712418  0.69775019  1  0  0.293503  0  0.923066  0  0  0.272848  0  0.992391  0  0  0.280593  0  0.986354  0  0  0.290638  0.267307  0  0.996759  0
H  H47  1  0.77629685  0.00287422  0.19774878  1  0  0.293556  0  0.922959  0  0  0.272826  0  0.99238  0  0  0.280567  0  0.986347  0  0  0.290631  0.267289  0  0.996743  0
C  C48  1  0.63609635  0.63364168  0.43026008  1  0  0.334973  0  3.670257  0  0  0.26537  0  3.944723  0  0  0.286472  0  3.952958  0  0  0.184847  0.251562  0  3.938816  0
C  C49  1  0.86390141  0.36635956  0.93025907  1  0  0.334935  0  3.670521  0  0  0.26537  0  3.944981  0  0  0.286469  0  3.953221  0  0  0.184824  0.251568  0  3.939075  0
C  C50  1  0.36390508  0.13364284  0.06974016  1  0  0.334948  0  3.670394  0  0  0.26533  0  3.94483  0  0  0.28643  0  3.953066  0  0  0.184854  0.251525  0  3.938923  0
C  C51  1  0.13609742  0.86635788  0.56974060  1  0  0.334906  0  3.670443  0  0  0.26533  0  3.944915  0  0  0.286432  0  3.953151  0  0  0.184838  0.251529  0  3.939  0
C  C52  1  0.36390160  0.36635967  0.56974117  1  0  0.334949  0  3.670479  0  0  0.265394  0  3.944916  0  0  0.286496  0  3.953153  0  0  0.184839  0.251598  0  3.938992  0
C  C53  1  0.13609800  0.63364180  0.06974063  1  0  0.334946  0  3.670504  0  0  0.265369  0  3.945001  0  0  0.28647  0  3.95324  0  0  0.184867  0.251566  0  3.93909  0
C  C54  1  0.63609578  0.86635777  0.93026005  1  0  0.335021  0  3.670195  0  0  0.265442  0  3.944646  0  0  0.286548  0  3.952879  0  0  0.184876  0.251641  0  3.938737  0
C  C55  1  0.86390343  0.13363896  0.43025909  1  0  0.334908  0  3.670517  0  0  0.265357  0  3.944952  0  0  0.286454  0  3.953192  0  0  0.184849  0.25156  0  3.939031  0
C  C56  1  0.60082017  0.66745070  0.31423160  1  0  0.201046  0  3.816136  0  0  0.186583  0  4.069089  0  0  0.196374  0  4.091679  0  0  0.096846  0.180343  0  4.053671  0
C  C57  1  0.89917787  0.33254987  0.81423111  1  0  0.201056  0  3.816187  0  0  0.186588  0  4.069138  0  0  0.196377  0  4.09173  0  0  0.096859  0.180348  0  4.053718  0
C  C58  1  0.39917837  0.16745177  0.18576914  1  0  0.200995  0  3.816193  0  0  0.186431  0  4.069281  0  0  0.196217  0  4.091875  0  0  0.096782  0.180193  0  4.05386  0
C  C59  1  0.10082241  0.83254811  0.68576805  1  0  0.201058  0  3.816014  0  0  0.186565  0  4.06902  0  0  0.196356  0  4.09161  0  0  0.096851  0.180322  0  4.053604  0
C  C60  1  0.39917778  0.33254915  0.68576964  1  0  0.201037  0  3.816182  0  0  0.186569  0  4.069136  0  0  0.196361  0  4.091727  0  0  0.096858  0.180327  0  4.053723  0
C  C61  1  0.10082299  0.66745224  0.18576858  1  0  0.201012  0  3.815925  0  0  0.186562  0  4.068883  0  0  0.196353  0  4.091473  0  0  0.096903  0.180322  0  4.053464  0
C  C62  1  0.60082104  0.83254808  0.81423107  1  0  0.201046  0  3.816102  0  0  0.186566  0  4.069111  0  0  0.196358  0  4.091701  0  0  0.096825  0.180319  0  4.053699  0
C  C63  1  0.89917845  0.16745024  0.31423060  1  0  0.200985  0  3.816238  0  0  0.186515  0  4.069212  0  0  0.196305  0  4.091806  0  0  0.096837  0.180273  0  4.053793  0
C  C64  1  0.67451057  0.57082250  0.29735434  1  0  -0.034638  0  3.77967  0  0  -0.041936  0  4.03313  0  0  -0.049221  0  4.056464  0  0  0.079454  -0.037585  0  4.017641  0
C  C65  1  0.82548751  0.42917809  0.79735332  1  0  -0.034579  0  3.779616  0  0  -0.041913  0  4.033031  0  0  -0.0492  0  4.056356  0  0  0.079477  -0.037559  0  4.01754  0
C  C66  1  0.32548939  0.07082430  0.20264643  1  0  -0.034573  0  3.779579  0  0  -0.041869  0  4.033024  0  0  -0.049159  0  4.056357  0  0  0.079477  -0.037514  0  4.017527  0
C  C67  1  0.17451279  0.92917782  0.70264529  1  0  -0.034599  0  3.779615  0  0  -0.041891  0  4.033064  0  0  -0.04918  0  4.0564  0  0  0.079448  -0.037535  0  4.01757  0
C  C68  1  0.32548738  0.42917736  0.70264639  1  0  -0.034558  0  3.779649  0  0  -0.041903  0  4.033059  0  0  -0.049195  0  4.056392  0  0  0.079465  -0.03755  0  4.017577  0
C  C69  1  0.17451480  0.57082252  0.20264534  1  0  -0.034474  0  3.779599  0  0  -0.04179  0  4.03305  0  0  -0.04908  0  4.056385  0  0  0.079419  -0.037436  0  4.017556  0
C  C70  1  0.67451146  0.92917555  0.79735378  1  0  -0.034538  0  3.779583  0  0  -0.041879  0  4.033003  0  0  -0.049171  0  4.056339  0  0  0.079477  -0.037522  0  4.017506  0
C  C71  1  0.82548806  0.07082203  0.29735285  1  0  -0.03459  0  3.779621  0  0  -0.041934  0  4.033019  0  0  -0.049225  0  4.056344  0  0  0.079485  -0.037578  0  4.017526  0
C  C72  1  0.73939343  0.50405741  0.34920885  1  0  0.514437  0  3.853539  0  0  0.466211  0  4.137302  0  0  0.495049  0  4.139666  0  0  0.228947  0.446884  0  4.135292  0
C  C73  1  0.76060452  0.49594313  0.84920731  1  0  0.514309  0  3.853497  0  0  0.466101  0  4.137306  0  0  0.494939  0  4.13967  0  0  0.228936  0.446783  0  4.135283  0
C  C74  1  0.26060361  0.00405775  0.15079039  1  0  0.514512  0  3.853527  0  0  0.466259  0  4.137316  0  0  0.495099  0  4.139678  0  0  0.228991  0.446937  0  4.135295  0
C  C75  1  0.23939434  0.99594066  0.65079231  1  0  0.514357  0  3.853431  0  0  0.466167  0  4.13719  0  0  0.495007  0  4.139553  0  0  0.228936  0.446841  0  4.135175  0
C  C76  1  0.26060452  0.49594244  0.65079291  1  0  0.51446  0  3.853469  0  0  0.466293  0  4.13719  0  0  0.495134  0  4.139548  0  0  0.228964  0.44696  0  4.135193  0
C  C77  1  0.23939488  0.50405972  0.15079187  1  0  0.51436  0  3.853369  0  0  0.466131  0  4.137227  0  0  0.494969  0  4.139592  0  0  0.228952  0.446808  0  4.135212  0
C  C78  1  0.73939434  0.99594210  0.84920826  1  0  0.514404  0  3.853488  0  0  0.466204  0  4.137224  0  0  0.495045  0  4.139587  0  0  0.228972  0.446884  0  4.135202  0
C  C79  1  0.76060506  0.00405619  0.34920686  1  0  0.514466  0  3.8535  0  0  0.466264  0  4.137265  0  0  0.495103  0  4.139624  0  0  0.22896  0.446937  0  4.135256  0
C  C80  1  0.61222657  0.65206492  0.19886921  1  0  0.110103  0  3.630933  0  0  0.062997  0  3.901764  0  0  0.073102  0  3.916668  0  0  0.026029  0.056735  0  3.891179  0
C  C81  1  0.88777320  0.34793498  0.69886871  1  0  0.110069  0  3.631133  0  0  0.062924  0  3.901923  0  0  0.073023  0  3.916827  0  0  0.026029  0.056661  0  3.891334  0
C  C82  1  0.38777341  0.15206591  0.30113102  1  0  0.110063  0  3.631215  0  0  0.062914  0  3.902039  0  0  0.073014  0  3.916943  0  0  0.025988  0.056643  0  3.891455  0
C  C83  1  0.11222708  0.84793464  0.80113044  1  0  0.110048  0  3.631085  0  0  0.06293  0  3.901929  0  0  0.073035  0  3.916833  0  0  0.025989  0.056658  0  3.89135  0
C  C84  1  0.38777429  0.34793418  0.80113152  1  0  0.110116  0  3.63109  0  0  0.06297  0  3.901886  0  0  0.073072  0  3.916789  0  0  0.026035  0.056704  0  3.891299  0
C  C85  1  0.11222621  0.65206713  0.30113046  1  0  0.110024  0  3.631112  0  0  0.062896  0  3.901942  0  0  0.072998  0  3.916845  0  0  0.025987  0.056632  0  3.891349  0
C  C86  1  0.61222599  0.84793244  0.69886919  1  0  0.110057  0  3.631066  0  0  0.062918  0  3.901892  0  0  0.073019  0  3.916795  0  0  0.025982  0.056654  0  3.8913  0
C  C87  1  0.88777378  0.15206521  0.19886822  1  0  0.11012  0  3.631153  0  0  0.06297  0  3.901919  0  0  0.073068  0  3.916821  0  0  0.026041  0.056703  0  3.891333  0
C  C88  1  0.56219410  0.71840540  0.25155373  1  0  -0.247741  0  3.712379  0  0  -0.268974  0  3.981089  0  0  -0.279421  0  4.001151  0  0  -0.115223  -0.262165  0  3.967411  0
C  C89  1  0.93780554  0.28159521  0.75155272  1  0  -0.247685  0  3.712428  0  0  -0.268923  0  3.981141  0  0  -0.279372  0  4.001209  0  0  -0.115207  -0.262111  0  3.967459  0
C  C90  1  0.43780590  0.21840568  0.24844752  1  0  -0.247609  0  3.712364  0  0  -0.268829  0  3.981116  0  0  -0.279278  0  4.001185  0  0  -0.115145  -0.262022  0  3.967439  0
C  C91  1  0.06219326  0.78159491  0.74844594  1  0  -0.247703  0  3.712378  0  0  -0.268936  0  3.981105  0  0  -0.279384  0  4.001168  0  0  -0.11521  -0.262126  0  3.967427  0
C  C92  1  0.43780531  0.28159520  0.74844752  1  0  -0.247674  0  3.712423  0  0  -0.268901  0  3.981121  0  0  -0.27935  0  4.001188  0  0  -0.115207  -0.26209  0  3.967433  0
C  C93  1  0.06219677  0.71840614  0.24844645  1  0  -0.247602  0  3.712395  0  0  -0.268864  0  3.981138  0  0  -0.279312  0  4.001202  0  0  -0.115208  -0.262055  0  3.967457  0
C  C94  1  0.56219495  0.78159267  0.75155373  1  0  -0.247624  0  3.712332  0  0  -0.268886  0  3.981095  0  0  -0.279335  0  4.001157  0  0  -0.115188  -0.262076  0  3.967417  0
C  C95  1  0.93780614  0.21840494  0.25155220  1  0  -0.247666  0  3.712366  0  0  -0.268909  0  3.98108  0  0  -0.279359  0  4.001149  0  0  -0.115206  -0.262098  0  3.9674  0
N  N96  1  0.70825129  0.54162208  0.41568662  1  0  -0.39548  0  3.39272  0  0  -0.325976  0  3.621692  0  0  -0.348603  0  3.631003  0  0  -0.370478  -0.310927  0  3.615188  0
N  N97  1  0.79174650  0.45837992  0.91568560  1  0  -0.395279  0  3.392832  0  0  -0.325895  0  3.621918  0  0  -0.348526  0  3.631232  0  0  -0.370408  -0.310851  0  3.615416  0
N  N98  1  0.29175012  0.04162398  0.08431313  1  0  -0.39555  0  3.392793  0  0  -0.32601  0  3.621734  0  0  -0.348636  0  3.631046  0  0  -0.370535  -0.310964  0  3.615229  0
N  N99  1  0.20825526  0.95837899  0.58431300  1  0  -0.395301  0  3.392706  0  0  -0.325915  0  3.62182  0  0  -0.348547  0  3.631135  0  0  -0.370456  -0.310867  0  3.61531  0
N  N100  1  0.29174521  0.45837927  0.58431514  1  0  -0.395382  0  3.392857  0  0  -0.325992  0  3.621911  0  0  -0.348623  0  3.63122  0  0  -0.37043  -0.310946  0  3.61541  0
N  N101  1  0.20825435  0.54161994  0.08431306  1  0  -0.395336  0  3.392783  0  0  -0.325944  0  3.621875  0  0  -0.348571  0  3.631184  0  0  -0.37045  -0.3109  0  3.61538  0
N  N102  1  0.70825219  0.95837663  0.91568605  1  0  -0.39547  0  3.392706  0  0  -0.325969  0  3.621644  0  0  -0.348598  0  3.630955  0  0  -0.37047  -0.310924  0  3.615142  0
N  N103  1  0.79174850  0.04162011  0.41568514  1  0  -0.39537  0  3.392881  0  0  -0.32597  0  3.621958  0  0  -0.3486  0  3.631271  0  0  -0.370443  -0.310927  0  3.615456  0
N  N104  1  0.58308169  0.69819752  0.38206229  1  0  -0.4001  0  3.2907  0  0  -0.317109  0  3.574686  0  0  -0.339954  0  3.585145  0  0  -0.340758  -0.301931  0  3.567386  0
N  N105  1  0.91691618  0.30180450  0.88206180  1  0  -0.400166  0  3.290937  0  0  -0.31715  0  3.57488  0  0  -0.339992  0  3.585335  0  0  -0.340791  -0.301971  0  3.567579  0
N  N106  1  0.41691830  0.19819864  0.11793792  1  0  -0.400109  0  3.290719  0  0  -0.317054  0  3.57469  0  0  -0.339891  0  3.585139  0  0  -0.340725  -0.301878  0  3.567389  0
N  N107  1  0.08308409  0.80180355  0.61793685  1  0  -0.400067  0  3.29084  0  0  -0.317057  0  3.57482  0  0  -0.339899  0  3.585276  0  0  -0.340749  -0.30188  0  3.567517  0
N  N108  1  0.41691626  0.30180384  0.61793844  1  0  -0.400192  0  3.290931  0  0  -0.317191  0  3.57488  0  0  -0.340036  0  3.585337  0  0  -0.340805  -0.302009  0  3.567572  0
N  N109  1  0.08308613  0.69819610  0.11793633  1  0  -0.400126  0  3.290825  0  0  -0.317111  0  3.574785  0  0  -0.339954  0  3.585242  0  0  -0.340788  -0.301928  0  3.567476  0
N  N110  1  0.58308255  0.80180196  0.88206177  1  0  -0.400185  0  3.2907  0  0  -0.317204  0  3.574702  0  0  -0.340055  0  3.585165  0  0  -0.340793  -0.302024  0  3.567399  0
N  N111  1  0.91691677  0.19819480  0.38206181  1  0  -0.400089  0  3.290851  0  0  -0.317098  0  3.574812  0  0  -0.339942  0  3.585274  0  0  -0.340777  -0.301916  0  3.567498  0
N  N112  1  0.67973295  0.56392276  0.22656984  1  0  -0.270754  0  3.462635  0  0  -0.210528  0  3.696348  0  0  -0.226175  0  3.714813  0  0  -0.37872  -0.199902  0  3.68376  0
N  N113  1  0.82026529  0.43607637  0.72656830  1  0  -0.270911  0  3.462651  0  0  -0.210504  0  3.696292  0  0  -0.226135  0  3.714735  0  0  -0.378782  -0.199886  0  3.683711  0
N  N114  1  0.32026700  0.06392452  0.27343197  1  0  -0.270866  0  3.462737  0  0  -0.210525  0  3.696339  0  0  -0.226158  0  3.714787  0  0  -0.37875  -0.199899  0  3.683751  0
N  N115  1  0.17973356  0.93607606  0.77343134  1  0  -0.270789  0  3.462631  0  0  -0.210543  0  3.696326  0  0  -0.226185  0  3.714786  0  0  -0.378726  -0.199921  0  3.683741  0
N  N116  1  0.32026645  0.43607634  0.77343192  1  0  -0.270948  0  3.462686  0  0  -0.210558  0  3.696359  0  0  -0.226192  0  3.71481  0  0  -0.378749  -0.199936  0  3.68378  0
N  N117  1  0.17973556  0.56392499  0.27343139  1  0  -0.270866  0  3.46277  0  0  -0.210558  0  3.696402  0  0  -0.226195  0  3.714857  0  0  -0.378723  -0.199932  0  3.683815  0
N  N118  1  0.67973385  0.93607458  0.72656824  1  0  -0.270934  0  3.46275  0  0  -0.210557  0  3.696323  0  0  -0.226192  0  3.714775  0  0  -0.378753  -0.199932  0  3.683736  0
N  N119  1  0.82026585  0.06392380  0.22656731  1  0  -0.270974  0  3.462736  0  0  -0.210526  0  3.696347  0  0  -0.22615  0  3.71478  0  0  -0.378814  -0.199903  0  3.683762  0
Cl  Cl120  1  0.20782841  0.89190330  0.38517902  1  0  -0.53765  0  0.961364  0  0  -0.475681  0  1.233941  0  0  -0.491733  0  1.21141  0  0  -0.288263  -0.464217  0  1.249454  0
Cl  Cl121  1  0.29216752  0.10809870  0.88517812  1  0  -0.537641  0  0.96132  0  0  -0.475677  0  1.233888  0  0  -0.491731  0  1.211358  0  0  -0.288262  -0.464211  0  1.249407  0
Cl  Cl122  1  0.79217309  0.39190520  0.11482217  1  0  -0.537664  0  0.961331  0  0  -0.475698  0  1.233901  0  0  -0.491751  0  1.211372  0  0  -0.288283  -0.464229  0  1.249417  0
Cl  Cl123  1  0.70782543  0.60809777  0.61482164  1  0  -0.537667  0  0.961351  0  0  -0.475681  0  1.233921  0  0  -0.491733  0  1.211392  0  0  -0.288271  -0.464217  0  1.249436  0
Cl  Cl124  1  0.79216809  0.10809505  0.61482171  1  0  -0.537654  0  0.961331  0  0  -0.475683  0  1.233905  0  0  -0.491736  0  1.211377  0  0  -0.288266  -0.464216  0  1.249424  0
Cl  Cl125  1  0.70782898  0.89190191  0.11482261  1  0  -0.537679  0  0.961338  0  0  -0.475687  0  1.233905  0  0  -0.491741  0  1.211376  0  0  -0.288267  -0.464222  0  1.249418  0
Cl  Cl126  1  0.20782777  0.60809766  0.88517804  1  0  -0.537676  0  0.961359  0  0  -0.475692  0  1.233938  0  0  -0.491743  0  1.211408  0  0  -0.288271  -0.464225  0  1.249458  0
Cl  Cl127  1  0.29216962  0.39190358  0.38517650  1  0  -0.537671  0  0.961354  0  0  -0.47569  0  1.233905  0  0  -0.491744  0  1.211378  0  0  -0.288277  -0.464227  0  1.249417  0
Cl  Cl128  1  0.63743563  0.86793745  0.51373491  1  0  -0.558438  0  0.993393  0  0  -0.506315  0  1.278409  0  0  -0.521637  0  1.255503  0  0  -0.291377  -0.495305  0  1.294226  0
Cl  Cl129  1  0.86256168  0.13206484  0.01373395  1  0  -0.558422  0  0.993406  0  0  -0.506328  0  1.278454  0  0  -0.521652  0  1.25555  0  0  -0.291384  -0.495313  0  1.29428  0
Cl  Cl130  1  0.36256175  0.36793680  0.98626527  1  0  -0.558427  0  0.993386  0  0  -0.506323  0  1.278416  0  0  -0.521646  0  1.255513  0  0  -0.291373  -0.495309  0  1.294241  0
Cl  Cl131  1  0.13743830  0.63206362  0.48626577  1  0  -0.558419  0  0.993401  0  0  -0.506311  0  1.278431  0  0  -0.521635  0  1.255526  0  0  -0.29139  -0.495301  0  1.29425  0
Cl  Cl132  1  0.36256377  0.13206390  0.48626582  1  0  -0.558435  0  0.993419  0  0  -0.50632  0  1.278455  0  0  -0.521642  0  1.255551  0  0  -0.29139  -0.495312  0  1.294277  0
Cl  Cl133  1  0.13743772  0.86793802  0.98626471  1  0  -0.558452  0  0.9934  0  0  -0.506334  0  1.278426  0  0  -0.521659  0  1.255521  0  0  -0.291384  -0.495324  0  1.294246  0
Cl  Cl134  1  0.63743475  0.63206305  0.01373546  1  0  -0.558442  0  0.993399  0  0  -0.506326  0  1.278413  0  0  -0.52165  0  1.25551  0  0  -0.291389  -0.495315  0  1.294233  0
Cl  Cl135  1  0.86256401  0.36793624  0.51373392  1  0  -0.558436  0  0.993414  0  0  -0.506323  0  1.278448  0  0  -0.521647  0  1.255546  0  0  -0.291385  -0.495318  0  1.29427  0
O  O136  1  0.82127390  0.41991595  0.33934260  1  0  -0.561685  0  2.068381  0  0  -0.492294  0  2.328504  0  0  -0.516799  0  2.316387  0  0  -0.306687  -0.475255  0  2.336258  0
O  O137  1  0.67872117  0.58008460  0.83934157  1  0  -0.561673  0  2.068307  0  0  -0.492233  0  2.32836  0  0  -0.51674  0  2.316245  0  0  -0.306689  -0.475195  0  2.336105  0
O  O138  1  0.17872470  0.91991797  0.16065806  1  0  -0.561711  0  2.068389  0  0  -0.492332  0  2.328536  0  0  -0.516837  0  2.316416  0  0  -0.306708  -0.475296  0  2.336286  0
O  O139  1  0.32127468  0.08008494  0.66065819  1  0  -0.561729  0  2.068189  0  0  -0.492329  0  2.328306  0  0  -0.516836  0  2.316189  0  0  -0.306714  -0.475288  0  2.336058  0
O  O140  1  0.17872260  0.58008390  0.66065865  1  0  -0.561743  0  2.068271  0  0  -0.492338  0  2.328332  0  0  -0.516845  0  2.316213  0  0  -0.306714  -0.475294  0  2.336085  0
O  O141  1  0.32127824  0.41991600  0.16065864  1  0  -0.561753  0  2.068163  0  0  -0.492309  0  2.328245  0  0  -0.516815  0  2.316128  0  0  -0.306713  -0.475269  0  2.335996  0
O  O142  1  0.82127325  0.08008338  0.83934112  1  0  -0.561641  0  2.068317  0  0  -0.492268  0  2.32843  0  0  -0.516775  0  2.316314  0  0  -0.306688  -0.475231  0  2.336179  0
O  O143  1  0.67872472  0.91991491  0.33934098  1  0  -0.56171  0  2.068336  0  0  -0.492306  0  2.328436  0  0  -0.516812  0  2.316318  0  0  -0.306696  -0.475269  0  2.33619  0
