# generated using pymatgen
data_ZnH24C26(N2O)6
_symmetry_space_group_name_H-M   'P 1'
_cell_length_a   7.23976819
_cell_length_b   9.05654145
_cell_length_c   11.59261230
_cell_angle_alpha   77.84976732
_cell_angle_beta   77.62375198
_cell_angle_gamma   84.48106985
_symmetry_Int_Tables_number   1
_chemical_formula_structural   ZnH24C26(N2O)6
_chemical_formula_sum   'Zn1 H24 C26 N12 O6'
_cell_volume   724.76244127
_cell_formula_units_Z   1
loop_
 _symmetry_equiv_pos_site_id
 _symmetry_equiv_pos_as_xyz
  1  'x, y, z'
loop_
 _atom_site_type_symbol
 _atom_site_label
 _atom_site_symmetry_multiplicity
 _atom_site_fract_x
 _atom_site_fract_y
 _atom_site_fract_z
 _atom_site_occupancy
 _atom_site_hle17_bader_spin_density
 _atom_site_hle17_ddec_charge
 _atom_site_hle17_ddec_spin_density
 _atom_site_hle17_ddec_sum_bond_order
 _atom_site_hle17_magmom
 _atom_site_hse06_10hf_bader_spin_density
 _atom_site_hse06_10hf_ddec_charge
 _atom_site_hse06_10hf_ddec_spin_density
 _atom_site_hse06_10hf_ddec_sum_bond_order
 _atom_site_hse06_10hf_magmom
 _atom_site_hse06_bader_spin_density
 _atom_site_hse06_ddec_charge
 _atom_site_hse06_ddec_spin_density
 _atom_site_hse06_ddec_sum_bond_order
 _atom_site_hse06_magmom
 _atom_site_pbe_bader_spin_density
 _atom_site_pbe_cm5_charge
 _atom_site_pbe_ddec_charge
 _atom_site_pbe_ddec_spin_density
 _atom_site_pbe_ddec_sum_bond_order
 _atom_site_pbe_magmom
Zn  Zn0  1  0.00000249  0.50000224  0.00000011  1  0  1.086133  0  1.744537  0  0  0.909979  0  2.19074  0  0  0.958183  0  2.136678  0  0  0.670137  0.875861  0  2.227911  0
H  H1  1  0.46917877  0.12878273  0.14631857  1  0  0.112865  0  0.941194  0  0  0.121546  0  1.008175  0  0  0.12413  0  1.005784  0  0  0.119925  0.119634  0  1.009982  0
H  H2  1  0.53082892  0.87121442  0.85367969  1  0  0.112994  0  0.941297  0  0  0.121644  0  1.008276  0  0  0.12423  0  1.005891  0  0  0.11998  0.119729  0  1.010086  0
H  H3  1  0.68533486  0.02988524  0.09282452  1  0  0.130364  0  0.89185  0  0  0.149237  0  0.939727  0  0  0.151563  0  0.938046  0  0  0.134768  0.147108  0  0.941685  0
H  H4  1  0.31466611  0.97010742  0.90717889  1  0  0.130378  0  0.89177  0  0  0.149244  0  0.939643  0  0  0.15157  0  0.937965  0  0  0.134788  0.147115  0  0.941602  0
H  H5  1  0.48094795  0.36034974  0.49120397  1  0  0.099855  0  0.942899  0  0  0.112182  0  1.003683  0  0  0.114943  0  1.001791  0  0  0.108516  0.110142  0  1.005164  0
H  H6  1  0.51903571  0.63964871  0.50880016  1  0  0.09993  0  0.94289  0  0  0.112241  0  1.003682  0  0  0.115003  0  1.001791  0  0  0.108524  0.110201  0  1.005165  0
H  H7  1  0.44126644  0.43335234  0.69495207  1  0  0.109443  0  0.939374  0  0  0.120627  0  0.993998  0  0  0.123953  0  0.993254  0  0  0.108127  0.118197  0  0.994809  0
H  H8  1  0.55872349  0.56663700  0.30505693  1  0  0.109481  0  0.939264  0  0  0.120663  0  0.993889  0  0  0.12399  0  0.993146  0  0  0.108104  0.118234  0  0.9947  0
H  H9  1  0.59273339  0.26682741  0.85086421  1  0  0.077198  0  0.99323  0  0  0.083604  0  1.057128  0  0  0.086493  0  1.054935  0  0  0.106309  0.081419  0  1.058792  0
H  H10  1  0.40727168  0.73316525  0.14913429  1  0  0.077269  0  0.993122  0  0  0.083664  0  1.057037  0  0  0.08656  0  1.054831  0  0  0.106283  0.081474  0  1.058703  0
H  H11  1  0.82166455  0.97081682  0.62327330  1  0  0.072735  0  0.951787  0  0  0.077864  0  1.025041  0  0  0.08068  0  1.022258  0  0  0.108392  0.07566  0  1.027395  0
H  H12  1  0.17834278  0.02918600  0.37672238  1  0  0.072752  0  0.951689  0  0  0.077905  0  1.024925  0  0  0.080713  0  1.022166  0  0  0.108377  0.075703  0  1.027277  0
H  H13  1  0.90954702  0.72836659  0.77222517  1  0  0.074046  0  0.940761  0  0  0.082628  0  1.005426  0  0  0.085321  0  1.002664  0  0  0.112613  0.080589  0  1.007569  0
H  H14  1  0.09045037  0.27164078  0.22777812  1  0  0.07406  0  0.940728  0  0  0.082626  0  1.005426  0  0  0.08532  0  1.002659  0  0  0.112621  0.08059  0  1.007569  0
H  H15  1  0.90630551  0.73889014  0.55820416  1  0  0.104081  0  0.977538  0  0  0.108891  0  1.050859  0  0  0.112496  0  1.048696  0  0  0.103591  0.106211  0  1.052783  0
H  H16  1  0.09369179  0.26111838  0.44179810  1  0  0.10409  0  0.977477  0  0  0.108897  0  1.050814  0  0  0.1125  0  1.048653  0  0  0.103584  0.106218  0  1.05274  0
H  H17  1  0.08064003  0.26199982  0.61554453  1  0  0.108911  0  0.998397  0  0  0.113504  0  1.069218  0  0  0.116839  0  1.067638  0  0  0.107158  0.111061  0  1.070619  0
H  H18  1  0.91934894  0.73800537  0.38445860  1  0  0.108792  0  0.998413  0  0  0.113437  0  1.069206  0  0  0.116766  0  1.06763  0  0  0.107136  0.110993  0  1.070608  0
H  H19  1  0.06899720  0.27156162  0.82617688  1  0  0.077792  0  0.942968  0  0  0.081749  0  1.014568  0  0  0.084601  0  1.011563  0  0  0.114314  0.079668  0  1.016689  0
H  H20  1  0.93099317  0.72844245  0.17382365  1  0  0.077831  0  0.942903  0  0  0.081846  0  1.014428  0  0  0.084705  0  1.011422  0  0  0.114332  0.079763  0  1.016542  0
H  H21  1  0.20660510  0.24696872  0.02396616  1  0  0.413114  0  0.835951  0  0  0.394793  0  0.894518  0  0  0.403284  0  0.884217  0  0  0.312974  0.388538  0  0.90233  0
H  H22  1  0.79340656  0.75303293  0.97602994  1  0  0.413071  0  0.835974  0  0  0.394759  0  0.894526  0  0  0.403249  0  0.884228  0  0  0.312958  0.388503  0  0.902339  0
H  H23  1  0.37717961  0.35811955  0.99617495  1  0  0.436783  0  0.864523  0  0  0.400089  0  0.937261  0  0  0.412024  0  0.919966  0  0  0.291185  0.391652  0  0.94946  0
H  H24  1  0.62283065  0.64188322  0.00382376  1  0  0.436861  0  0.864418  0  0  0.400176  0  0.93714  0  0  0.412112  0  0.919845  0  0  0.291231  0.391736  0  0.949346  0
C  C25  1  0.70618166  0.27358805  0.06121662  1  0  0.689331  0  3.871481  0  0  0.640604  0  4.172808  0  0  0.673268  0  4.166663  0  0  0.214293  0.618655  0  4.175564  0
C  C26  1  0.29381274  0.72641380  0.93877246  1  0  0.689535  0  3.871231  0  0  0.64081  0  4.172572  0  0  0.673478  0  4.166423  0  0  0.214403  0.618864  0  4.17532  0
C  C27  1  0.62329166  0.12469784  0.13636780  1  0  -0.20699  0  3.609057  0  0  -0.268284  0  3.863136  0  0  -0.269164  0  3.867564  0  0  -0.044245  -0.267442  0  3.860248  0
C  C28  1  0.37671588  0.87530046  0.86362772  1  0  -0.207086  0  3.609403  0  0  -0.268327  0  3.863448  0  0  -0.269217  0  3.867881  0  0  -0.044264  -0.267481  0  3.860557  0
C  C29  1  0.68459892  0.11048690  0.42795817  1  0  0.260091  0  3.819263  0  0  0.239337  0  4.096852  0  0  0.248242  0  4.114105  0  0  0.222179  0.233548  0  4.085132  0
C  C30  1  0.31539999  0.88951374  0.57203735  1  0  0.260065  0  3.819333  0  0  0.239331  0  4.096934  0  0  0.248266  0  4.114148  0  0  0.222217  0.233547  0  4.085206  0
C  C31  1  0.65586090  0.16002086  0.54245857  1  0  -0.055731  0  3.804081  0  0  -0.032591  0  4.033758  0  0  -0.039671  0  4.059881  0  0  -0.010514  -0.028286  0  4.016224  0
C  C32  1  0.34413989  0.83997407  0.45754277  1  0  -0.055515  0  3.804112  0  0  -0.032448  0  4.033871  0  0  -0.03954  0  4.059988  0  0  -0.010455  -0.028143  0  4.016334  0
C  C33  1  0.54690380  0.29230482  0.56249602  1  0  -0.040142  0  3.70158  0  0  -0.070945  0  3.95198  0  0  -0.068137  0  3.971172  0  0  -0.069519  -0.072232  0  3.938683  0
C  C34  1  0.45309005  0.70769014  0.43751065  1  0  -0.040378  0  3.701834  0  0  -0.071148  0  3.952235  0  0  -0.068341  0  3.971432  0  0  -0.069601  -0.072433  0  3.938935  0
C  C35  1  0.52429611  0.33190923  0.67431743  1  0  -0.119415  0  3.743886  0  0  -0.130162  0  3.997167  0  0  -0.137279  0  4.019312  0  0  -0.085964  -0.125735  0  3.982333  0
C  C36  1  0.47570079  0.66808342  0.32569261  1  0  -0.119383  0  3.743687  0  0  -0.13012  0  3.996918  0  0  -0.137238  0  4.019066  0  0  -0.085976  -0.1257  0  3.982085  0
C  C37  1  0.60808846  0.23735026  0.76286609  1  0  0.119836  0  3.716237  0  0  0.093312  0  3.976152  0  0  0.099287  0  3.9932  0  0  0.036862  0.089641  0  3.964551  0
C  C38  1  0.39191114  0.76264240  0.23713925  1  0  0.119741  0  3.716056  0  0  0.09323  0  3.975951  0  0  0.099207  0  3.992996  0  0  0.036944  0.089566  0  3.96434  0
C  C39  1  0.73523629  0.07342621  0.63711946  1  0  0.097505  0  3.716084  0  0  0.060321  0  3.982796  0  0  0.065958  0  3.999668  0  0  0.043377  0.056871  0  3.971503  0
C  C40  1  0.26476570  0.92657211  0.36288030  1  0  0.097451  0  3.715889  0  0  0.060264  0  3.982635  0  0  0.0659  0  3.999504  0  0  0.043381  0.056811  0  3.97135  0
C  C41  1  0.94423661  0.62663784  0.73399865  1  0  0.136795  0  3.706842  0  0  0.106149  0  3.959323  0  0  0.112503  0  3.97786  0  0  0.044757  0.102185  0  3.946546  0
C  C42  1  0.05575654  0.37336845  0.26600370  1  0  0.136863  0  3.706807  0  0  0.106239  0  3.9593  0  0  0.112594  0  3.97784  0  0  0.044722  0.102269  0  3.946531  0
C  C43  1  0.94472899  0.63183241  0.61318544  1  0  -0.161979  0  3.694861  0  0  -0.179852  0  3.942621  0  0  -0.187479  0  3.964921  0  0  -0.086306  -0.174815  0  3.927811  0
C  C44  1  0.05526411  0.36817389  0.38681519  1  0  -0.16198  0  3.69499  0  0  -0.179855  0  3.942728  0  0  -0.187478  0  3.965024  0  0  -0.086302  -0.174822  0  3.927922  0
C  C45  1  0.99639012  0.50042139  0.56443838  1  0  0.093623  0  3.739242  0  0  0.107198  0  3.964541  0  0  0.110479  0  3.987362  0  0  0.011228  0.10518  0  3.94885  0
C  C46  1  0.00360019  0.49958604  0.43556593  1  0  0.093342  0  3.73944  0  0  0.106943  0  3.964732  0  0  0.110219  0  3.987555  0  0  0.011239  0.104938  0  3.94903  0
C  C47  1  0.04100745  0.36930954  0.64432431  1  0  -0.156873  0  3.691787  0  0  -0.174864  0  3.937857  0  0  -0.182765  0  3.960766  0  0  -0.082941  -0.16973  0  3.922451  0
C  C48  1  0.95898132  0.63069793  0.35567589  1  0  -0.156566  0  3.691801  0  0  -0.174626  0  3.937813  0  0  -0.182523  0  3.96073  0  0  -0.082851  -0.169492  0  3.922397  0
C  C49  1  0.03453898  0.37368590  0.76437153  1  0  0.145377  0  3.698635  0  0  0.113974  0  3.955919  0  0  0.120644  0  3.97378  0  0  0.052469  0.109924  0  3.943435  0
C  C50  1  0.96544993  0.62631931  0.23562988  1  0  0.145265  0  3.698677  0  0  0.113862  0  3.955895  0  0  0.120522  0  3.973765  0  0  0.052432  0.109819  0  3.943401  0
N  N51  1  0.60210438  0.17890125  0.33590009  1  0  -0.308234  0  2.789714  0  0  -0.298595  0  3.054819  0  0  -0.304735  0  3.066389  0  0  -0.201924  -0.294894  0  3.047674  0
N  N52  1  0.39789597  0.82110160  0.66410005  1  0  -0.308275  0  2.789899  0  0  -0.298606  0  3.054989  0  0  -0.304755  0  3.066549  0  0  -0.201896  -0.294906  0  3.047844  0
N  N53  1  0.66870902  0.09247323  0.25486772  1  0  0.248987  0  3.579872  0  0  0.29722  0  3.860809  0  0  0.293964  0  3.88256  0  0  -0.002534  0.299027  0  3.846321  0
N  N54  1  0.33129998  0.90752728  0.74513240  1  0  0.248996  0  3.580238  0  0  0.297183  0  3.861184  0  0  0.293931  0  3.882942  0  0  -0.00265  0.298985  0  3.846695  0
N  N55  1  0.78609949  0.97803598  0.29092710  1  0  -0.092807  0  2.858435  0  0  -0.092019  0  3.148875  0  0  -0.087513  0  3.158022  0  0  -0.065663  -0.094783  0  3.142644  0
N  N56  1  0.21391090  0.02196453  0.70907196  1  0  -0.09289  0  2.85844  0  0  -0.092061  0  3.148856  0  0  -0.08756  0  3.158008  0  0  -0.065609  -0.094823  0  3.142625  0
N  N57  1  0.79719554  0.98734164  0.40119704  1  0  -0.276421  0  2.94452  0  0  -0.257226  0  3.239103  0  0  -0.266144  0  3.250291  0  0  -0.193625  -0.250946  0  3.231286  0
N  N58  1  0.20280766  0.01266007  0.59880114  1  0  -0.276378  0  2.944479  0  0  -0.25721  0  3.239075  0  0  -0.266136  0  3.250255  0  0  -0.19369  -0.250934  0  3.231258  0
N  N59  1  0.71124016  0.10923387  0.74578995  1  0  -0.335466  0  3.085284  0  0  -0.303662  0  3.366462  0  0  -0.31467  0  3.380134  0  0  -0.338339  -0.296108  0  3.356952  0
N  N60  1  0.28876034  0.89076560  0.25420898  1  0  -0.335432  0  3.085248  0  0  -0.303633  0  3.366429  0  0  -0.314641  0  3.380104  0  0  -0.338336  -0.296082  0  3.356919  0
N  N61  1  0.98874836  0.50015592  0.80979306  1  0  -0.322622  0  3.233557  0  0  -0.249838  0  3.497396  0  0  -0.266591  0  3.513193  0  0  -0.313806  -0.238423  0  3.486268  0
N  N62  1  0.01124480  0.49984925  0.19020774  1  0  -0.322679  0  3.233453  0  0  -0.24994  0  3.497324  0  0  -0.266696  0  3.513126  0  0  -0.31381  -0.238526  0  3.486199  0
O  O63  1  0.87580702  0.29213272  0.06759407  1  0  -0.658713  0  2.054534  0  0  -0.597394  0  2.319985  0  0  -0.626777  0  2.308963  0  0  -0.327013  -0.576446  0  2.326428  0
O  O64  1  0.12420907  0.70786550  0.93240194  1  0  -0.658691  0  2.055042  0  0  -0.597373  0  2.320489  0  0  -0.626749  0  2.309462  0  0  -0.32699  -0.576443  0  2.32695  0
O  O65  1  0.60411138  0.36146486  0.99943530  1  0  -0.594324  0  2.014503  0  0  -0.534734  0  2.228283  0  0  -0.559478  0  2.220419  0  0  -0.297293  -0.517137  0  2.232933  0
O  O66  1  0.39591385  0.63851750  0.00055505  1  0  -0.594609  0  2.013769  0  0  -0.535036  0  2.227579  0  0  -0.55979  0  2.219708  0  0  -0.297455  -0.517437  0  2.232235  0
O  O67  1  0.24926852  0.34524974  0.97947183  1  0  -0.822011  0  1.910564  0  0  -0.769594  0  2.124479  0  0  -0.789292  0  2.093708  0  0  -0.568414  -0.755798  0  2.146288  0
O  O68  1  0.75073331  0.65475197  0.02052828  1  0  -0.822039  0  1.910502  0  0  -0.769631  0  2.12443  0  0  -0.789331  0  2.09366  0  0  -0.568449  -0.755831  0  2.146243  0
