# generated using pymatgen
data_ZnH2C4(S3N2)2
_symmetry_space_group_name_H-M   'P 1'
_cell_length_a   7.53886635
_cell_length_b   11.51631384
_cell_length_c   12.67104252
_cell_angle_alpha   90.00071320
_cell_angle_beta   90.00015041
_cell_angle_gamma   90.00075813
_symmetry_Int_Tables_number   1
_chemical_formula_structural   ZnH2C4(S3N2)2
_chemical_formula_sum   'Zn4 H8 C16 S24 N16'
_cell_volume   1100.09928821
_cell_formula_units_Z   4
loop_
 _symmetry_equiv_pos_site_id
 _symmetry_equiv_pos_as_xyz
  1  'x, y, z'
loop_
 _atom_site_type_symbol
 _atom_site_label
 _atom_site_symmetry_multiplicity
 _atom_site_fract_x
 _atom_site_fract_y
 _atom_site_fract_z
 _atom_site_occupancy
 _atom_site_hle17_bader_spin_density
 _atom_site_hle17_ddec_charge
 _atom_site_hle17_ddec_spin_density
 _atom_site_hle17_ddec_sum_bond_order
 _atom_site_hle17_magmom
 _atom_site_hse06_10hf_bader_spin_density
 _atom_site_hse06_10hf_ddec_charge
 _atom_site_hse06_10hf_ddec_spin_density
 _atom_site_hse06_10hf_ddec_sum_bond_order
 _atom_site_hse06_10hf_magmom
 _atom_site_hse06_bader_spin_density
 _atom_site_hse06_ddec_charge
 _atom_site_hse06_ddec_spin_density
 _atom_site_hse06_ddec_sum_bond_order
 _atom_site_hse06_magmom
 _atom_site_pbe_bader_spin_density
 _atom_site_pbe_cm5_charge
 _atom_site_pbe_ddec_charge
 _atom_site_pbe_ddec_spin_density
 _atom_site_pbe_ddec_sum_bond_order
 _atom_site_pbe_magmom
Zn  Zn0  1  0.74999115  0.84858287  0.49999741  1  0  0.623878  0  2.294124  0  0  0.499906  0  2.762859  0  0  0.532351  0  2.730129  0  0  0.416105  0.477716  0  2.784578  0
Zn  Zn1  1  0.25000038  0.65142481  0.00000154  1  0  0.623816  0  2.294267  0  0  0.499818  0  2.763059  0  0  0.532271  0  2.730317  0  0  0.415972  0.477613  0  2.7848  0
Zn  Zn2  1  0.24999915  0.15140709  0.50000253  1  0  0.623924  0  2.294092  0  0  0.499985  0  2.762788  0  0  0.53242  0  2.730062  0  0  0.416137  0.477822  0  2.784451  0
Zn  Zn3  1  0.75000619  0.34857574  0.00000018  1  0  0.623808  0  2.294029  0  0  0.499831  0  2.762739  0  0  0.53228  0  2.730005  0  0  0.416027  0.477627  0  2.784468  0
H  H4  1  0.12136191  0.85989781  0.34488349  1  0  0.273179  0  0.930935  0  0  0.249674  0  1.007474  0  0  0.257799  0  1.001525  0  0  0.293165  0.243859  0  1.011861  0
H  H5  1  0.62135619  0.64010614  0.15511527  1  0  0.273109  0  0.930901  0  0  0.249604  0  1.007536  0  0  0.257731  0  1.001588  0  0  0.293108  0.243785  0  1.011924  0
H  H6  1  0.37864932  0.85988280  0.65511388  1  0  0.27312  0  0.931026  0  0  0.249626  0  1.007665  0  0  0.257752  0  1.001716  0  0  0.293124  0.243807  0  1.012055  0
H  H7  1  0.87865375  0.64012237  0.84488112  1  0  0.273275  0  0.930929  0  0  0.249784  0  1.007562  0  0  0.257911  0  1.001609  0  0  0.293195  0.243963  0  1.011954  0
H  H8  1  0.87864165  0.14010171  0.65512514  1  0  0.273105  0  0.930917  0  0  0.249584  0  1.007514  0  0  0.25771  0  1.001568  0  0  0.293157  0.243769  0  1.0119  0
H  H9  1  0.37865003  0.35988903  0.84487994  1  0  0.273195  0  0.930933  0  0  0.249704  0  1.007557  0  0  0.257832  0  1.001606  0  0  0.293132  0.243886  0  1.011946  0
H  H10  1  0.62135027  0.14010803  0.34487739  1  0  0.273143  0  0.9309  0  0  0.249645  0  1.007475  0  0  0.257769  0  1.00153  0  0  0.293205  0.243827  0  1.011862  0
H  H11  1  0.12135511  0.35988410  0.15511803  1  0  0.273168  0  0.930928  0  0  0.249688  0  1.007548  0  0  0.257814  0  1.001599  0  0  0.293139  0.243869  0  1.011935  0
C  C12  1  0.20313015  0.61741711  0.24381234  1  0  0.156126  0  3.803538  0  0  0.146545  0  4.115629  0  0  0.160364  0  4.128288  0  0  0.111448  0.137176  0  4.10657  0
C  C13  1  0.70315100  0.88257540  0.25619443  1  0  0.156178  0  3.803381  0  0  0.146541  0  4.115561  0  0  0.160362  0  4.128219  0  0  0.111453  0.13719  0  4.106472  0
C  C14  1  0.29685762  0.61742013  0.75619093  1  0  0.155992  0  3.804222  0  0  0.146502  0  4.116126  0  0  0.160318  0  4.128784  0  0  0.111425  0.137147  0  4.107051  0
C  C15  1  0.79685851  0.88257564  0.74381341  1  0  0.155964  0  3.804104  0  0  0.146407  0  4.116114  0  0  0.160219  0  4.128779  0  0  0.111441  0.13704  0  4.107056  0
C  C16  1  0.79686545  0.38259630  0.75619312  1  0  0.156031  0  3.803337  0  0  0.146466  0  4.115437  0  0  0.160287  0  4.128103  0  0  0.111309  0.137108  0  4.106352  0
C  C17  1  0.29686715  0.11742586  0.74380315  1  0  0.156332  0  3.803377  0  0  0.146639  0  4.115612  0  0  0.160459  0  4.128276  0  0  0.111479  0.137284  0  4.10653  0
C  C18  1  0.70312604  0.38261325  0.24380822  1  0  0.155968  0  3.803085  0  0  0.14629  0  4.115374  0  0  0.160107  0  4.128039  0  0  0.111155  0.136942  0  4.106279  0
C  C19  1  0.20313443  0.11742822  0.25619048  1  0  0.156108  0  3.803708  0  0  0.146503  0  4.115803  0  0  0.160315  0  4.128466  0  0  0.111483  0.13714  0  4.106742  0
C  C20  1  0.07275494  0.69463768  0.40786075  1  0  0.178345  0  3.786757  0  0  0.157313  0  4.090964  0  0  0.17647  0  4.101402  0  0  0.121416  0.144423  0  4.083573  0
C  C21  1  0.57275623  0.80537453  0.09213793  1  0  0.178443  0  3.786678  0  0  0.157503  0  4.090859  0  0  0.176665  0  4.101288  0  0  0.121495  0.144604  0  4.083469  0
C  C22  1  0.42725031  0.69462745  0.59214025  1  0  0.178346  0  3.787147  0  0  0.157435  0  4.091344  0  0  0.176592  0  4.101782  0  0  0.121495  0.144538  0  4.083948  0
C  C23  1  0.92724775  0.80538248  0.90785956  1  0  0.178578  0  3.786784  0  0  0.157658  0  4.09099  0  0  0.176822  0  4.101414  0  0  0.121513  0.144768  0  4.083568  0
C  C24  1  0.92725525  0.30536184  0.59214235  1  0  0.178299  0  3.78674  0  0  0.15735  0  4.090842  0  0  0.176502  0  4.101286  0  0  0.121392  0.14446  0  4.083444  0
C  C25  1  0.42724202  0.19462759  0.90785806  1  0  0.178604  0  3.786795  0  0  0.157685  0  4.090983  0  0  0.176848  0  4.101412  0  0  0.121526  0.144789  0  4.083585  0
C  C26  1  0.57273468  0.30536252  0.40786206  1  0  0.178307  0  3.786892  0  0  0.157414  0  4.090976  0  0  0.17656  0  4.101424  0  0  0.121476  0.144522  0  4.083585  0
C  C27  1  0.07275581  0.19462224  0.09213960  1  0  0.178462  0  3.786846  0  0  0.157608  0  4.090949  0  0  0.176772  0  4.101375  0  0  0.121551  0.144708  0  4.083557  0
S  S28  1  0.99085640  0.72243785  0.52982867  1  0  -0.334985  0  2.282505  0  0  -0.324082  0  2.668859  0  0  -0.341302  0  2.664049  0  0  -0.186585  -0.311573  0  2.671868  0
S  S29  1  0.49083451  0.77758131  0.97016334  1  0  -0.334805  0  2.282294  0  0  -0.323872  0  2.668579  0  0  -0.341107  0  2.663794  0  0  -0.18652  -0.311367  0  2.671591  0
S  S30  1  0.50915387  0.72241886  0.47017339  1  0  -0.334798  0  2.282466  0  0  -0.323875  0  2.668764  0  0  -0.341095  0  2.663953  0  0  -0.186534  -0.311366  0  2.671775  0
S  S31  1  0.00917107  0.77758933  0.02982914  1  0  -0.334896  0  2.282437  0  0  -0.323946  0  2.668693  0  0  -0.341183  0  2.663912  0  0  -0.186524  -0.311439  0  2.671698  0
S  S32  1  0.00914848  0.27756079  0.47017601  1  0  -0.334936  0  2.28258  0  0  -0.324053  0  2.668892  0  0  -0.34125  0  2.664042  0  0  -0.186607  -0.311551  0  2.671898  0
S  S33  1  0.50915446  0.22242428  0.02983187  1  0  -0.334864  0  2.28233  0  0  -0.323941  0  2.668619  0  0  -0.341179  0  2.663839  0  0  -0.186549  -0.311436  0  2.671627  0
S  S34  1  0.49085235  0.27756764  0.52982181  1  0  -0.334971  0  2.282818  0  0  -0.324099  0  2.669127  0  0  -0.341305  0  2.664296  0  0  -0.186639  -0.311596  0  2.672135  0
S  S35  1  0.99084177  0.22242234  0.97017001  1  0  -0.334769  0  2.28235  0  0  -0.323897  0  2.668681  0  0  -0.341117  0  2.663866  0  0  -0.186547  -0.311387  0  2.671691  0
S  S36  1  0.11746308  0.55680265  0.36028065  1  0  0.127346  0  2.490486  0  0  0.12648  0  2.830978  0  0  0.125599  0  2.83132  0  0  0.11709  0.126277  0  2.831655  0
S  S37  1  0.61746472  0.94321343  0.13970864  1  0  0.127055  0  2.49041  0  0  0.126205  0  2.830899  0  0  0.125333  0  2.831234  0  0  0.116962  0.126011  0  2.831532  0
S  S38  1  0.38251419  0.55680830  0.63973851  1  0  0.12728  0  2.491107  0  0  0.126372  0  2.831575  0  0  0.125492  0  2.831914  0  0  0.117073  0.126164  0  2.832249  0
S  S39  1  0.88251949  0.94320992  0.86027385  1  0  0.127157  0  2.49084  0  0  0.12627  0  2.83133  0  0  0.125397  0  2.831663  0  0  0.117005  0.12606  0  2.832005  0
S  S40  1  0.88254180  0.44319774  0.63971614  1  0  0.127297  0  2.490526  0  0  0.126416  0  2.830983  0  0  0.125539  0  2.831325  0  0  0.117085  0.126208  0  2.831645  0
S  S41  1  0.38253486  0.05678435  0.86028736  1  0  0.126974  0  2.490282  0  0  0.126159  0  2.830771  0  0  0.125283  0  2.831108  0  0  0.116936  0.125966  0  2.831401  0
S  S42  1  0.61745887  0.44318774  0.36027327  1  0  0.127461  0  2.491148  0  0  0.126588  0  2.831676  0  0  0.125717  0  2.83202  0  0  0.117153  0.126372  0  2.832346  0
S  S43  1  0.11747744  0.05679394  0.13972609  1  0  0.127159  0  2.49079  0  0  0.126283  0  2.831257  0  0  0.12541  0  2.83159  0  0  0.117019  0.126074  0  2.831936  0
S  S44  1  0.28942585  0.53066337  0.14602754  1  0  -0.358913  0  2.255112  0  0  -0.331221  0  2.631318  0  0  -0.34876  0  2.623255  0  0  -0.175833  -0.318562  0  2.636382  0
S  S45  1  0.78943960  0.96935160  0.35398252  1  0  -0.358762  0  2.254613  0  0  -0.331089  0  2.630888  0  0  -0.348632  0  2.622829  0  0  -0.175717  -0.318441  0  2.635948  0
S  S46  1  0.21056283  0.53066175  0.85398027  1  0  -0.358846  0  2.254997  0  0  -0.331193  0  2.6312  0  0  -0.348733  0  2.623135  0  0  -0.175789  -0.31854  0  2.63626  0
S  S47  1  0.71056104  0.96934716  0.64601842  1  0  -0.358893  0  2.254626  0  0  -0.331211  0  2.630799  0  0  -0.348751  0  2.622738  0  0  -0.175816  -0.318557  0  2.635868  0
S  S48  1  0.71057373  0.46934570  0.85397399  1  0  -0.358735  0  2.255175  0  0  -0.331046  0  2.631367  0  0  -0.348587  0  2.623311  0  0  -0.175743  -0.318392  0  2.636418  0
S  S49  1  0.21056926  0.03064358  0.64601742  1  0  -0.358864  0  2.254511  0  0  -0.331153  0  2.630789  0  0  -0.348696  0  2.62273  0  0  -0.175772  -0.318511  0  2.635847  0
S  S50  1  0.78942481  0.46934471  0.14602519  1  0  -0.358693  0  2.255249  0  0  -0.330978  0  2.631525  0  0  -0.348515  0  2.623466  0  0  -0.175706  -0.318325  0  2.636576  0
S  S51  1  0.28943323  0.03064888  0.35398310  1  0  -0.358945  0  2.254452  0  0  -0.331269  0  2.630654  0  0  -0.348807  0  2.622591  0  0  -0.175839  -0.318622  0  2.63572  0
N  N52  1  0.12138088  0.77097344  0.33340247  1  0  -0.167666  0  3.542741  0  0  -0.104223  0  3.77612  0  0  -0.118012  0  3.792639  0  0  -0.267272  -0.095478  0  3.765441  0
N  N53  1  0.62137966  0.72903485  0.16659628  1  0  -0.167667  0  3.542161  0  0  -0.104386  0  3.775665  0  0  -0.11818  0  3.79218  0  0  -0.267196  -0.095621  0  3.76497  0
N  N54  1  0.37862457  0.77096119  0.66659388  1  0  -0.167567  0  3.542885  0  0  -0.104367  0  3.776447  0  0  -0.118159  0  3.792966  0  0  -0.267167  -0.095603  0  3.765753  0
N  N55  1  0.87862278  0.72904223  0.83340349  1  0  -0.168057  0  3.542594  0  0  -0.104887  0  3.776215  0  0  -0.118681  0  3.792721  0  0  -0.267268  -0.096122  0  3.765524  0
N  N56  1  0.87862400  0.22903041  0.66660615  1  0  -0.167562  0  3.542835  0  0  -0.104159  0  3.776207  0  0  -0.117947  0  3.792739  0  0  -0.267216  -0.095408  0  3.765507  0
N  N57  1  0.37862125  0.27096206  0.83340366  1  0  -0.167998  0  3.542762  0  0  -0.104796  0  3.77634  0  0  -0.118591  0  3.792853  0  0  -0.267248  -0.096033  0  3.765647  0
N  N58  1  0.62137634  0.22903137  0.33339107  1  0  -0.167546  0  3.543254  0  0  -0.104239  0  3.776695  0  0  -0.118025  0  3.793234  0  0  -0.267224  -0.095483  0  3.765996  0
N  N59  1  0.12138078  0.27096162  0.16659566  1  0  -0.16788  0  3.542401  0  0  -0.104737  0  3.776005  0  0  -0.118532  0  3.792516  0  0  -0.267257  -0.095972  0  3.765312  0
N  N60  1  0.19466981  0.73166977  0.24244530  1  0  -0.185487  0  2.940791  0  0  -0.170533  0  3.21888  0  0  -0.178428  0  3.23296  0  0  -0.221532  -0.16507  0  3.209459  0
N  N61  1  0.69468306  0.76833743  0.25756224  1  0  -0.185407  0  2.940898  0  0  -0.170388  0  3.219039  0  0  -0.178282  0  3.233117  0  0  -0.221568  -0.164938  0  3.209608  0
N  N62  1  0.30533352  0.73165638  0.75755060  1  0  -0.185428  0  2.941291  0  0  -0.17042  0  3.21944  0  0  -0.17831  0  3.233513  0  0  -0.221673  -0.164971  0  3.210014  0
N  N63  1  0.80532150  0.76835596  0.74244192  1  0  -0.18505  0  2.941252  0  0  -0.169998  0  3.219346  0  0  -0.177888  0  3.233424  0  0  -0.221513  -0.164543  0  3.209921  0
N  N64  1  0.80532446  0.26832019  0.75755622  1  0  -0.185514  0  2.940514  0  0  -0.170557  0  3.218607  0  0  -0.178459  0  3.232694  0  0  -0.221477  -0.165097  0  3.20917  0
N  N65  1  0.30533376  0.23165775  0.74243296  1  0  -0.185274  0  2.941033  0  0  -0.170205  0  3.219187  0  0  -0.178102  0  3.233267  0  0  -0.221497  -0.164756  0  3.209758  0
N  N66  1  0.69466340  0.26831969  0.24245329  1  0  -0.185673  0  2.940424  0  0  -0.170641  0  3.218584  0  0  -0.178543  0  3.232677  0  0  -0.221528  -0.165185  0  3.209146  0
N  N67  1  0.19467410  0.23164963  0.25755960  1  0  -0.185082  0  2.941066  0  0  -0.170021  0  3.219183  0  0  -0.177912  0  3.233261  0  0  -0.221488  -0.164569  0  3.209758  0
