# generated using pymatgen
data_Zn4H24C28S2O13F2
_symmetry_space_group_name_H-M   'P 1'
_cell_length_a   17.89007572
_cell_length_b   18.58600781
_cell_length_c   19.44813595
_cell_angle_alpha   118.75564674
_cell_angle_beta   116.26599698
_cell_angle_gamma   89.90994987
_symmetry_Int_Tables_number   1
_chemical_formula_structural   Zn4H24C28S2O13F2
_chemical_formula_sum   'Zn8 H48 C56 S4 O26 F4'
_cell_volume   4896.68657761
_cell_formula_units_Z   2
loop_
 _symmetry_equiv_pos_site_id
 _symmetry_equiv_pos_as_xyz
  1  'x, y, z'
loop_
 _atom_site_type_symbol
 _atom_site_label
 _atom_site_symmetry_multiplicity
 _atom_site_fract_x
 _atom_site_fract_y
 _atom_site_fract_z
 _atom_site_occupancy
 _atom_site_pbe_bader_charge
 _atom_site_pbe_bader_spin_density
 _atom_site_pbe_cm5_charge
 _atom_site_pbe_ddec_charge
 _atom_site_pbe_ddec_spin_density
 _atom_site_pbe_ddec_sum_bond_order
 _atom_site_pbe_magmom
Zn  Zn0  1  0.86949468  0.45767548  0.92041493  1  1.317946  0  0.669684  0.957419  0  2.379562  0
Zn  Zn1  1  0.03627411  0.44807976  0.06770868  1  1.321023  0  0.667014  0.954058  0  2.397195  0
Zn  Zn2  1  0.03235094  0.61964678  0.06626193  1  1.311724  0  0.669614  0.954193  0  2.402035  0
Zn  Zn3  1  0.04639638  0.45692947  0.91004499  1  1.309289  0  0.669023  0.966746  0  2.33601  0
Zn  Zn4  1  0.62309425  0.03180613  0.06695200  1  1.313798  0  0.670043  0.959002  0  2.379976  0
Zn  Zn5  1  0.45811170  0.87144575  0.91438497  1  1.303584  0  0.669869  0.955069  0  2.399756  0
Zn  Zn6  1  0.46293911  0.04223761  0.91370781  1  1.303397  0  0.668004  0.956167  0  2.395679  0
Zn  Zn7  1  0.44103533  0.03555317  0.06681875  1  1.310109  0  0.667911  0.964219  0  2.339483  0
H  H8  1  0.78523576  0.68405964  0.87967396  1  0.021134  0  0.092251  0.087409  0  0.978463  0
H  H9  1  0.87115408  0.76947945  0.98340366  1  0.050032  0  0.093356  0.09205  0  0.983127  0
H  H10  1  0.78130992  0.86075308  0.97996606  1  0.039644  0  0.093392  0.09208  0  0.982631  0
H  H11  1  0.69563191  0.77458505  0.87686759  1  0.030823  0  0.091657  0.086325  0  0.9798  0
H  H12  1  0.80274203  0.89322307  0.12942188  1  0.074522  0  0.093603  0.095197  0  0.984429  0
H  H13  1  0.73202247  0.83178838  0.13390606  1  0.009778  0  0.089479  0.083249  0  0.979524  0
H  H14  1  0.89165315  0.80069742  0.13241882  1  0.018517  0  0.093569  0.095536  0  0.985233  0
H  H15  1  0.81945296  0.73896453  0.13516484  1  0.005875  0  0.089611  0.083274  0  0.979927  0
H  H16  1  0.68167787  0.59292962  0.88274015  1  0.036404  0  0.092033  0.09297  0  0.982857  0
H  H17  1  0.69595448  0.61529105  0.98711194  1  0.006843  0  0.089878  0.086705  0  0.980679  0
H  H18  1  0.60677103  0.70713562  0.98505783  1  0.020553  0  0.089535  0.086361  0  0.981664  0
H  H19  1  0.59260516  0.68478363  0.88078452  1  0.047516  0  0.091431  0.09158  0  0.98472  0
H  H20  1  0.09109726  0.18264257  0.86987875  1  0.029245  0  0.091458  0.086497  0  0.980087  0
H  H21  1  0.10918909  0.20848213  0.97724688  1  0.049338  0  0.093276  0.092612  0  0.984824  0
H  H22  1  0.19828942  0.11619086  0.97833499  1  0.030073  0  0.092949  0.091543  0  0.98352  0
H  H23  1  0.18001676  0.09135622  0.87118009  1  0.04059  0  0.090694  0.084851  0  0.980197  0
H  H24  1  0.32113467  0.23829048  0.12148563  1  0.030753  0  0.093486  0.095022  0  0.984956  0
H  H25  1  0.39236726  0.30043700  0.11811605  1  0.019299  0  0.089671  0.084242  0  0.979604  0
H  H26  1  0.23336685  0.33185824  0.12072756  1  0.039883  0  0.09323  0.095129  0  0.987679  0
H  H27  1  0.30414316  0.39235386  0.11533012  1  0.024937  0  0.089426  0.08341  0  0.980239  0
H  H28  1  0.19082897  0.27068658  0.86103085  1  0.040505  0  0.090073  0.088896  0  0.984415  0
H  H29  1  0.27758392  0.35658550  0.96078380  1  0.034875  0  0.089995  0.086762  0  0.98083  0
H  H30  1  0.36711709  0.26509597  0.96308211  1  0.006424  0  0.089772  0.087127  0  0.980763  0
H  H31  1  0.28050578  0.17931610  0.86310301  1  0.03792  0  0.091361  0.09146  0  0.983071  0
H  H32  1  0.82465616  0.19349902  0.91474625  1  0.022323  0  0.091174  0.08549  0  0.979077  0
H  H33  1  0.73351219  0.22266122  0.85872205  1  0.026095  0  0.093961  0.093293  0  0.981893  0
H  H34  1  0.64474891  0.12700855  0.85501102  1  0.023555  0  0.093911  0.093871  0  0.982416  0
H  H35  1  0.73649476  0.09903910  0.91190057  1  0.016429  0  0.091449  0.086178  0  0.97933  0
H  H36  1  0.59774523  0.24853461  0.94417192  1  0.044091  0  0.092916  0.09499  0  0.986486  0
H  H37  1  0.65490508  0.30611413  0.06400824  1  0.010436  0  0.08943  0.083066  0  0.979321  0
H  H38  1  0.68745432  0.34475374  0.94908284  1  0.029439  0  0.093714  0.096291  0  0.98422  0
H  H39  1  0.74483097  0.40086860  0.06887735  1  0.00961  0  0.089326  0.083318  0  0.980302  0
H  H40  1  0.90859287  0.27525767  0.08749343  1  0.036194  0  0.090766  0.090977  0  0.985695  0
H  H41  1  0.87616822  0.36008289  0.15031292  1  0.025238  0  0.090146  0.087762  0  0.979928  0
H  H42  1  0.78667482  0.26531635  0.14674899  1  0.046131  0  0.090057  0.086952  0  0.979741  0
H  H43  1  0.81930447  0.18063751  0.08424458  1  0.034955  0  0.091174  0.090705  0  0.9831  0
H  H44  1  0.08653500  0.71938280  0.90167197  1  0.018861  0  0.091164  0.085848  0  0.979895  0
H  H45  1  0.12198796  0.63474403  0.84136015  1  0.026989  0  0.093703  0.092382  0  0.98171  0
H  H46  1  0.20927523  0.73070921  0.84404523  1  0.048553  0  0.094095  0.093366  0  0.98278  0
H  H47  1  0.17529983  0.81525762  0.90663421  1  0.003664  0  0.091436  0.085955  0  0.979089  0
H  H48  1  0.33838424  0.68983219  0.92480758  1  0.029505  0  0.093815  0.096571  0  0.985393  0
H  H49  1  0.39816709  0.74652613  0.04453611  1  -0.004846  0  0.088989  0.082394  0  0.981255  0
H  H50  1  0.25075878  0.59568291  0.92419183  1  0.057707  0  0.092685  0.0937  0  0.986717  0
H  H51  1  0.31002794  0.65397282  0.04393383  1  0.034866  0  0.089339  0.083483  0  0.979781  0
H  H52  1  0.17017267  0.80442596  0.07430761  1  0.031557  0  0.091365  0.091916  0  0.985361  0
H  H53  1  0.26033423  0.77751858  0.13323777  1  0.033864  0  0.089905  0.087536  0  0.978966  0
H  H54  1  0.35099931  0.87015379  0.13577089  1  0.015936  0  0.089615  0.08654  0  0.9815  0
H  H55  1  0.26095367  0.89881208  0.07904305  1  0.024721  0  0.091084  0.090981  0  0.98486  0
C  C56  1  0.85829723  0.36390551  0.00313562  1  1.531632  0  0.234288  0.599416  0  4.102412  0
C  C57  1  0.12064872  0.61934267  0.23544557  1  1.582247  0  0.215514  0.626828  0  4.225529  0
C  C58  1  0.85549362  0.63614895  0.00003912  1  1.516849  0  0.234819  0.600254  0  4.099352  0
C  C59  1  0.13538772  0.63117630  0.98431479  1  1.56309  0  0.235937  0.603988  0  4.0958  0
C  C60  1  0.86994606  0.37321555  0.74696886  1  1.632542  0  0.217581  0.630727  0  4.221056  0
C  C61  1  0.13613881  0.35472183  0.98425409  1  1.508759  0  0.234812  0.603815  0  4.092964  0
C  C62  1  0.63880883  0.85750310  0.99536229  1  1.537828  0  0.235133  0.602663  0  4.09793  0
C  C63  1  0.38065836  0.87144044  0.74556291  1  1.634904  0  0.21423  0.624345  0  4.232388  0
C  C64  1  0.64156492  0.13597052  0.99564891  1  1.544053  0  0.23467  0.600828  0  4.102261  0
C  C65  1  0.35346680  0.13296856  0.98745379  1  1.564629  0  0.235276  0.604192  0  4.091918  0
C  C66  1  0.61137755  0.11743616  0.23550173  1  1.680595  0  0.215664  0.628358  0  4.224193  0
C  C67  1  0.35101797  0.85739917  0.98816575  1  1.548461  0  0.235372  0.605  0  4.092234  0
C  C68  1  0.72938581  0.29528403  0.59052166  1  0.597259  0  0.102277  0.2554  0  4.071502  0
C  C69  1  0.75004288  0.19561226  0.39239145  1  0.550484  0  0.10315  0.256369  0  4.07128  0
C  C70  1  0.81860761  0.32345536  0.64724954  1  -0.118612  0  -0.035886  -0.247406  0  3.969649  0
C  C71  1  0.66089030  0.16749377  0.33534596  1  -0.16492  0  -0.035744  -0.245537  0  3.960684  0
C  C72  1  0.77562743  0.24243637  0.48536545  1  -0.076578  0  -0.03194  -0.122696  0  4.126206  0
C  C73  1  0.70352379  0.24885439  0.49740457  1  -0.19194  0  -0.030529  -0.120672  0  4.122964  0
C  C74  1  0.19929369  0.75656373  0.39506896  1  0.639501  0  0.102573  0.254733  0  4.073421  0
C  C75  1  0.29860188  0.73417272  0.58626782  1  0.566875  0  0.10323  0.255981  0  4.070256  0
C  C76  1  0.16989378  0.66889709  0.33500238  1  -0.146078  0  -0.035528  -0.245143  0  3.969398  0
C  C77  1  0.32904036  0.82183999  0.64614705  1  -0.137757  0  -0.03582  -0.24517  0  3.973515  0
C  C78  1  0.25096373  0.70951973  0.49446260  1  -0.112927  0  -0.030314  -0.119929  0  4.12431  0
C  C79  1  0.24607841  0.78102197  0.48679242  1  -0.141699  0  -0.031377  -0.122543  0  4.129639  0
C  C80  1  0.80317151  0.73501252  0.94910613  1  -0.037134  0  -0.155794  -0.171262  0  3.84882  0
C  C81  1  0.74365488  0.79558058  0.94724102  1  -0.047045  0  -0.154889  -0.168989  0  3.851393  0
C  C82  1  0.69603441  0.79696253  0.99756571  1  0.062198  0  -0.016151  0.021421  0  3.811671  0
C  C83  1  0.76478984  0.82818266  0.09643810  1  -0.063388  0  -0.158377  -0.172115  0  3.861065  0
C  C84  1  0.82350329  0.76686363  0.09784364  1  0.015253  0  -0.157898  -0.170913  0  3.858596  0
C  C85  1  0.79560385  0.69441558  0.99993962  1  0.070748  0  -0.017148  0.021722  0  3.812581  0
C  C86  1  0.70099260  0.64523675  0.95188540  1  -0.013398  0  -0.164863  -0.178915  0  3.889269  0
C  C87  1  0.64207072  0.70603430  0.95061893  1  -0.024722  0  -0.164301  -0.176601  0  3.888935  0
C  C88  1  0.14184814  0.20534449  0.93990438  1  -0.061291  0  -0.155861  -0.172062  0  3.849205  0
C  C89  1  0.20108277  0.14427857  0.94078594  1  -0.028428  0  -0.154499  -0.166995  0  3.850582  0
C  C90  1  0.29583019  0.19348211  0.98595844  1  0.043644  0  -0.01624  0.020757  0  3.810748  0
C  C91  1  0.32426919  0.26616876  0.08393895  1  -0.02136  0  -0.159332  -0.174362  0  3.866436  0
C  C92  1  0.26566513  0.32749193  0.08279961  1  -0.032011  0  -0.158801  -0.172369  0  3.86154  0
C  C93  1  0.19598989  0.29619441  0.98405924  1  0.059679  0  -0.016202  0.022561  0  3.808561  0
C  C94  1  0.24038085  0.29206015  0.93089912  1  -0.036936  0  -0.164184  -0.175944  0  3.887652  0
C  C95  1  0.29965902  0.23146710  0.93229080  1  -0.005373  0  -0.165258  -0.178195  0  3.883112  0
C  C96  1  0.76858727  0.21623417  0.91738022  1  -0.022456  0  -0.15442  -0.168512  0  3.848521  0
C  C97  1  0.70968747  0.15317844  0.91516006  1  0.001021  0  -0.155086  -0.170048  0  3.852476  0
C  C98  1  0.70164708  0.19916514  0.00138678  1  0.047409  0  -0.016625  0.021148  0  3.813388  0
C  C99  1  0.66274078  0.27408222  0.00402108  1  -0.022408  0  -0.158881  -0.173591  0  3.862006  0
C  C100  1  0.72222401  0.33726948  0.00698157  1  -0.007041  0  -0.158882  -0.173776  0  3.863931  0
C  C101  1  0.80141135  0.30521656  0.00546730  1  0.050129  0  -0.015961  0.023898  0  3.810036  0
C  C102  1  0.85150264  0.29677146  0.08776287  1  -0.018809  0  -0.164497  -0.179641  0  3.885459  0
C  C103  1  0.79227729  0.23403350  0.08546342  1  -0.045567  0  -0.164074  -0.175355  0  3.883967  0
C  C104  1  0.14439450  0.69854223  0.90270357  1  -0.021581  0  -0.154101  -0.169199  0  3.847227  0
C  C105  1  0.20310756  0.76199643  0.90495632  1  -0.021848  0  -0.154526  -0.167815  0  3.845767  0
C  C106  1  0.29441698  0.79781985  0.98993626  1  0.049161  0  -0.016327  0.018797  0  3.8129  0
C  C107  1  0.33232933  0.72199838  0.98571631  1  0.013804  0  -0.158826  -0.172151  0  3.860481  0
C  C108  1  0.27382580  0.65990608  0.98497860  1  -0.062643  0  -0.159581  -0.173827  0  3.866623  0
C  C109  1  0.19509912  0.69246097  0.98728404  1  0.039686  0  -0.016376  0.021655  0  3.805608  0
C  C110  1  0.22657233  0.78193591  0.07306459  1  -0.030301  0  -0.164316  -0.176756  0  3.88278  0
C  C111  1  0.28625140  0.84396653  0.07524157  1  -0.00411  0  -0.165226  -0.178012  0  3.893508  0
S  S112  1  0.87268320  0.29266002  0.58616475  1  0.317715  0  0.09545  0.175897  0  2.756804  0
S  S113  1  0.60655565  0.19870162  0.39626034  1  0.308843  0  0.095612  0.174409  0  2.742624  0
S  S114  1  0.19929758  0.61452284  0.39102895  1  0.313948  0  0.096623  0.176281  0  2.754337  0
S  S115  1  0.29881527  0.87611626  0.59006440  1  0.297176  0  0.096582  0.177043  0  2.755821  0
O  O116  1  0.99664311  0.49468863  0.98996638  1  -1.239751  0  -0.572081  -1.02684  0  2.535004  0
O  O117  1  0.82016010  0.38490485  0.94513105  1  -1.176753  0  -0.315669  -0.549185  0  2.347713  0
O  O118  1  0.10524352  0.53832753  0.19766495  1  -1.150629  0  -0.319923  -0.543461  0  2.322689  0
O  O119  1  0.93663875  0.67253494  0.05021254  1  -1.174047  0  -0.316246  -0.547692  0  2.352036  0
O  O120  1  0.93961874  0.38590013  0.05726553  1  -1.17291  0  -0.313307  -0.544764  0  2.364712  0
O  O121  1  0.82078530  0.55600594  0.94912807  1  -1.171249  0  -0.312434  -0.545636  0  2.360475  0
O  O122  1  0.09832922  0.66082315  0.19649976  1  -1.166215  0  -0.312062  -0.530739  0  2.325946  0
O  O123  1  0.10675011  0.66464720  0.03892125  1  -1.184436  0  -0.3141  -0.548319  0  2.384563  0
O  O124  1  0.95222702  0.39024038  0.78127354  1  -1.165654  0  -0.319809  -0.547491  0  2.313411  0
O  O125  1  0.11753330  0.55146905  0.92714179  1  -1.180063  0  -0.316471  -0.551705  0  2.322478  0
O  O126  1  0.82811894  0.39438680  0.78923687  1  -1.176418  0  -0.314439  -0.533452  0  2.322526  0
O  O127  1  0.10535909  0.36999530  0.03647976  1  -1.172795  0  -0.31744  -0.553064  0  2.358989  0
O  O128  1  0.12069717  0.38334068  0.93283665  1  -1.162505  0  -0.312476  -0.546925  0  2.342494  0
O  O129  1  0.49627973  0.99631093  0.99198507  1  -1.209771  0  -0.571534  -1.027307  0  2.536825  0
O  O130  1  0.67681564  0.93711900  0.04398314  1  -1.165509  0  -0.315578  -0.549539  0  2.337798  0
O  O131  1  0.40317960  0.82991441  0.78445998  1  -1.163464  0  -0.312708  -0.530436  0  2.326949  0
O  O132  1  0.56182713  0.11187899  0.93483362  1  -1.179196  0  -0.317538  -0.552006  0  2.350907  0
O  O133  1  0.55733962  0.82426913  0.94453352  1  -1.185364  0  -0.31298  -0.546439  0  2.372941  0
O  O134  1  0.67485611  0.11118978  0.05072904  1  -1.175049  0  -0.311051  -0.542673  0  2.361141  0
O  O135  1  0.39803459  0.95249589  0.78340756  1  -1.16162  0  -0.319542  -0.543726  0  2.326935  0
O  O136  1  0.38568198  0.11362004  0.93609745  1  -1.195024  0  -0.313947  -0.546872  0  2.370906  0
O  O137  1  0.52890380  0.10252236  0.19834561  1  -1.167569  0  -0.318723  -0.543575  0  2.300532  0
O  O138  1  0.36483075  0.10602267  0.03979613  1  -1.172356  0  -0.316918  -0.553361  0  2.332121  0
O  O139  1  0.65553076  0.09376835  0.19592013  1  -1.17476  0  -0.314175  -0.53551  0  2.333996  0
O  O140  1  0.37291806  0.82211604  0.92769889  1  -1.168239  0  -0.317865  -0.551726  0  2.352995  0
O  O141  1  0.37164559  0.93716386  0.04572841  1  -1.184088  0  -0.312878  -0.548264  0  2.345569  0
F  F142  1  0.67180812  0.30962925  0.61910215  1  -0.615094  0  -0.086166  -0.10326  0  1.347947  0
F  F143  1  0.80803688  0.18116614  0.36440283  1  -0.615494  0  -0.086225  -0.102932  0  1.352493  0
F  F144  1  0.18608360  0.81390958  0.37064677  1  -0.612588  0  -0.085595  -0.102469  0  1.345735  0
F  F145  1  0.31205416  0.67697674  0.61087891  1  -0.615384  0  -0.085837  -0.103336  0  1.346115  0
