# generated using pymatgen
data_Na2H12C12S2N2Cl6O7
_symmetry_space_group_name_H-M   'P 1'
_cell_length_a   6.34849255
_cell_length_b   6.34916381
_cell_length_c   30.03238624
_cell_angle_alpha   92.83215774
_cell_angle_beta   93.84610622
_cell_angle_gamma   116.70679486
_symmetry_Int_Tables_number   1
_chemical_formula_structural   Na2H12C12S2N2Cl6O7
_chemical_formula_sum   'Na4 H24 C24 S4 N4 Cl12 O14'
_cell_volume   1074.64979363
_cell_formula_units_Z   2
loop_
 _symmetry_equiv_pos_site_id
 _symmetry_equiv_pos_as_xyz
  1  'x, y, z'
loop_
 _atom_site_type_symbol
 _atom_site_label
 _atom_site_symmetry_multiplicity
 _atom_site_fract_x
 _atom_site_fract_y
 _atom_site_fract_z
 _atom_site_occupancy
 _atom_site_hle17_bader_spin_density
 _atom_site_hle17_ddec_charge
 _atom_site_hle17_ddec_spin_density
 _atom_site_hle17_ddec_sum_bond_order
 _atom_site_hle17_magmom
 _atom_site_hse06_10hf_bader_spin_density
 _atom_site_hse06_10hf_ddec_charge
 _atom_site_hse06_10hf_ddec_spin_density
 _atom_site_hse06_10hf_ddec_sum_bond_order
 _atom_site_hse06_10hf_magmom
 _atom_site_hse06_bader_spin_density
 _atom_site_hse06_ddec_charge
 _atom_site_hse06_ddec_spin_density
 _atom_site_hse06_ddec_sum_bond_order
 _atom_site_hse06_magmom
 _atom_site_pbe_bader_spin_density
 _atom_site_pbe_cm5_charge
 _atom_site_pbe_ddec_charge
 _atom_site_pbe_ddec_spin_density
 _atom_site_pbe_ddec_sum_bond_order
 _atom_site_pbe_magmom
Na  Na0  1  0.59348283  0.14439199  0.73621260  1  0  0.919596  0  0.35177  0  0  0.887925  0  0.48908  0  0  0.896722  0  0.468576  0  0  0.65296  0.881327  0  0.503878  0
Na  Na1  1  0.90812414  0.85745443  0.76377186  1  0  0.919539  0  0.351726  0  0  0.888122  0  0.488535  0  0  0.896743  0  0.468354  0  0  0.652786  0.881567  0  0.503308  0
Na  Na2  1  0.40651900  0.85561228  0.26378761  1  0  0.919587  0  0.35179  0  0  0.887933  0  0.48907  0  0  0.896699  0  0.46861  0  0  0.652965  0.881341  0  0.503879  0
Na  Na3  1  0.09187923  0.14254984  0.23622904  1  0  0.919538  0  0.351714  0  0  0.888114  0  0.488542  0  0  0.896725  0  0.468347  0  0  0.652792  0.881558  0  0.503318  0
H  H4  1  0.58654606  0.94039662  0.52659944  1  0  0.124476  0  0.942251  0  0  0.135731  0  1.002727  0  0  0.139379  0  1.000276  0  0  0.103099  0.133103  0  1.004599  0
H  H5  1  0.91426406  0.06060733  0.97342376  1  0  0.124107  0  0.94194  0  0  0.135223  0  1.002681  0  0  0.138819  0  1.00029  0  0  0.102891  0.132654  0  1.004508  0
H  H6  1  0.41345244  0.05958987  0.47339890  1  0  0.124438  0  0.942298  0  0  0.135671  0  1.002798  0  0  0.139319  0  1.000349  0  0  0.103075  0.133049  0  1.004657  0
H  H7  1  0.08572260  0.93938461  0.02657676  1  0  0.124154  0  0.941911  0  0  0.135248  0  1.002663  0  0  0.138841  0  1.000276  0  0  0.102907  0.132681  0  1.004492  0
H  H8  1  0.07785038  0.64489019  0.54274362  1  0  0.104956  0  0.97448  0  0  0.109118  0  1.048099  0  0  0.113053  0  1.045456  0  0  0.090242  0.10629  0  1.050104  0
H  H9  1  0.60158235  0.53482047  0.95727743  1  0  0.105023  0  0.973902  0  0  0.109224  0  1.04756  0  0  0.113164  0  1.044907  0  0  0.090295  0.106398  0  1.049565  0
H  H10  1  0.92215850  0.35510869  0.45725567  1  0  0.104985  0  0.974432  0  0  0.109148  0  1.048045  0  0  0.113082  0  1.045402  0  0  0.090268  0.106324  0  1.050045  0
H  H11  1  0.39842099  0.46518383  0.04272448  1  0  0.105036  0  0.973824  0  0  0.109239  0  1.047481  0  0  0.113182  0  1.044824  0  0  0.090305  0.106419  0  1.049481  0
H  H12  1  0.20992801  0.84754225  0.61961090  1  0  0.106069  0  0.986674  0  0  0.108061  0  1.059808  0  0  0.111593  0  1.056991  0  0  0.097571  0.105501  0  1.06188  0
H  H13  1  0.72721376  0.59003413  0.88039328  1  0  0.106073  0  0.987165  0  0  0.108588  0  1.05991  0  0  0.112131  0  1.057082  0  0  0.097497  0.106013  0  1.062002  0
H  H14  1  0.79007777  0.15246020  0.38038837  1  0  0.106139  0  0.98671  0  0  0.108119  0  1.059838  0  0  0.11165  0  1.057022  0  0  0.09761  0.105561  0  1.061911  0
H  H15  1  0.27279362  0.40997904  0.11960910  1  0  0.106135  0  0.987131  0  0  0.108649  0  1.059834  0  0  0.112191  0  1.057008  0  0  0.097529  0.106072  0  1.061926  0
H  H16  1  0.37028451  0.61711163  0.72397175  1  0  0.396823  0  0.911437  0  0  0.365364  0  0.9791  0  0  0.374558  0  0.965647  0  0  0.283794  0.358886  0  0.988574  0
H  H17  1  0.39292613  0.64640408  0.77596217  1  0  0.396963  0  0.911861  0  0  0.365565  0  0.979019  0  0  0.374766  0  0.96555  0  0  0.283853  0.359086  0  0.988499  0
H  H18  1  0.62972511  0.38288907  0.27602922  1  0  0.396864  0  0.911398  0  0  0.365365  0  0.979109  0  0  0.374558  0  0.965658  0  0  0.283739  0.358889  0  0.988576  0
H  H19  1  0.60707720  0.35359665  0.22403871  1  0  0.397013  0  0.911825  0  0  0.365607  0  0.97897  0  0  0.374808  0  0.9655  0  0  0.283851  0.35913  0  0.988447  0
H  H20  1  0.36798814  0.03781050  0.81541570  1  0  0.389387  0  0.909513  0  0  0.357472  0  0.986238  0  0  0.366169  0  0.973297  0  0  0.2792  0.351276  0  0.995481  0
H  H21  1  0.72247570  0.55270976  0.68457069  1  0  0.389391  0  0.910043  0  0  0.357051  0  0.987002  0  0  0.365766  0  0.974025  0  0  0.278974  0.350857  0  0.996237  0
H  H22  1  0.63201690  0.96220086  0.18458529  1  0  0.389362  0  0.909507  0  0  0.357455  0  0.98625  0  0  0.366151  0  0.973309  0  0  0.279188  0.35126  0  0.995489  0
H  H23  1  0.27752850  0.44729628  0.31542991  1  0  0.389436  0  0.909988  0  0  0.357099  0  0.986897  0  0  0.365813  0  0.973925  0  0  0.279007  0.350899  0  0.996145  0
H  H24  1  0.32591083  0.25883113  0.80785248  1  0  0.413402  0  0.892653  0  0  0.379096  0  0.963904  0  0  0.388618  0  0.949903  0  0  0.284663  0.372371  0  0.973788  0
H  H25  1  0.95115223  0.51830838  0.69211285  1  0  0.413038  0  0.893293  0  0  0.378505  0  0.964757  0  0  0.388025  0  0.950755  0  0  0.284511  0.371783  0  0.974638  0
H  H26  1  0.67408948  0.74117668  0.19214741  1  0  0.413478  0  0.892551  0  0  0.379167  0  0.96381  0  0  0.388689  0  0.94981  0  0  0.284699  0.372443  0  0.973693  0
H  H27  1  0.04885355  0.48169765  0.30788777  1  0  0.413037  0  0.893295  0  0  0.378517  0  0.964747  0  0  0.388038  0  0.950745  0  0  0.284515  0.371797  0  0.974623  0
C  C28  1  0.97909362  0.01129747  0.61635282  1  0  -0.18776  0  3.707448  0  0  -0.174829  0  3.965264  0  0  -0.182274  0  3.985564  0  0  -0.036409  -0.170185  0  3.952001  0
C  C29  1  0.89459875  0.36279456  0.88364683  1  0  -0.187859  0  3.707279  0  0  -0.174966  0  3.965461  0  0  -0.182311  0  3.985527  0  0  -0.03673  -0.170333  0  3.952221  0
C  C30  1  0.02090666  0.98870320  0.38364534  1  0  -0.18781  0  3.707615  0  0  -0.174839  0  3.965341  0  0  -0.18228  0  3.985654  0  0  -0.036437  -0.170199  0  3.952093  0
C  C31  1  0.10540231  0.63721507  0.11635475  1  0  -0.187848  0  3.707018  0  0  -0.174909  0  3.965235  0  0  -0.182303  0  3.985396  0  0  -0.036752  -0.170285  0  3.951998  0
C  C32  1  0.80234566  0.03688371  0.58976814  1  0  0.149507  0  3.801741  0  0  0.153658  0  4.074722  0  0  0.160184  0  4.09389  0  0  0.014986  0.149191  0  4.061899  0
C  C33  1  0.94703716  0.21283082  0.91023656  1  0  0.150089  0  3.801154  0  0  0.154042  0  4.074373  0  0  0.160523  0  4.093624  0  0  0.015029  0.14957  0  4.06158  0
C  C34  1  0.19765925  0.96310984  0.41023003  1  0  0.149379  0  3.80175  0  0  0.153519  0  4.074736  0  0  0.160036  0  4.093915  0  0  0.014919  0.149053  0  4.061912  0
C  C35  1  0.05295907  0.78716816  0.08976385  1  0  0.150248  0  3.800938  0  0  0.154103  0  4.074259  0  0  0.160616  0  4.093452  0  0  0.015104  0.149645  0  4.061446  0
C  C36  1  0.72388209  0.92008682  0.54679487  1  0  -0.205268  0  3.749399  0  0  -0.240186  0  4.008206  0  0  -0.245446  0  4.026813  0  0  -0.110859  -0.236671  0  3.995785  0
C  C37  1  0.87343419  0.17744494  0.95321975  1  0  -0.205663  0  3.750333  0  0  -0.240379  0  4.009201  0  0  -0.245653  0  4.027927  0  0  -0.111305  -0.236886  0  3.996686  0
C  C38  1  0.27611565  0.07990145  0.45320347  1  0  -0.205108  0  3.749267  0  0  -0.240026  0  4.008108  0  0  -0.245284  0  4.026719  0  0  -0.110743  -0.236507  0  3.99568  0
C  C39  1  0.12655572  0.82255408  0.04678088  1  0  -0.205823  0  3.750259  0  0  -0.240491  0  4.009144  0  0  -0.245767  0  4.027849  0  0  -0.111368  -0.237005  0  3.996637  0
C  C40  1  0.82621513  0.78279708  0.52996472  1  0  0.160184  0  3.814659  0  0  0.171352  0  4.080451  0  0  0.17751  0  4.099941  0  0  0.010931  0.167106  0  4.067302  0
C  C41  1  0.75273335  0.29633648  0.97004952  1  0  0.160336  0  3.814165  0  0  0.17167  0  4.079837  0  0  0.17781  0  4.099334  0  0  0.011614  0.167433  0  4.0667  0
C  C42  1  0.17378342  0.21719296  0.47003366  1  0  0.160116  0  3.814621  0  0  0.171276  0  4.08043  0  0  0.177434  0  4.099919  0  0  0.010897  0.167025  0  4.067291  0
C  C43  1  0.24726210  0.70366429  0.02995122  1  0  0.160366  0  3.814249  0  0  0.171695  0  4.079885  0  0  0.177837  0  4.099376  0  0  0.011627  0.167452  0  4.066754  0
C  C44  1  0.00028700  0.75390690  0.55590053  1  0  -0.134116  0  3.73901  0  0  -0.16102  0  3.999601  0  0  -0.165392  0  4.017957  0  0  -0.106622  -0.158175  0  3.98731  0
C  C45  1  0.69760352  0.44424202  0.94411173  1  0  -0.133825  0  3.738391  0  0  -0.160628  0  3.998991  0  0  -0.164995  0  4.017384  0  0  -0.107003  -0.157804  0  3.986715  0
C  C46  1  0.99971871  0.24608843  0.44409801  1  0  -0.134167  0  3.738994  0  0  -0.161098  0  3.999633  0  0  -0.165469  0  4.017987  0  0  -0.10671  -0.158255  0  3.987353  0
C  C47  1  0.30239676  0.55576940  0.05589018  1  0  -0.133892  0  3.738642  0  0  -0.160674  0  3.999224  0  0  -0.165036  0  4.017607  0  0  -0.107062  -0.157848  0  3.986934  0
C  C48  1  0.07399274  0.86766761  0.59893124  1  0  -0.027127  0  3.747516  0  0  -0.053473  0  4.010588  0  0  -0.050765  0  4.028838  0  0  -0.087129  -0.055134  0  3.998354  0
C  C49  1  0.76824240  0.47494542  0.90107173  1  0  -0.028053  0  3.748274  0  0  -0.055076  0  4.01129  0  0  -0.052357  0  4.029484  0  0  -0.086929  -0.056751  0  3.999138  0
C  C50  1  0.92601144  0.13233128  0.40106730  1  0  -0.027186  0  3.74765  0  0  -0.053551  0  4.010762  0  0  -0.050841  0  4.029009  0  0  -0.087147  -0.055214  0  3.99854  0
C  C51  1  0.23176417  0.52506239  0.09892925  1  0  -0.028114  0  3.748406  0  0  -0.055126  0  4.011408  0  0  -0.052406  0  4.029598  0  0  -0.086904  -0.056798  0  3.999253  0
S  S52  1  0.09308538  0.15450652  0.67175152  1  0  1.201046  0  5.515753  0  0  1.117555  0  6.02584  0  0  1.161056  0  6.00983  0  0  0.525706  1.087586  0  6.036018  0
S  S53  1  0.98230068  0.42134778  0.82824179  1  0  1.203144  0  5.512997  0  0  1.119801  0  6.022832  0  0  1.163308  0  6.00686  0  0  0.527227  1.089823  0  6.033057  0
S  S54  1  0.90693065  0.84549407  0.32824690  1  0  1.201282  0  5.515356  0  0  1.117793  0  6.025413  0  0  1.161289  0  6.009413  0  0  0.525816  1.087828  0  6.035591  0
S  S55  1  0.01769663  0.57861572  0.17175834  1  0  1.203233  0  5.512666  0  0  1.119858  0  6.022522  0  0  1.163365  0  6.006543  0  0  0.527338  1.089887  0  6.032715  0
N  N56  1  0.17882554  0.43385592  0.67139335  1  0  -0.594534  0  2.732413  0  0  -0.542352  0  3.022291  0  0  -0.55933  0  3.018588  0  0  -0.357991  -0.530412  0  3.024419  0
N  N57  1  0.26199905  0.50730707  0.82857151  1  0  -0.595686  0  2.73156  0  0  -0.543575  0  3.021918  0  0  -0.560272  0  3.01754  0  0  -0.358087  -0.531675  0  3.024143  0
N  N58  1  0.82117626  0.56614478  0.32860617  1  0  -0.594452  0  2.732352  0  0  -0.542255  0  3.022227  0  0  -0.55925  0  3.018554  0  0  -0.357931  -0.530309  0  3.024336  0
N  N59  1  0.73799489  0.49269724  0.17142890  1  0  -0.595744  0  2.731403  0  0  -0.54361  0  3.021748  0  0  -0.560309  0  3.017371  0  0  -0.358069  -0.531698  0  3.023947  0
Cl  Cl60  1  0.40697970  0.56056162  0.63658643  1  0  -0.000252  0  1.464995  0  0  0.033075  0  1.724117  0  0  0.03082  0  1.717072  0  0  0.082996  0.034538  0  1.72921  0
Cl  Cl61  1  0.42371226  0.77033594  0.86336632  1  0  0.000308  0  1.464524  0  0  0.033146  0  1.724212  0  0  0.030877  0  1.717028  0  0  0.082882  0.034664  0  1.729224  0
Cl  Cl62  1  0.59302378  0.43944617  0.36341317  1  0  -0.000333  0  1.465024  0  0  0.032983  0  1.724102  0  0  0.030738  0  1.717048  0  0  0.082944  0.034437  0  1.729204  0
Cl  Cl63  1  0.57627225  0.22967198  0.13663463  1  0  0.000292  0  1.464554  0  0  0.033083  0  1.72426  0  0  0.030816  0  1.717077  0  0  0.082832  0.034599  0  1.729272  0
Cl  Cl64  1  0.67715916  0.21239224  0.60769504  1  0  -0.059277  0  1.503046  0  0  -0.048633  0  1.765807  0  0  -0.052245  0  1.76141  0  0  0.035133  -0.045979  0  1.768936  0
Cl  Cl65  1  0.10467226  0.06976126  0.89229381  1  0  -0.059457  0  1.501972  0  0  -0.0486  0  1.764656  0  0  -0.052232  0  1.760264  0  0  0.035074  -0.045956  0  1.767795  0
Cl  Cl66  1  0.32284420  0.78760130  0.39230244  1  0  -0.059182  0  1.503022  0  0  -0.048532  0  1.765807  0  0  -0.052142  0  1.761414  0  0  0.035207  -0.045878  0  1.768937  0
Cl  Cl67  1  0.89532077  0.93023776  0.10770754  1  0  -0.059474  0  1.501807  0  0  -0.048595  0  1.764509  0  0  -0.052234  0  1.760101  0  0  0.035072  -0.04595  0  1.767642  0
Cl  Cl68  1  0.74032677  0.65394008  0.47561590  1  0  -0.081982  0  1.508868  0  0  -0.066217  0  1.767179  0  0  -0.071596  0  1.765451  0  0  0.018909  -0.062266  0  1.768456  0
Cl  Cl69  1  0.67833005  0.26469813  0.02439516  1  0  -0.081579  0  1.508575  0  0  -0.065884  0  1.766769  0  0  -0.071255  0  1.765039  0  0  0.019178  -0.061946  0  1.768047  0
Cl  Cl70  1  0.25966861  0.34604998  0.52438276  1  0  -0.081986  0  1.508875  0  0  -0.06622  0  1.767199  0  0  -0.071599  0  1.765471  0  0  0.018904  -0.062266  0  1.768476  0
Cl  Cl71  1  0.32166388  0.73530619  0.97560559  1  0  -0.081605  0  1.508675  0  0  -0.065911  0  1.766866  0  0  -0.071284  0  1.765136  0  0  0.019141  -0.061976  0  1.768145  0
O  O72  1  0.89673346  0.07713316  0.69988050  1  0  -0.687522  0  2.005629  0  0  -0.649112  0  2.276422  0  0  -0.669514  0  2.262635  0  0  -0.397573  -0.634448  0  2.285357  0
O  O73  1  0.87664921  0.19681841  0.80011427  1  0  -0.688478  0  2.005397  0  0  -0.64988  0  2.275853  0  0  -0.670365  0  2.262131  0  0  -0.398326  -0.635125  0  2.284621  0
O  O74  1  0.10326281  0.92286578  0.30011858  1  0  -0.687552  0  2.005777  0  0  -0.649142  0  2.276591  0  0  -0.669537  0  2.262802  0  0  -0.397582  -0.634466  0  2.285504  0
O  O75  1  0.12335566  0.80318951  0.19989002  1  0  -0.688634  0  2.004419  0  0  -0.650066  0  2.274906  0  0  -0.670533  0  2.261156  0  0  -0.398499  -0.635372  0  2.283813  0
O  O76  1  0.27972583  0.08866672  0.68437964  1  0  -0.668195  0  2.006136  0  0  -0.623851  0  2.266124  0  0  -0.642874  0  2.251908  0  0  -0.380329  -0.610411  0  2.27549  0
O  O77  1  0.90382752  0.59533010  0.81562678  1  0  -0.668858  0  2.005976  0  0  -0.624425  0  2.265458  0  0  -0.643502  0  2.25137  0  0  -0.380761  -0.610987  0  2.274807  0
O  O78  1  0.72026656  0.91133400  0.31561872  1  0  -0.668374  0  2.005729  0  0  -0.624027  0  2.265719  0  0  -0.643063  0  2.25154  0  0  -0.380429  -0.610573  0  2.275051  0
O  O79  1  0.09615386  0.40467066  0.18437107  1  0  -0.6687  0  2.006763  0  0  -0.624167  0  2.266121  0  0  -0.643235  0  2.252025  0  0  -0.380655  -0.610732  0  2.275462  0
O  O80  1  0.47411212  0.72425363  0.74997332  1  0  -0.87037  0  1.784652  0  0  -0.823682  0  1.953595  0  0  -0.838943  0  1.92416  0  0  -0.662779  -0.812838  0  1.974121  0
O  O81  1  0.52589432  0.27574353  0.25002724  1  0  -0.870455  0  1.784527  0  0  -0.823731  0  1.953528  0  0  -0.838988  0  1.92409  0  0  -0.662709  -0.812883  0  1.974035  0
O  O82  1  0.32930724  0.11978313  0.79191014  1  0  -0.883838  0  1.827831  0  0  -0.846598  0  2.007425  0  0  -0.860477  0  1.976673  0  0  -0.67187  -0.836828  0  2.029092  0
O  O83  1  0.82815267  0.53779278  0.70807235  1  0  -0.883751  0  1.827563  0  0  -0.845958  0  2.008167  0  0  -0.859771  0  1.977385  0  0  -0.671296  -0.836192  0  2.029817  0
O  O84  1  0.67068985  0.88022117  0.20809032  1  0  -0.883895  0  1.827749  0  0  -0.846674  0  2.007383  0  0  -0.860543  0  1.976631  0  0  -0.671906  -0.836901  0  2.029051  0
O  O85  1  0.17185468  0.46221324  0.29192830  1  0  -0.88379  0  1.827542  0  0  -0.84602  0  2.008271  0  0  -0.859795  0  1.977424  0  0  -0.67135  -0.836257  0  2.029925  0
