# generated using pymatgen
data_CuH24C21(NO)4
_symmetry_space_group_name_H-M   'P 1'
_cell_length_a   7.78602744
_cell_length_b   11.76403151
_cell_length_c   12.25699193
_cell_angle_alpha   85.93454117
_cell_angle_beta   78.65554068
_cell_angle_gamma   80.12690788
_symmetry_Int_Tables_number   1
_chemical_formula_structural   CuH24C21(NO)4
_chemical_formula_sum   'Cu2 H48 C42 N8 O8'
_cell_volume   1083.64032286
_cell_formula_units_Z   2
loop_
 _symmetry_equiv_pos_site_id
 _symmetry_equiv_pos_as_xyz
  1  'x, y, z'
loop_
 _atom_site_type_symbol
 _atom_site_label
 _atom_site_symmetry_multiplicity
 _atom_site_fract_x
 _atom_site_fract_y
 _atom_site_fract_z
 _atom_site_occupancy
 _atom_site_hle17_ddec_charge
 _atom_site_hle17_ddec_spin_density
 _atom_site_hle17_ddec_sum_bond_order
 _atom_site_hle17_magmom
 _atom_site_hse06_10hf_ddec_charge
 _atom_site_hse06_10hf_ddec_spin_density
 _atom_site_hse06_10hf_ddec_sum_bond_order
 _atom_site_hse06_10hf_magmom
 _atom_site_hse06_ddec_charge
 _atom_site_hse06_ddec_spin_density
 _atom_site_hse06_ddec_sum_bond_order
 _atom_site_hse06_magmom
 _atom_site_pbe_cm5_charge
 _atom_site_pbe_ddec_charge
 _atom_site_pbe_ddec_spin_density
 _atom_site_pbe_ddec_sum_bond_order
 _atom_site_pbe_magmom
Cu  Cu0  1  0.49999899  0.50000040  0.49999985  1  0.836672  -0.715764  1.783889  -0.498  0.804542  -0.798345  2.178721  -0.608  0.901023  -0.871499  2.100583  -0.689  0.724613  0.74394  -0.748349  2.234526  -0.558
Cu  Cu1  1  0.50000309  0.00000071  0.99999990  1  0.829272  0.722799  1.850494  0.503  0.799138  0.80175  2.246778  0.61  0.892738  0.873401  2.169566  0.689  0.739467  0.740403  0.752477  2.301843  0.561
H  H2  1  0.66929282  0.71527042  0.55282154  1  0.098586  0.000125  0.960184  0.0  0.108008  3.7e-05  1.024151  0.0  0.110612  3.5e-05  1.021202  0.0  0.135897  0.106003  3e-05  1.026318  0.0
H  H3  1  0.33070899  0.28472512  0.44718287  1  0.098607  0.000126  0.96024  0.0  0.108044  3.7e-05  1.02419  0.0  0.110658  3.5e-05  1.02123  0.0  0.135917  0.106041  3e-05  1.026354  0.0
H  H4  1  0.13843361  0.76397191  0.41610567  1  0.093442  -0.000138  0.915244  0.0  0.111106  -8.7e-05  0.971945  0.0  0.111735  -5.3e-05  0.971665  0.0  0.120565  0.11049  -0.000114  0.972387  0.0
H  H5  1  0.86156396  0.23603057  0.58389724  1  0.093434  -0.000136  0.915258  0.0  0.111091  -8.7e-05  0.971955  0.0  0.111719  -5.3e-05  0.971676  0.0  0.120556  0.110471  -0.000114  0.972397  0.0
H  H6  1  0.06243790  0.73572478  0.55901082  1  0.093497  0.000108  0.913398  0.0  0.109722  5.6e-05  0.973975  0.0  0.110829  5.7e-05  0.973064  0.0  0.116475  0.108775  5e-05  0.974804  0.0
H  H7  1  0.93756380  0.26427681  0.44099245  1  0.093496  0.00011  0.913422  0.0  0.109747  5.6e-05  0.973948  0.0  0.110856  5.7e-05  0.973036  0.0  0.116455  0.108794  5e-05  0.974775  0.0
H  H8  1  0.69607279  0.85159463  0.17635334  1  0.109467  -1.6e-05  0.919765  0.0  0.122354  2.5e-05  0.974204  0.0  0.125267  2.3e-05  0.970744  0.0  0.14353  0.120059  3.5e-05  0.976859  0.0
H  H9  1  0.30392844  0.14840359  0.82364365  1  0.109464  -2e-05  0.919768  0.0  0.122346  2.5e-05  0.974205  0.0  0.125275  2.3e-05  0.970726  0.0  0.14355  0.120055  3.5e-05  0.976855  0.0
H  H10  1  0.78059174  0.16807822  0.00847100  1  0.111762  3.4e-05  0.938617  0.0  0.125003  0.0002  0.990201  0.001  0.127682  0.000143  0.988735  0.0  0.12296  0.12292  0.000252  0.991514  0.001
H  H11  1  0.21941562  0.83192160  0.99153250  1  0.111721  3.9e-05  0.93864  0.0  0.12496  0.0002  0.990227  0.001  0.127638  0.000144  0.988761  0.0  0.122939  0.122879  0.000252  0.991533  0.001
H  H12  1  0.02686148  0.10766196  0.15093697  1  0.137315  0.000464  0.984732  0.001  0.144761  0.000385  1.04672  0.001  0.148318  0.000296  1.044691  0.0  0.123471  0.142041  0.000457  1.048452  0.001
H  H13  1  0.97314710  0.89233270  0.84906585  1  0.137362  0.000466  0.98472  0.001  0.144806  0.000385  1.046712  0.001  0.148361  0.000296  1.044687  0.0  0.123462  0.142102  0.000457  1.04843  0.001
H  H14  1  0.86725699  0.44527971  0.33199501  1  0.107166  4e-05  0.975004  0.0  0.118539  -0.000137  1.033648  -0.001  0.120959  -9.5e-05  1.032714  0.0  0.118331  0.116702  -0.000179  1.034458  -0.001
H  H15  1  0.13274473  0.55472194  0.66800336  1  0.107215  4e-05  0.974966  0.0  0.118552  -0.000137  1.033645  -0.001  0.120967  -9.5e-05  1.032724  0.0  0.118339  0.116719  -0.000179  1.034454  -0.001
H  H16  1  0.71861630  0.10229050  0.33424980  1  0.093815  -5.9e-05  0.965234  0.0  0.103823  -9.6e-05  1.028035  0.0  0.106739  -6e-05  1.027167  0.0  0.100928  0.101722  -0.000132  1.028747  0.0
H  H17  1  0.28136295  0.89770093  0.66575108  1  0.09381  -5.9e-05  0.965212  0.0  0.103815  -9.6e-05  1.02802  0.0  0.106728  -6e-05  1.027169  0.0  0.100907  0.101723  -0.000132  1.028721  0.0
H  H18  1  0.13883415  0.57397417  0.33419737  1  0.137945  -0.000437  0.99006  -0.001  0.145694  -0.000358  1.054348  0.0  0.149292  -0.000271  1.051758  0.0  0.121941  0.142971  -0.000427  1.056439  -0.001
H  H19  1  0.86116777  0.42602659  0.66580348  1  0.137876  -0.000442  0.990105  -0.001  0.145618  -0.000358  1.054406  0.0  0.14922  -0.000271  1.051814  0.0  0.121903  0.142899  -0.000427  1.056495  -0.001
H  H20  1  0.10131761  0.91918049  0.26717817  1  0.096934  0.000122  0.913278  0.0  0.11651  8.4e-05  0.969294  0.0  0.117033  5.4e-05  0.969035  0.0  0.122567  0.115947  0.000109  0.969731  0.0
H  H21  1  0.89868199  0.08081332  0.73282742  1  0.096881  0.000132  0.91341  0.0  0.116492  8.3e-05  0.969383  0.0  0.117018  5.4e-05  0.969111  0.0  0.122575  0.11592  0.000109  0.969828  0.0
H  H22  1  0.96538675  0.81177216  0.27393220  1  0.084834  -3.1e-05  0.926054  0.0  0.100083  2e-06  0.987005  0.0  0.101107  -2e-06  0.986281  0.0  0.117445  0.099272  6e-06  0.987602  0.0
H  H23  1  0.03460851  0.18822346  0.72606974  1  0.084862  -2.3e-05  0.925971  0.0  0.100088  2e-06  0.986966  0.0  0.101111  -2e-06  0.986241  0.0  0.117416  0.099276  6e-06  0.987562  0.0
H  H24  1  0.82881316  0.85966395  0.66934109  1  0.105989  1.6e-05  0.976481  0.0  0.115359  1.3e-05  1.041468  0.0  0.119052  1.1e-05  1.038935  0.0  0.100285  0.112664  1.8e-05  1.043392  0.0
H  H25  1  0.17118440  0.14033854  0.33066183  1  0.106018  1.5e-05  0.976473  0.0  0.115386  1.3e-05  1.041464  0.0  0.119079  1.1e-05  1.038923  0.0  0.100274  0.112691  1.8e-05  1.043379  0.0
H  H26  1  0.61541264  0.03975189  0.68997325  1  0.089032  -6.3e-05  0.949524  0.0  0.0985  -6.9e-05  1.012541  0.0  0.100949  -6.4e-05  1.011377  0.0  0.100223  0.096553  -6.9e-05  1.013691  0.0
H  H27  1  0.38458292  0.96024805  0.31002761  1  0.089031  -6.6e-05  0.949468  0.0  0.098505  -6.9e-05  1.012483  0.0  0.100958  -6.4e-05  1.011318  0.0  0.100223  0.096563  -7e-05  1.013627  0.0
H  H28  1  0.56250405  0.16426417  0.52056310  1  0.088482  5.6e-05  0.950428  0.0  0.099809  4.5e-05  1.00979  0.0  0.102279  4.8e-05  1.008769  0.0  0.10045  0.097928  3.8e-05  1.010744  0.0
H  H29  1  0.43748225  0.83573065  0.47943835  1  0.088493  6e-05  0.950437  0.0  0.099839  4.5e-05  1.009769  0.0  0.102311  4.8e-05  1.008745  0.0  0.100456  0.097962  3.8e-05  1.010716  0.0
H  H30  1  0.68664914  0.32393397  0.17393934  1  0.087229  0.000462  0.943138  0.001  0.102119  0.000108  1.006511  0.0  0.104059  9.5e-05  1.005917  0.0  0.093201  0.100809  0.000107  1.006907  0.0
H  H31  1  0.31334864  0.67606768  0.82606115  1  0.08715  0.000463  0.943091  0.001  0.102058  0.000108  1.006463  0.0  0.103999  9.5e-05  1.005868  0.0  0.093175  0.100744  0.000107  1.006857  0.0
H  H32  1  0.49980699  0.26210520  0.23120818  1  0.100149  0.000406  0.932222  0.001  0.115996  8.9e-05  0.992718  0.0  0.117911  8.1e-05  0.992332  0.0  0.097345  0.114663  8.6e-05  0.993015  0.0
H  H33  1  0.50019232  0.73789563  0.76878809  1  0.100128  0.000406  0.932192  0.001  0.115964  8.8e-05  0.99271  0.0  0.117884  8.1e-05  0.992315  0.0  0.097338  0.11463  8.6e-05  0.993013  0.0
H  H34  1  0.56212902  0.37029901  0.01832571  1  0.06973  -0.000206  0.943498  0.0  0.085358  -3.9e-05  1.005431  0.0  0.086799  -3e-06  1.004451  0.0  0.088899  0.084307  -7.5e-05  1.006246  0.0
H  H35  1  0.43787685  0.62970178  0.98167057  1  0.069759  -0.000201  0.943443  0.0  0.085363  -3.9e-05  1.005365  0.0  0.086785  -3e-06  1.004407  0.0  0.088898  0.084302  -7.4e-05  1.006175  0.0
H  H36  1  0.42489115  0.48283433  0.09776657  1  0.08056  0.000109  0.958613  0.0  0.095975  -8e-06  1.022337  0.0  0.097483  -1.7e-05  1.021754  0.0  0.092578  0.094854  2e-06  1.022861  0.0
H  H37  1  0.57511491  0.51716557  0.90223137  1  0.080588  0.000111  0.958622  0.0  0.095977  -8e-06  1.022328  0.0  0.097481  -1.6e-05  1.021751  0.0  0.092598  0.094851  2e-06  1.022855  0.0
H  H38  1  0.34790495  0.37368251  0.89807363  1  0.115338  0.000246  0.949187  0.0  0.133748  0.000255  1.011581  0.0  0.136181  0.00017  1.010404  0.0  0.088136  0.132015  0.000329  1.012409  0.0
H  H39  1  0.65209396  0.62632007  0.10192096  1  0.115251  0.000252  0.949231  0.0  0.133683  0.000255  1.011615  0.0  0.136114  0.00017  1.010439  0.0  0.088116  0.13195  0.000329  1.012439  0.0
H  H40  1  0.19902685  0.48525717  0.97491677  1  0.09906  -4.7e-05  0.946754  0.0  0.123319  -6e-05  1.003221  0.0  0.124133  -5.2e-05  1.004307  0.0  0.086471  0.122658  -5.8e-05  1.002546  0.0
H  H41  1  0.80097226  0.51474455  0.02507784  1  0.098965  -4.3e-05  0.946801  0.0  0.123276  -6e-05  1.003215  0.0  0.124095  -5.2e-05  1.004296  0.0  0.086426  0.122614  -5.8e-05  1.002547  0.0
H  H42  1  0.12472013  0.35525638  0.95467936  1  0.088398  -5.8e-05  0.948403  0.0  0.106794  -5.7e-05  1.013191  0.0  0.107889  -3.9e-05  1.013328  0.0  0.079249  0.106007  -7.2e-05  1.013094  0.0
H  H43  1  0.87527877  0.64474616  0.04531849  1  0.088473  -5.1e-05  0.948446  0.0  0.106828  -5.7e-05  1.013266  0.0  0.107922  -3.9e-05  1.013404  0.0  0.079264  0.106042  -7.2e-05  1.013171  0.0
H  H44  1  0.02578522  0.33282877  0.16849914  1  0.091476  -4.4e-05  0.95348  0.0  0.11244  -5e-06  1.016729  0.0  0.113873  -4e-06  1.016164  0.0  0.082893  0.111417  -5e-06  1.017127  0.0
H  H45  1  0.97421720  0.66717547  0.83149901  1  0.091407  -4e-05  0.953572  0.0  0.112391  -5e-06  1.016798  0.0  0.113822  -4e-06  1.016235  0.0  0.082875  0.111369  -5e-06  1.017193  0.0
H  H46  1  0.10465703  0.46461956  0.17845268  1  0.096636  0.000582  0.960097  0.001  0.119696  0.000357  1.019273  0.0  0.12033  0.000204  1.020397  0.0  0.086862  0.119232  0.000497  1.01852  0.001
H  H47  1  0.89534540  0.53538469  0.82154464  1  0.096671  0.000584  0.960193  0.001  0.11972  0.000356  1.019385  0.0  0.120353  0.000204  1.020509  0.0  0.086861  0.119237  0.000497  1.01866  0.001
H  H48  1  0.17903311  0.33886747  0.25663631  1  0.095168  -6.6e-05  0.960925  0.0  0.114247  -2.1e-05  1.028909  0.0  0.115019  -1.5e-05  1.029631  0.0  0.08343  0.113647  -2.3e-05  1.028466  0.0
H  H49  1  0.82097325  0.66113676  0.74335972  1  0.095143  -6.2e-05  0.960907  0.0  0.114236  -2e-05  1.028854  0.0  0.115004  -1.5e-05  1.029581  0.0  0.083405  0.11364  -2.3e-05  1.028409  0.0
C  C50  1  0.34602517  0.20809472  0.07054948  1  0.614379  -0.004859  3.818306  -0.009  0.574828  -0.000945  4.117423  -0.004  0.609113  -0.001472  4.115291  -0.004  0.199012  0.55177  -0.000373  4.117875  -0.004
C  C51  1  0.65398007  0.79190862  0.92945000  1  0.614408  -0.004863  3.818111  -0.009  0.574799  -0.000945  4.117397  -0.004  0.609087  -0.001473  4.115271  -0.004  0.198996  0.551743  -0.000374  4.117856  -0.004
C  C52  1  0.75821121  0.65860591  0.49324043  1  0.152876  0.004354  3.662566  0.004  0.096848  0.000698  3.925615  0.001  0.112276  0.00145  3.940003  0.002  0.135912  0.087153  0.00013  3.915804  0.0
C  C53  1  0.24179000  0.34139226  0.50676146  1  0.152835  0.004353  3.662655  0.004  0.096786  0.000697  3.925696  0.001  0.112206  0.00145  3.940079  0.002  0.135902  0.087085  0.00013  3.915886  0.0
C  C54  1  0.50315704  0.42786306  0.29200008  1  0.663581  0.004206  3.855653  0.008  0.628459  0.000492  4.160198  0.004  0.663177  0.001016  4.15728  0.003  0.192396  0.605107  -6.8e-05  4.161151  0.003
C  C55  1  0.49683571  0.57213782  0.70799617  1  0.66349  0.004206  3.855548  0.008  0.628352  0.000491  4.160105  0.004  0.663069  0.001017  4.157191  0.003  0.192376  0.604999  -6.8e-05  4.161066  0.003
C  C56  1  0.86390448  0.94457739  0.39423945  1  0.024776  -0.000339  3.713438  0.0  0.037766  -0.000165  3.956781  0.0  0.036439  -0.000137  3.982147  0.0  -0.011361  0.038687  -0.000198  3.939527  0.0
C  C57  1  0.13608927  0.05541908  0.60576345  1  0.024746  -0.000327  3.713295  0.0  0.037591  -0.000166  3.956755  0.0  0.036265  -0.000138  3.982121  0.0  -0.011422  0.038511  -0.000198  3.939513  0.0
C  C58  1  0.01838880  0.76167400  0.47981001  1  -0.037894  -0.000878  3.64777  -0.001  -0.108356  -0.000641  3.900277  -0.001  -0.10337  -0.000486  3.910542  -0.001  -0.044014  -0.11159  -0.000783  3.893424  -0.001
C  C59  1  0.98161180  0.23832676  0.52019181  1  -0.037941  -0.000889  3.647992  -0.001  -0.108419  -0.00064  3.900349  -0.001  -0.103434  -0.000487  3.910621  -0.001  -0.043993  -0.111645  -0.000783  3.893469  -0.001
C  C60  1  0.89602028  0.87630342  0.48951890  1  0.008595  0.000223  3.754378  0.0  0.025823  9.5e-05  3.991237  0.0  0.023189  9.7e-05  4.017757  0.0  -0.016161  0.027589  9.3e-05  3.973225  0.0
C  C61  1  0.10397549  0.12369565  0.51048279  1  0.008594  0.000232  3.75437  0.0  0.026002  9.6e-05  3.991023  0.0  0.023365  9.7e-05  4.017545  0.0  -0.016107  0.027767  9.3e-05  3.97302  0.0
C  C62  1  0.74980323  0.93044583  0.15030686  1  0.152319  -0.005572  3.651904  -0.005  0.094425  -0.001284  3.919453  -0.001  0.109818  -0.002027  3.932749  -0.002  0.142713  0.084673  -0.000722  3.910448  -0.001
C  C63  1  0.25019909  0.06955322  0.84969240  1  0.152343  -0.005569  3.651873  -0.005  0.094454  -0.001284  3.919419  -0.001  0.109832  -0.002026  3.932712  -0.002  0.142706  0.084703  -0.000722  3.910417  -0.001
C  C64  1  0.79969150  0.09431153  0.06537404  1  0.007402  -0.000391  3.732218  -0.001  -0.024818  0.00076  4.004093  0.001  -0.021533  0.000109  4.024641  0.0  -8.7e-05  -0.026839  0.001233  3.990549  0.001
C  C65  1  0.20031757  0.90568658  0.93462771  1  0.007514  -0.000413  3.732038  -0.001  -0.024691  0.00076  4.003897  0.001  -0.021408  0.000109  4.024448  0.0  -5.5e-05  -0.026713  0.001233  3.990355  0.001
C  C66  1  0.91837033  0.06703135  0.13634447  1  -0.066014  0.003937  3.64129  0.004  -0.103895  0.00216  3.896616  0.002  -0.102694  0.001959  3.914025  0.002  0.003434  -0.104596  0.002309  3.885043  0.002
C  C67  1  0.08163694  0.93296333  0.86365688  1  -0.066121  0.00394  3.64105  0.004  -0.104007  0.002161  3.896387  0.002  -0.102808  0.001959  3.913801  0.002  0.003424  -0.104726  0.002309  3.884812  0.002
C  C68  1  0.86793333  0.52044200  0.37766577  1  0.000691  0.000535  3.742103  0.001  -0.030106  -0.000604  4.007671  0.0  -0.027  3.4e-05  4.029665  0.0  -0.005281  -0.031937  -0.001071  3.993051  -0.001
C  C69  1  0.13206859  0.47955876  0.62233508  1  0.000663  0.000518  3.742069  0.001  -0.030104  -0.000603  4.007631  0.0  -0.026998  3.4e-05  4.029621  0.0  -0.00528  -0.031941  -0.001071  3.993024  -0.001
C  C70  1  0.74427045  0.04810742  0.40710405  1  -0.114256  7.9e-05  3.747396  0.0  -0.135392  -1.7e-05  3.997593  0.0  -0.138589  7e-06  4.019741  0.0  -0.092885  -0.133157  -3.4e-05  3.982512  0.0
C  C71  1  0.25571828  0.95188828  0.59289461  1  -0.114208  8.2e-05  3.747405  0.0  -0.135305  -1.8e-05  3.997625  0.0  -0.138508  8e-06  4.019777  0.0  -0.092818  -0.133077  -3.4e-05  3.982569  0.0
C  C72  1  0.00051866  0.58456874  0.37625066  1  -0.076626  -0.003857  3.657738  -0.004  -0.117588  -0.002108  3.914007  -0.002  -0.116678  -0.001881  3.932437  -0.002  -0.002185  -0.118105  -0.002272  3.901645  -0.002
C  C73  1  0.99948365  0.41543027  0.62375187  1  -0.076547  -0.003824  3.657738  -0.004  -0.117495  -0.002109  3.913979  -0.002  -0.116589  -0.001881  3.932412  -0.002  -0.002135  -0.118016  -0.002272  3.90162  -0.002
C  C74  1  0.96262899  0.90477344  0.28042673  1  -0.034595  0.000901  3.656617  0.001  -0.103485  0.000676  3.90978  0.001  -0.098559  0.000521  3.919652  0.001  -0.039516  -0.106621  0.000808  3.903044  0.001
C  C75  1  0.03736759  0.09522216  0.71957588  1  -0.034534  0.000861  3.656529  0.001  -0.103431  0.000676  3.909776  0.001  -0.098498  0.000521  3.91965  0.001  -0.039499  -0.106549  0.000808  3.903011  0.001
C  C76  1  0.29526110  0.33979897  0.07893811  1  0.071167  0.009777  3.604116  0.01  0.108057  0.005927  3.825704  0.007  0.102795  0.004082  3.844893  0.005  -0.020251  0.111744  0.007382  3.812163  0.008
C  C77  1  0.70474284  0.66020441  0.92105908  1  0.071264  0.009803  3.603818  0.01  0.108042  0.005926  3.825595  0.007  0.102778  0.004082  3.844779  0.005  -0.020242  0.111743  0.007381  3.811994  0.008
C  C78  1  0.80642908  0.91227010  0.59486092  1  -0.118279  -0.000162  3.747386  0.0  -0.13996  -6.1e-05  3.997263  0.0  -0.142341  -6.3e-05  4.018834  0.0  -0.093235  -0.138206  -6.4e-05  3.98257  0.0
C  C79  1  0.19356648  0.08772982  0.40514157  1  -0.118386  -0.000169  3.747519  0.0  -0.140117  -6.2e-05  3.997352  0.0  -0.142494  -6.4e-05  4.018919  0.0  -0.093286  -0.138361  -6.4e-05  3.982653  0.0
C  C80  1  0.68571655  0.01505299  0.60684086  1  -0.071662  0.000125  3.781208  0.0  -0.087829  3.1e-05  4.036821  0.0  -0.090246  2.9e-05  4.05932  0.0  -0.093891  -0.086107  3.9e-05  4.021499  0.0
C  C81  1  0.31427396  0.98494609  0.39316229  1  -0.071578  0.000144  3.781222  0.0  -0.087756  3.1e-05  4.036834  0.0  -0.090174  3e-05  4.059329  0.0  -0.093844  -0.086034  3.9e-05  4.021509  0.0
C  C82  1  0.65557816  0.08338547  0.51271550  1  -0.057797  -0.000147  3.778061  0.0  -0.070444  -6.7e-05  4.028566  0.0  -0.071728  -4.7e-05  4.050647  0.0  -0.088334  -0.069451  -0.0001  4.013493  0.0
C  C83  1  0.34440944  0.91660935  0.48728579  1  -0.057888  -0.00017  3.778231  0.0  -0.070543  -6.6e-05  4.028749  0.0  -0.071826  -4.9e-05  4.05083  0.0  -0.088372  -0.069551  -0.0001  4.013682  0.0
C  C84  1  0.54118946  0.34438033  0.19665397  1  -0.250838  -0.010081  3.669543  -0.01  -0.290658  -0.006211  3.920325  -0.006  -0.29675  -0.004253  3.929639  -0.005  -0.16937  -0.286298  -0.007713  3.91353  -0.008
C  C85  1  0.45881459  0.65561698  0.80334518  1  -0.2507  -0.010081  3.669428  -0.01  -0.29055  -0.00621  3.92019  -0.006  -0.296643  -0.004254  3.929503  -0.005  -0.169338  -0.286192  -0.007713  3.913386  -0.008
C  C86  1  0.46131481  0.38862111  0.09392952  1  -0.131896  -0.00232  3.630955  -0.003  -0.172822  -0.001474  3.870599  -0.002  -0.174281  -0.001  3.885961  -0.001  -0.164486  -0.171669  -0.001859  3.859996  -0.002
C  C87  1  0.53868823  0.61138057  0.90606624  1  -0.13203  -0.002342  3.630957  -0.003  -0.172835  -0.001473  3.870515  -0.002  -0.174279  -0.001  3.885874  -0.001  -0.16448  -0.171657  -0.001859  3.859877  -0.002
C  C88  1  0.23917544  0.39123167  0.96975103  1  -0.320306  -0.000324  3.673349  -0.001  -0.400398  0.000119  3.912578  0.0  -0.402424  7.4e-05  3.92319  0.0  -0.243158  -0.398706  0.000155  3.905085  0.0
C  C89  1  0.76082629  0.60877002  0.03024489  1  -0.320236  -0.000353  3.673439  -0.001  -0.40033  0.00012  3.91266  0.0  -0.402354  7.4e-05  3.923273  0.0  -0.243116  -0.398639  0.000155  3.905166  0.0
C  C90  1  0.14240390  0.37039802  0.17653888  1  -0.318006  0.001246  3.702537  0.001  -0.401286  0.000932  3.942379  0.001  -0.403057  0.000603  3.953857  0.001  -0.247161  -0.399818  0.001201  3.934317  0.001
C  C91  1  0.85760004  0.62960534  0.82345913  1  -0.317945  0.001226  3.702633  0.001  -0.401218  0.000932  3.94248  0.001  -0.402987  0.000603  3.953962  0.001  -0.247103  -0.399743  0.001201  3.934435  0.001
N  N92  1  0.71860050  0.56697945  0.45121785  1  -0.35443  -0.065377  3.368291  -0.08  -0.308982  -0.047505  3.682889  -0.061  -0.340427  -0.040534  3.701063  -0.055  -0.382224  -0.289906  -0.051038  3.672553  -0.064
N  N93  1  0.28140203  0.43301872  0.54878306  1  -0.354483  -0.06538  3.368324  -0.08  -0.30902  -0.047508  3.682903  -0.061  -0.340464  -0.040536  3.701075  -0.055  -0.382241  -0.289939  -0.05104  3.672568  -0.064
N  N94  1  0.69629336  0.00849038  0.07502155  1  -0.346027  0.065653  3.392982  0.081  -0.302841  0.047671  3.713006  0.062  -0.333071  0.040789  3.731846  0.055  -0.381965  -0.284473  0.051247  3.702176  0.064
N  N95  1  0.30371290  0.99150866  0.92497723  1  -0.346094  0.065666  3.392957  0.081  -0.302912  0.047672  3.712994  0.062  -0.333143  0.040789  3.731839  0.055  -0.381967  -0.284541  0.051246  3.702165  0.064
N  N96  1  0.88466322  0.96311859  0.18913229  1  -0.063  0.001017  3.608229  0.001  0.03125  0.001005  3.826053  0.001  0.016919  0.000701  3.851331  0.001  -0.246441  0.040709  0.001226  3.808674  0.001
N  N97  1  0.11534254  0.03687699  0.81086756  1  -0.062964  0.001023  3.608082  0.001  0.0313  0.001004  3.825878  0.001  0.016968  0.000701  3.851158  0.001  -0.246417  0.040756  0.001226  3.808509  0.001
N  N98  1  0.92782859  0.67178866  0.44958630  1  -0.06968  -0.001082  3.585296  -0.001  0.026801  -0.00103  3.799496  -0.001  0.011789  -0.000734  3.825789  -0.001  -0.244184  0.036714  -0.001241  3.781466  -0.002
N  N99  1  0.07217413  0.32820860  0.55041791  1  -0.069589  -0.001089  3.585287  -0.001  0.026868  -0.00103  3.799489  -0.001  0.011854  -0.000735  3.825791  -0.001  -0.24418  0.036784  -0.001241  3.781451  -0.002
O  O100  1  0.45827374  0.17290169  0.98206657  1  -0.597915  0.108722  2.009426  0.141  -0.573127  0.072195  2.281703  0.102  -0.616546  0.056869  2.274831  0.085  -0.335165  -0.544346  0.081595  2.286559  0.111
O  O101  1  0.54172536  0.82709997  0.01793294  1  -0.597973  0.108735  2.009245  0.141  -0.573171  0.072199  2.281578  0.102  -0.616589  0.056873  2.274699  0.085  -0.335197  -0.54439  0.0816  2.286435  0.111
O  O102  1  0.57501408  0.38669643  0.37712446  1  -0.621448  -0.11079  1.989338  -0.143  -0.598987  -0.073193  2.269786  -0.103  -0.643442  -0.057217  2.262253  -0.085  -0.346496  -0.569416  -0.08304  2.27494  -0.112
O  O103  1  0.42497785  0.61330787  0.62287415  1  -0.621388  -0.110781  1.989253  -0.143  -0.59892  -0.073189  2.269704  -0.103  -0.643372  -0.057213  2.262173  -0.085  -0.34648  -0.569354  -0.083032  2.274862  -0.112
O  O104  1  0.28306737  0.14059304  0.14624268  1  -0.629771  0.000847  1.958167  0.003  -0.596435  0.000228  2.203082  0.002  -0.622828  -0.000738  2.194261  0.0  -0.328084  -0.578123  0.001159  2.208824  0.003
O  O105  1  0.71694551  0.85941101  0.85376398  1  -0.629733  0.000839  1.958274  0.003  -0.596369  0.000229  2.203218  0.002  -0.622741  -0.000739  2.194348  0.0  -0.328043  -0.57807  0.001158  2.208985  0.003
O  O106  1  0.41246819  0.52596318  0.28705247  1  -0.62032  -0.000562  1.906903  -0.002  -0.587654  -0.000107  2.130654  -0.001  -0.612374  0.000759  2.120878  0.0  -0.33373  -0.570622  -0.000932  2.137065  -0.002
O  O107  1  0.58752327  0.47403776  0.71293985  1  -0.620306  -0.00056  1.906958  -0.002  -0.58762  -0.000107  2.130692  -0.001  -0.612338  0.000759  2.120911  0.0  -0.333734  -0.570586  -0.000933  2.137109  -0.002
