# generated using pymatgen
data_NdH7C11N3O7
_symmetry_space_group_name_H-M   'P 1'
_cell_length_a   8.15019091
_cell_length_b   11.67803362
_cell_length_c   15.42197034
_cell_angle_alpha   90.00024474
_cell_angle_beta   89.99994995
_cell_angle_gamma   91.52794119
_symmetry_Int_Tables_number   1
_chemical_formula_structural   NdH7C11N3O7
_chemical_formula_sum   'Nd4 H28 C44 N12 O28'
_cell_volume   1467.31352746
_cell_formula_units_Z   4
loop_
 _symmetry_equiv_pos_site_id
 _symmetry_equiv_pos_as_xyz
  1  'x, y, z'
loop_
 _atom_site_type_symbol
 _atom_site_label
 _atom_site_symmetry_multiplicity
 _atom_site_fract_x
 _atom_site_fract_y
 _atom_site_fract_z
 _atom_site_occupancy
 _atom_site_hle17_bader_spin_density
 _atom_site_hle17_ddec_charge
 _atom_site_hle17_ddec_spin_density
 _atom_site_hle17_ddec_sum_bond_order
 _atom_site_hle17_magmom
 _atom_site_hse06_10hf_bader_spin_density
 _atom_site_hse06_10hf_ddec_charge
 _atom_site_hse06_10hf_ddec_spin_density
 _atom_site_hse06_10hf_ddec_sum_bond_order
 _atom_site_hse06_10hf_magmom
 _atom_site_hse06_bader_spin_density
 _atom_site_hse06_ddec_charge
 _atom_site_hse06_ddec_spin_density
 _atom_site_hse06_ddec_sum_bond_order
 _atom_site_hse06_magmom
 _atom_site_pbe_bader_spin_density
 _atom_site_pbe_cm5_charge
 _atom_site_pbe_ddec_charge
 _atom_site_pbe_ddec_spin_density
 _atom_site_pbe_ddec_sum_bond_order
 _atom_site_pbe_magmom
Nd  Nd0  1  0.71374032  0.57558655  0.87045698  1  0  2.283945  0  1.6764  0  0  2.123483  0  2.152866  0  0  2.217919  0  2.007269  0  0  1.490415  2.090644  0  2.189362  0
Nd  Nd1  1  0.28624156  0.92442039  0.37046512  1  0  2.283972  0  1.676303  0  0  2.123507  0  2.152747  0  0  2.217944  0  2.00715  0  0  1.490407  2.090668  0  2.189241  0
Nd  Nd2  1  0.28625181  0.42441886  0.12953725  1  0  2.283897  0  1.676366  0  0  2.123392  0  2.152881  0  0  2.217863  0  2.007231  0  0  1.490382  2.090554  0  2.189372  0
Nd  Nd3  1  0.71373582  0.07558411  0.62954143  1  0  2.283982  0  1.676315  0  0  2.123555  0  2.152715  0  0  2.21795  0  2.007179  0  0  1.490419  2.090716  0  2.189208  0
H  H4  1  0.02826952  0.66256189  0.77208594  1  0  0.395284  0  0.927697  0  0  0.349394  0  1.015189  0  0  0.361359  0  0.998585  0  0  0.283246  0.341145  0  1.026652  0
H  H5  1  0.97173679  0.83743602  0.27207596  1  0  0.395292  0  0.927676  0  0  0.349422  0  1.015138  0  0  0.361383  0  0.998542  0  0  0.283246  0.341177  0  1.026597  0
H  H6  1  0.97173601  0.33744015  0.22791867  1  0  0.39532  0  0.927647  0  0  0.349414  0  1.015162  0  0  0.361375  0  0.998564  0  0  0.283248  0.341168  0  1.02662  0
H  H7  1  0.02826240  0.16255914  0.72791892  1  0  0.395346  0  0.927606  0  0  0.349454  0  1.015101  0  0  0.361414  0  0.998504  0  0  0.283263  0.341209  0  1.026559  0
H  H8  1  0.96390623  0.53950821  0.72935363  1  0  0.431701  0  0.835681  0  0  0.409203  0  0.89257  0  0  0.41825  0  0.879469  0  0  0.314795  0.402762  0  0.902051  0
H  H9  1  0.03609157  0.96049029  0.22934838  1  0  0.431641  0  0.835765  0  0  0.409132  0  0.892675  0  0  0.418179  0  0.879576  0  0  0.31476  0.402691  0  0.902156  0
H  H10  1  0.03609316  0.46049380  0.27064838  1  0  0.431627  0  0.835819  0  0  0.409135  0  0.892672  0  0  0.418179  0  0.879578  0  0  0.314779  0.402694  0  0.902153  0
H  H11  1  0.96390636  0.03950402  0.77064521  1  0  0.431655  0  0.835723  0  0  0.409184  0  0.892587  0  0  0.418223  0  0.879499  0  0  0.314832  0.402744  0  0.902067  0
H  H12  1  0.33762071  0.64236130  0.55738759  1  0  0.33163  0  0.830166  0  0  0.321893  0  0.873727  0  0  0.32992  0  0.867419  0  0  0.349728  0.316198  0  0.878179  0
H  H13  1  0.66237371  0.85763793  0.05738884  1  0  0.3316  0  0.830247  0  0  0.32191  0  0.873733  0  0  0.329936  0  0.867424  0  0  0.349741  0.316214  0  0.878186  0
H  H14  1  0.66237368  0.35763727  0.44261118  1  0  0.331584  0  0.830316  0  0  0.321946  0  0.873745  0  0  0.329973  0  0.867434  0  0  0.349751  0.31625  0  0.8782  0
H  H15  1  0.33762320  0.14236322  0.94261122  1  0  0.331592  0  0.830271  0  0  0.321915  0  0.873743  0  0  0.329942  0  0.867434  0  0  0.349736  0.31622  0  0.878195  0
H  H16  1  0.39809715  0.40597024  0.56451014  1  0  0.111202  0  0.937332  0  0  0.12142  0  0.994624  0  0  0.125051  0  0.993264  0  0  0.111613  0.118822  0  0.995729  0
H  H17  1  0.60190279  0.09403070  0.06450928  1  0  0.111193  0  0.937321  0  0  0.121418  0  0.994604  0  0  0.12505  0  0.993243  0  0  0.111614  0.11882  0  0.995707  0
H  H18  1  0.60190339  0.59402921  0.43548862  1  0  0.111185  0  0.937285  0  0  0.121413  0  0.994568  0  0  0.125044  0  0.99321  0  0  0.111622  0.118814  0  0.995672  0
H  H19  1  0.39810770  0.90597307  0.93549208  1  0  0.111277  0  0.937413  0  0  0.121484  0  0.994691  0  0  0.125115  0  0.993331  0  0  0.111667  0.118886  0  0.995794  0
H  H20  1  0.23284674  0.22636754  0.58700961  1  0  0.097401  0  0.928196  0  0  0.104696  0  0.991251  0  0  0.107786  0  0.98813  0  0  0.12576  0.102441  0  0.993404  0
H  H21  1  0.76715320  0.27363438  0.08700795  1  0  0.097383  0  0.928176  0  0  0.104672  0  0.991241  0  0  0.107762  0  0.988121  0  0  0.125745  0.102417  0  0.993394  0
H  H22  1  0.76715629  0.77363278  0.41298916  1  0  0.097432  0  0.928194  0  0  0.104719  0  0.991245  0  0  0.10781  0  0.988124  0  0  0.125751  0.102464  0  0.993398  0
H  H23  1  0.23285601  0.72636767  0.91299600  1  0  0.097298  0  0.928259  0  0  0.104602  0  0.991328  0  0  0.10769  0  0.988208  0  0  0.125754  0.102347  0  0.993481  0
H  H24  1  0.08898398  0.32797609  0.83262823  1  0  0.091962  0  0.915028  0  0  0.103491  0  0.970301  0  0  0.106124  0  0.968474  0  0  0.12612  0.101555  0  0.971674  0
H  H25  1  0.91102532  0.17202383  0.33262423  1  0  0.091913  0  0.91513  0  0  0.103523  0  0.970319  0  0  0.106157  0  0.968491  0  0  0.126145  0.101586  0  0.971693  0
H  H26  1  0.91101518  0.67201822  0.16737248  1  0  0.091953  0  0.915081  0  0  0.103516  0  0.970309  0  0  0.106149  0  0.968482  0  0  0.126141  0.10158  0  0.971682  0
H  H27  1  0.08898136  0.82797565  0.66737843  1  0  0.091905  0  0.915182  0  0  0.103558  0  0.97031  0  0  0.106193  0  0.96848  0  0  0.126153  0.10162  0  0.971685  0
H  H28  1  0.24929747  0.51335402  0.82053860  1  0  0.125411  0  0.935275  0  0  0.135274  0  0.992662  0  0  0.13853  0  0.991401  0  0  0.123221  0.133055  0  0.993341  0
H  H29  1  0.75070524  0.98664929  0.32053634  1  0  0.125486  0  0.935218  0  0  0.135322  0  0.992635  0  0  0.138578  0  0.991373  0  0  0.123227  0.133104  0  0.993315  0
H  H30  1  0.75069809  0.48664284  0.17946017  1  0  0.125364  0  0.935311  0  0  0.135276  0  0.992635  0  0  0.138532  0  0.991373  0  0  0.123241  0.133057  0  0.993314  0
H  H31  1  0.24930392  0.01335105  0.67946502  1  0  0.125448  0  0.935255  0  0  0.135319  0  0.992617  0  0  0.138576  0  0.991356  0  0  0.123243  0.133101  0  0.993297  0
C  C32  1  0.67482879  0.82061369  0.76058751  1  0  0.69619  0  3.917935  0  0  0.647298  0  4.218742  0  0  0.682514  0  4.209967  0  0  0.227071  0.623552  0  4.225604  0
C  C33  1  0.32517262  0.67938414  0.26059289  1  0  0.696082  0  3.918465  0  0  0.64725  0  4.219163  0  0  0.682469  0  4.210387  0  0  0.227071  0.623503  0  4.226025  0
C  C34  1  0.32517047  0.17938404  0.23940801  1  0  0.69601  0  3.918466  0  0  0.647192  0  4.219153  0  0  0.682411  0  4.21038  0  0  0.22709  0.623445  0  4.226014  0
C  C35  1  0.67482800  0.32061788  0.73941042  1  0  0.696065  0  3.918318  0  0  0.647301  0  4.218902  0  0  0.68252  0  4.210124  0  0  0.227121  0.623555  0  4.225766  0
C  C36  1  0.56186699  0.74481638  0.70816026  1  0  0.019472  0  3.717208  0  0  0.014909  0  3.973897  0  0  0.012508  0  3.996565  0  0  0.097632  0.01613  0  3.960553  0
C  C37  1  0.43813336  0.75518372  0.20816583  1  0  0.019549  0  3.717251  0  0  0.01496  0  3.973923  0  0  0.012559  0  3.99659  0  0  0.097612  0.016181  0  3.960576  0
C  C38  1  0.43813479  0.25518307  0.29183462  1  0  0.019522  0  3.717154  0  0  0.014937  0  3.973851  0  0  0.012536  0  3.996519  0  0  0.097566  0.016157  0  3.960507  0
C  C39  1  0.56186363  0.24482000  0.79183618  1  0  0.019566  0  3.71723  0  0  0.014937  0  3.973897  0  0  0.012538  0  3.996562  0  0  0.097599  0.016152  0  3.960558  0
C  C40  1  0.49094346  0.75707876  0.62654492  1  0  0.029292  0  3.637866  0  0  0.018682  0  3.892201  0  0  0.017836  0  3.908777  0  0  0.102287  0.019461  0  3.880351  0
C  C41  1  0.50906058  0.74291747  0.12655041  1  0  0.029307  0  3.637888  0  0  0.018686  0  3.892203  0  0  0.017841  0  3.908788  0  0  0.10231  0.019468  0  3.880349  0
C  C42  1  0.50906072  0.24291899  0.37345061  1  0  0.029331  0  3.637805  0  0  0.018655  0  3.892247  0  0  0.017808  0  3.908824  0  0  0.102329  0.019437  0  3.880396  0
C  C43  1  0.49093882  0.25708454  0.87345095  1  0  0.029255  0  3.637964  0  0  0.01865  0  3.892239  0  0  0.017804  0  3.908828  0  0  0.102287  0.019433  0  3.880387  0
C  C44  1  0.46459680  0.85143413  0.56399341  1  0  0.700501  0  3.933846  0  0  0.650497  0  4.235  0  0  0.685872  0  4.226522  0  0  0.2373  0.62635  0  4.243051  0
C  C45  1  0.53540359  0.64856002  0.06399729  1  0  0.700502  0  3.933937  0  0  0.650547  0  4.23503  0  0  0.685908  0  4.226587  0  0  0.237321  0.626399  0  4.243076  0
C  C46  1  0.53540252  0.14856531  0.43600471  1  0  0.700506  0  3.933897  0  0  0.650539  0  4.235054  0  0  0.685913  0  4.226579  0  0  0.237322  0.626391  0  4.243103  0
C  C47  1  0.46459693  0.35143857  0.93600537  1  0  0.700434  0  3.934092  0  0  0.650528  0  4.235084  0  0  0.685885  0  4.226649  0  0  0.237304  0.626379  0  4.24313  0
C  C48  1  0.42384239  0.58552105  0.68162063  1  0  0.365419  0  3.72514  0  0  0.331498  0  4.002081  0  0  0.346308  0  4.015064  0  0  0.237722  0.321804  0  3.99393  0
C  C49  1  0.57615559  0.91448061  0.18162146  1  0  0.365603  0  3.724893  0  0  0.331588  0  4.001928  0  0  0.346397  0  4.014911  0  0  0.237713  0.321893  0  3.993779  0
C  C50  1  0.57615816  0.41447840  0.31837814  1  0  0.365541  0  3.724917  0  0  0.331529  0  4.00198  0  0  0.346338  0  4.014966  0  0  0.237728  0.321834  0  3.993826  0
C  C51  1  0.42384746  0.08552057  0.81837990  1  0  0.365684  0  3.724629  0  0  0.331616  0  4.001786  0  0  0.346427  0  4.014769  0  0  0.237744  0.321922  0  3.993634  0
C  C52  1  0.33562453  0.47539572  0.69102783  1  0  0.034672  0  3.785611  0  0  0.048264  0  4.024488  0  0  0.049612  0  4.045557  0  0  0.016852  0.047203  0  4.010175  0
C  C53  1  0.66437648  0.02460680  0.19102930  1  0  0.034577  0  3.785634  0  0  0.048233  0  4.024462  0  0  0.049582  0  4.04553  0  0  0.016815  0.047171  0  4.010149  0
C  C54  1  0.66438094  0.52460461  0.30897094  1  0  0.03455  0  3.785415  0  0  0.048192  0  4.024295  0  0  0.04954  0  4.045364  0  0  0.01681  0.047132  0  4.009979  0
C  C55  1  0.33563140  0.97539183  0.80897466  1  0  0.034602  0  3.785198  0  0  0.048201  0  4.024147  0  0  0.049547  0  4.045217  0  0  0.016829  0.047139  0  4.009832  0
C  C56  1  0.33011762  0.39322637  0.62470673  1  0  -0.140462  0  3.696072  0  0  -0.161108  0  3.945643  0  0  -0.167099  0  3.965338  0  0  -0.074893  -0.157386  0  3.932542  0
C  C57  1  0.66988103  0.10677576  0.12470717  1  0  -0.140477  0  3.695988  0  0  -0.161138  0  3.945549  0  0  -0.167129  0  3.965244  0  0  -0.07492  -0.157414  0  3.932445  0
C  C58  1  0.66988535  0.60677223  0.37529204  1  0  -0.140433  0  3.695963  0  0  -0.161094  0  3.945523  0  0  -0.167086  0  3.965221  0  0  -0.074916  -0.157375  0  3.932428  0
C  C59  1  0.33012815  0.89322544  0.87529614  1  0  -0.140631  0  3.69588  0  0  -0.161236  0  3.945472  0  0  -0.167225  0  3.965161  0  0  -0.074944  -0.15752  0  3.932385  0
C  C60  1  0.24010767  0.29157110  0.63762387  1  0  0.1462  0  3.67275  0  0  0.112665  0  3.933424  0  0  0.119613  0  3.948526  0  0  0.063429  0.108124  0  3.923093  0
C  C61  1  0.75989222  0.20843197  0.13762136  1  0  0.146344  0  3.672458  0  0  0.112799  0  3.933129  0  0  0.119754  0  3.948221  0  0  0.063535  0.108258  0  3.922797  0
C  C62  1  0.75989418  0.70843093  0.36237620  1  0  0.146195  0  3.672644  0  0  0.112705  0  3.933318  0  0  0.119653  0  3.948412  0  0  0.063468  0.108163  0  3.922988  0
C  C63  1  0.24011811  0.79156666  0.86238066  1  0  0.14646  0  3.672661  0  0  0.11285  0  3.933369  0  0  0.119815  0  3.948464  0  0  0.063468  0.108297  0  3.92304  0
C  C64  1  0.16099594  0.34836220  0.77465576  1  0  0.121741  0  3.699227  0  0  0.090478  0  3.956613  0  0  0.096022  0  3.973348  0  0  0.054219  0.086808  0  3.945088  0
C  C65  1  0.83900979  0.15163824  0.27465367  1  0  0.121811  0  3.699253  0  0  0.090464  0  3.95666  0  0  0.096009  0  3.973395  0  0  0.054206  0.086793  0  3.945137  0
C  C66  1  0.83900455  0.65163554  0.22534171  1  0  0.121733  0  3.699218  0  0  0.090483  0  3.956627  0  0  0.09602  0  3.973362  0  0  0.054222  0.086813  0  3.945103  0
C  C67  1  0.16099807  0.84835953  0.72534899  1  0  0.121758  0  3.699173  0  0  0.090351  0  3.956579  0  0  0.095902  0  3.973321  0  0  0.05416  0.086676  0  3.945047  0
C  C68  1  0.24857938  0.45177341  0.76769635  1  0  -0.139162  0  3.717451  0  0  -0.160129  0  3.971583  0  0  -0.165457  0  3.991336  0  0  -0.070444  -0.15641  0  3.957972  0
C  C69  1  0.75142278  0.04823039  0.26769592  1  0  -0.139211  0  3.717565  0  0  -0.160176  0  3.971701  0  0  -0.165504  0  3.991453  0  0  -0.070414  -0.156457  0  3.958092  0
C  C70  1  0.75142249  0.54822947  0.23230112  1  0  -0.139091  0  3.717407  0  0  -0.160109  0  3.971523  0  0  -0.165436  0  3.991276  0  0  -0.070443  -0.15639  0  3.957913  0
C  C71  1  0.24858392  0.95176994  0.73230545  1  0  -0.139183  0  3.717335  0  0  -0.160148  0  3.971495  0  0  -0.165474  0  3.991243  0  0  -0.070457  -0.156428  0  3.957884  0
C  C72  1  0.03181354  0.56361640  0.00253884  1  0  0.540134  0  3.976524  0  0  0.500929  0  4.275742  0  0  0.529547  0  4.272876  0  0  0.20519  0.481246  0  4.280871  0
C  C73  1  0.96817482  0.93638250  0.50255056  1  0  0.540309  0  3.976185  0  0  0.501073  0  4.275473  0  0  0.52969  0  4.272606  0  0  0.20532  0.481389  0  4.280602  0
C  C74  1  0.96818324  0.43638046  0.99745085  1  0  0.540158  0  3.976466  0  0  0.500895  0  4.275759  0  0  0.529512  0  4.272896  0  0  0.205134  0.48121  0  4.280889  0
C  C75  1  0.03180745  0.06362116  0.49746312  1  0  0.540201  0  3.976625  0  0  0.500959  0  4.275908  0  0  0.529576  0  4.273044  0  0  0.205175  0.481275  0  4.281036  0
N  N76  1  0.51821405  0.63823860  0.74105603  1  0  -0.512093  0  3.128411  0  0  -0.474041  0  3.407654  0  0  -0.494776  0  3.423642  0  0  -0.381054  -0.464154  0  3.397811  0
N  N77  1  0.48178394  0.86176682  0.24105868  1  0  -0.512246  0  3.128239  0  0  -0.474182  0  3.40753  0  0  -0.494916  0  3.423514  0  0  -0.381039  -0.464296  0  3.397689  0
N  N78  1  0.48178531  0.36176256  0.25894080  1  0  -0.512139  0  3.128372  0  0  -0.474041  0  3.407631  0  0  -0.494781  0  3.423621  0  0  -0.380991  -0.464154  0  3.397786  0
N  N79  1  0.51821924  0.13823864  0.75894269  1  0  -0.512272  0  3.12831  0  0  -0.474174  0  3.407629  0  0  -0.494905  0  3.423613  0  0  -0.381043  -0.464285  0  3.397786  0
N  N80  1  0.40905301  0.65448786  0.61103638  1  0  -0.331281  0  3.39329  0  0  -0.280648  0  3.627421  0  0  -0.295036  0  3.637933  0  0  -0.361057  -0.270481  0  3.619315  0
N  N81  1  0.59094864  0.84551000  0.11103892  1  0  -0.331269  0  3.39336  0  0  -0.280635  0  3.627464  0  0  -0.295021  0  3.637977  0  0  -0.361042  -0.270469  0  3.619357  0
N  N82  1  0.59094628  0.34551073  0.38896239  1  0  -0.331264  0  3.393439  0  0  -0.280687  0  3.627597  0  0  -0.295074  0  3.638111  0  0  -0.36109  -0.270521  0  3.619491  0
N  N83  1  0.40905566  0.15449204  0.88896309  1  0  -0.331259  0  3.3934  0  0  -0.280632  0  3.627527  0  0  -0.295018  0  3.638042  0  0  -0.361035  -0.270466  0  3.619417  0
N  N84  1  0.15721241  0.26932370  0.71129926  1  0  -0.291108  0  3.157582  0  0  -0.227608  0  3.405965  0  0  -0.24047  0  3.420757  0  0  -0.295526  -0.218741  0  3.395449  0
N  N85  1  0.84279346  0.23067809  0.21129743  1  0  -0.291213  0  3.157322  0  0  -0.227701  0  3.40575  0  0  -0.240565  0  3.420539  0  0  -0.295605  -0.218833  0  3.395233  0
N  N86  1  0.84278933  0.73067490  0.28869950  1  0  -0.291098  0  3.157557  0  0  -0.227709  0  3.406019  0  0  -0.240558  0  3.420803  0  0  -0.295581  -0.21884  0  3.395504  0
N  N87  1  0.15722183  0.76932228  0.78870653  1  0  -0.291159  0  3.157551  0  0  -0.227587  0  3.405949  0  0  -0.240473  0  3.420757  0  0  -0.295545  -0.218698  0  3.395419  0
O  O88  1  0.72227222  0.77916651  0.83223003  1  0  -0.687817  0  1.958191  0  0  -0.644216  0  2.202841  0  0  -0.672235  0  2.186964  0  0  -0.393557  -0.628627  0  2.211886  0
O  O89  1  0.27772666  0.72083257  0.33223427  1  0  -0.687838  0  1.958385  0  0  -0.644271  0  2.203032  0  0  -0.672284  0  2.187143  0  0  -0.393603  -0.628682  0  2.21208  0
O  O90  1  0.27772715  0.22083465  0.16776874  1  0  -0.687802  0  1.958492  0  0  -0.644213  0  2.203104  0  0  -0.672238  0  2.187229  0  0  -0.393577  -0.628625  0  2.21215  0
O  O91  1  0.72226782  0.27916943  0.66776904  1  0  -0.687764  0  1.958401  0  0  -0.64421  0  2.202992  0  0  -0.672221  0  2.187113  0  0  -0.393548  -0.628623  0  2.21204  0
O  O92  1  0.71748827  0.91891876  0.73271314  1  0  -0.723865  0  2.044452  0  0  -0.6747  0  2.30378  0  0  -0.705566  0  2.288548  0  0  -0.399506  -0.657168  0  2.311841  0
O  O93  1  0.28252050  0.58107724  0.23271822  1  0  -0.723757  0  2.044636  0  0  -0.674609  0  2.303949  0  0  -0.705488  0  2.288719  0  0  -0.399429  -0.657076  0  2.31201  0
O  O94  1  0.28250846  0.08107639  0.26728109  1  0  -0.723749  0  2.044557  0  0  -0.674619  0  2.30387  0  0  -0.705492  0  2.288644  0  0  -0.399484  -0.657084  0  2.311928  0
O  O95  1  0.71749117  0.41892483  0.76728574  1  0  -0.72382  0  2.044537  0  0  -0.674718  0  2.303869  0  0  -0.705594  0  2.288639  0  0  -0.399525  -0.657183  0  2.311929  0
O  O96  1  0.48746676  0.95394408  0.58839966  1  0  -0.736365  0  2.099301  0  0  -0.687724  0  2.362065  0  0  -0.720089  0  2.350552  0  0  -0.398204  -0.670506  0  2.369718  0
O  O97  1  0.51252874  0.54605190  0.08840062  1  0  -0.736359  0  2.099351  0  0  -0.687747  0  2.362126  0  0  -0.720118  0  2.350621  0  0  -0.39817  -0.67053  0  2.369777  0
O  O98  1  0.51251783  0.04605530  0.41159911  1  0  -0.736406  0  2.099271  0  0  -0.687753  0  2.361999  0  0  -0.720125  0  2.350485  0  0  -0.398207  -0.670534  0  2.369649  0
O  O99  1  0.48747068  0.45395097  0.91160009  1  0  -0.736372  0  2.0993  0  0  -0.68777  0  2.362028  0  0  -0.720138  0  2.350526  0  0  -0.398187  -0.670552  0  2.369679  0
O  O100  1  0.40690037  0.81932828  0.49106559  1  0  -0.708371  0  1.98547  0  0  -0.663176  0  2.237756  0  0  -0.693034  0  2.222863  0  0  -0.385924  -0.646909  0  2.246339  0
O  O101  1  0.59310054  0.68066485  0.99106888  1  0  -0.708373  0  1.985428  0  0  -0.663203  0  2.237706  0  0  -0.693054  0  2.222824  0  0  -0.385997  -0.646935  0  2.246289  0
O  O102  1  0.59309892  0.18067031  0.50893058  1  0  -0.708373  0  1.985515  0  0  -0.663197  0  2.237795  0  0  -0.693046  0  2.222905  0  0  -0.385958  -0.64693  0  2.246379  0
O  O103  1  0.40690246  0.31933461  0.00892989  1  0  -0.708314  0  1.985601  0  0  -0.663159  0  2.237853  0  0  -0.693013  0  2.222972  0  0  -0.385981  -0.646893  0  2.246435  0
O  O104  1  0.15694853  0.58352892  0.04950820  1  0  -0.669367  0  2.018396  0  0  -0.626853  0  2.262227  0  0  -0.654602  0  2.250282  0  0  -0.377774  -0.611539  0  2.268876  0
O  O105  1  0.84304580  0.91646684  0.54952705  1  0  -0.669629  0  2.018262  0  0  -0.627118  0  2.262118  0  0  -0.654858  0  2.250173  0  0  -0.378004  -0.611802  0  2.268767  0
O  O106  1  0.84305201  0.41647053  0.95047436  1  0  -0.669509  0  2.018329  0  0  -0.626972  0  2.262168  0  0  -0.654716  0  2.250222  0  0  -0.377868  -0.611657  0  2.268818  0
O  O107  1  0.15694237  0.08352913  0.45049117  1  0  -0.669408  0  2.018375  0  0  -0.626897  0  2.262235  0  0  -0.654642  0  2.250291  0  0  -0.377781  -0.611583  0  2.268886  0
O  O108  1  0.95355062  0.63651369  0.95942102  1  0  -0.661224  0  2.019201  0  0  -0.617094  0  2.259289  0  0  -0.644151  0  2.246452  0  0  -0.378102  -0.6023  0  2.266652  0
O  O109  1  0.04642592  0.86348344  0.45943036  1  0  -0.661131  0  2.019198  0  0  -0.616985  0  2.259292  0  0  -0.644042  0  2.246459  0  0  -0.377929  -0.602192  0  2.266654  0
O  O110  1  0.04644016  0.36348743  0.04056868  1  0  -0.661053  0  2.019312  0  0  -0.616896  0  2.259416  0  0  -0.643957  0  2.246581  0  0  -0.377864  -0.602106  0  2.266781  0
O  O111  1  0.95354760  0.13651504  0.54057878  1  0  -0.66123  0  2.01941  0  0  -0.6171  0  2.259526  0  0  -0.644151  0  2.246694  0  0  -0.378084  -0.602308  0  2.26689  0
O  O112  1  0.93131450  0.60607453  0.76224772  1  0  -0.921066  0  1.916834  0  0  -0.866782  0  2.121058  0  0  -0.892255  0  2.085595  0  0  -0.650604  -0.853083  0  2.142799  0
O  O113  1  0.06869556  0.89392506  0.26223770  1  0  -0.921055  0  1.916842  0  0  -0.866724  0  2.121  0  0  -0.8922  0  2.085545  0  0  -0.650582  -0.853025  0  2.142736  0
O  O114  1  0.06868991  0.39393093  0.23775494  1  0  -0.921024  0  1.91687  0  0  -0.86671  0  2.121074  0  0  -0.892186  0  2.085609  0  0  -0.650596  -0.853011  0  2.142811  0
O  O115  1  0.93130614  0.10607183  0.73775588  1  0  -0.921061  0  1.916762  0  0  -0.866784  0  2.120991  0  0  -0.892242  0  2.085538  0  0  -0.650643  -0.853085  0  2.142728  0
