# generated using pymatgen
data_Zn2H22C45N2O13F2
_symmetry_space_group_name_H-M   'P 1'
_cell_length_a   16.49308573
_cell_length_b   17.89060510
_cell_length_c   33.21219986
_cell_angle_alpha   90.24138336
_cell_angle_beta   89.82227840
_cell_angle_gamma   89.92292568
_symmetry_Int_Tables_number   1
_chemical_formula_structural   Zn2H22C45N2O13F2
_chemical_formula_sum   'Zn4 H44 C90 N4 O26 F4'
_cell_volume   9799.82328864
_cell_formula_units_Z   2
loop_
 _symmetry_equiv_pos_site_id
 _symmetry_equiv_pos_as_xyz
  1  'x, y, z'
loop_
 _atom_site_type_symbol
 _atom_site_label
 _atom_site_symmetry_multiplicity
 _atom_site_fract_x
 _atom_site_fract_y
 _atom_site_fract_z
 _atom_site_occupancy
 _atom_site_pbe_bader_charge
 _atom_site_pbe_bader_spin_density
 _atom_site_pbe_cm5_charge
 _atom_site_pbe_ddec_charge
 _atom_site_pbe_ddec_spin_density
 _atom_site_pbe_ddec_sum_bond_order
 _atom_site_pbe_magmom
Zn  Zn0  1  0.58403389  0.49921334  0.50063743  1  1.258113  0  0.665939  0.813924  0  2.448711  0
Zn  Zn1  1  0.41531808  0.50090849  0.50003981  1  1.277563  0  0.665429  0.813947  0  2.435946  0
Zn  Zn2  1  0.41603302  0.50147696  0.96150610  1  1.257514  0  0.665906  0.81443  0  2.447366  0
Zn  Zn3  1  0.58466233  0.50291590  0.96204695  1  1.277181  0  0.665052  0.813256  0  2.435245  0
H  H4  1  0.28935508  0.58185363  0.54542775  1  0.124835  0  0.132301  0.114042  0  0.969655  0
H  H5  1  0.13680995  0.58811227  0.54838923  1  0.095059  0  0.119508  0.128346  0  0.973113  0
H  H6  1  0.28441215  0.41856540  0.45634864  1  0.143887  0  0.139763  0.133299  0  0.951834  0
H  H7  1  0.71534318  0.58222921  0.54391433  1  0.127907  0  0.139713  0.133503  0  0.950828  0
H  H8  1  0.70950325  0.41755799  0.45561442  1  0.120227  0  0.131723  0.113065  0  0.970532  0
H  H9  1  0.86208316  0.41139540  0.45221561  1  0.094148  0  0.118489  0.127346  0  0.975557  0
H  H10  1  0.63126312  0.73465131  0.50062368  1  0.102704  0  0.102815  0.112492  0  1.007454  0
H  H11  1  0.63601393  0.87468483  0.50003655  1  0.084712  0  0.103019  0.104518  0  0.990403  0
H  H12  1  0.37061373  0.74175645  0.50032048  1  0.111005  0  0.111859  0.136528  0  0.986971  0
H  H13  1  0.63016111  0.25763544  0.50000726  1  0.116516  0  0.111543  0.135843  0  0.987858  0
H  H14  1  0.36955179  0.26625034  0.49984193  1  0.109741  0  0.102934  0.112429  0  1.007219  0
H  H15  1  0.36388112  0.12621920  0.49970167  1  0.036517  0  0.103303  0.105232  0  0.98945  0
H  H16  1  0.36887819  0.50052417  0.62895775  1  0.120585  0  0.105527  0.11659  0  1.011216  0
H  H17  1  0.62896518  0.50002249  0.62800694  1  0.116088  0  0.106424  0.11823  0  1.009656  0
H  H18  1  0.63088807  0.50124332  0.83308439  1  0.128027  0  0.105621  0.116591  0  1.011221  0
H  H19  1  0.37078142  0.50086297  0.83406911  1  0.155325  0  0.106327  0.118182  0  1.009685  0
H  H20  1  0.36840549  0.50288606  0.08831106  1  0.090583  0  0.101882  0.110235  0  1.01033  0
H  H21  1  0.36334003  0.50239187  0.16377286  1  0.075049  0  0.102609  0.104087  0  0.991024  0
H  H22  1  0.62902762  0.50236213  0.09184998  1  0.11661  0  0.112718  0.1379  0  0.986035  0
H  H23  1  0.37095795  0.50002271  0.37028409  1  0.117879  0  0.112809  0.137927  0  0.986211  0
H  H24  1  0.63159003  0.50035566  0.37384146  1  0.086576  0  0.101871  0.110717  0  1.009859  0
H  H25  1  0.63665083  0.50122826  0.29836906  1  0.078434  0  0.102644  0.104113  0  0.99063  0
H  H26  1  0.71037885  0.58389252  0.91687359  1  0.141822  0  0.132224  0.11413  0  0.968389  0
H  H27  1  0.86292262  0.59029149  0.91399586  1  0.081228  0  0.119597  0.128304  0  0.974399  0
H  H28  1  0.71590361  0.42129454  0.00558325  1  0.13883  0  0.139832  0.133284  0  0.952097  0
H  H29  1  0.28462343  0.58423902  0.91832687  1  0.143306  0  0.139792  0.133215  0  0.951147  0
H  H30  1  0.29064135  0.42030652  0.00626782  1  0.108877  0  0.131836  0.113536  0  0.97068  0
H  H31  1  0.13805413  0.41448897  0.00965906  1  0.106654  0  0.118574  0.12732  0  0.975221  0
H  H32  1  0.36854266  0.73740568  0.96094412  1  0.098098  0  0.102802  0.11215  0  1.00779  0
H  H33  1  0.36418660  0.87750585  0.96106384  1  0.043446  0  0.10328  0.105204  0  0.990425  0
H  H34  1  0.62923098  0.74330858  0.96123785  1  0.109098  0  0.111508  0.135892  0  0.987811  0
H  H35  1  0.37017575  0.26000522  0.96172984  1  0.102624  0  0.111326  0.135757  0  0.988564  0
H  H36  1  0.63076854  0.26800309  0.96180192  1  0.071891  0  0.102621  0.111841  0  1.007094  0
H  H37  1  0.63645790  0.12795167  0.96158745  1  0.075989  0  0.103159  0.10492  0  0.990861  0
H  H38  1  0.06813432  0.41334866  0.45309713  1  0.642503  0  0.330487  0.357839  0  0.894901  0
H  H39  1  0.93160121  0.58674223  0.54711764  1  0.589491  0  0.33133  0.358714  0  0.892937  0
H  H40  1  0.37165816  0.94079021  0.49973663  1  0.604743  0  0.317594  0.348473  0  0.916677  0
H  H41  1  0.62776333  0.05858352  0.49986666  1  0.594072  0  0.317255  0.348741  0  0.917378  0
H  H42  1  0.62752217  0.50187778  0.19905735  1  0.590153  0  0.31724  0.347652  0  0.918018  0
H  H43  1  0.37249901  0.50120463  0.26307250  1  0.594833  0  0.317123  0.347632  0  0.918681  0
H  H44  1  0.93216586  0.41641822  0.00896990  1  0.64091  0  0.330591  0.357863  0  0.894915  0
H  H45  1  0.06837980  0.58917406  0.91510503  1  0.591366  0  0.331355  0.358749  0  0.892862  0
H  H46  1  0.62863373  0.94239267  0.96108812  1  0.581785  0  0.317778  0.349277  0  0.915973  0
H  H47  1  0.37256626  0.06097357  0.96128590  1  0.630897  0  0.317227  0.347986  0  0.917719  0
C  C48  1  0.49900499  0.64666914  0.50111737  1  1.499269  0  0.214345  0.590448  0  4.168248  0
C  C49  1  0.49875973  0.50055827  0.57942502  1  1.518635  0  0.215788  0.594274  0  4.167059  0
C  C50  1  0.50263381  0.35345539  0.49981511  1  1.599186  0  0.214346  0.591057  0  4.167263  0
C  C51  1  0.49870303  0.49942777  0.42135205  1  1.589044  0  0.214681  0.59211  0  4.166929  0
C  C52  1  0.50079317  0.64882497  0.96093030  1  1.565059  0  0.215122  0.593164  0  4.163668  0
C  C53  1  0.50109200  0.50175026  0.88265435  1  1.515643  0  0.215522  0.592449  0  4.167036  0
C  C54  1  0.49766465  0.35554334  0.96212924  1  1.528358  0  0.214871  0.591419  0  4.164928  0
C  C55  1  0.50125918  0.50214882  0.04078508  1  1.596417  0  0.214514  0.592456  0  4.166267  0
C  C56  1  0.25130263  0.54694762  0.52631818  1  0.46908  0  0.049589  0.071036  0  3.946296  0
C  C57  1  0.16747491  0.54998534  0.52771971  1  0.039341  0  -0.070358  -0.145452  0  3.954414  0
C  C58  1  0.12206937  0.50322043  0.50212907  1  0.206729  0  -0.001807  0.033546  0  4.137993  0
C  C59  1  0.16469599  0.45444398  0.47575732  1  0.525748  0  0.102626  0.237096  0  4.042985  0
C  C60  1  0.24946711  0.45507309  0.47629355  1  0.542518  0  0.059228  -0.007529  0  3.866803  0
C  C61  1  0.03655187  0.50261279  0.50157042  1  -0.141022  0  -0.031144  -0.095912  0  4.137909  0
C  C62  1  0.96279697  0.49739324  0.49857875  1  -0.40427  0  -0.032266  -0.097754  0  4.138675  0
C  C63  1  0.87727447  0.49683872  0.49814488  1  0.201607  0  -0.002541  0.033647  0  4.139529  0
C  C64  1  0.83488104  0.54585769  0.52449336  1  0.542036  0  0.103742  0.23774  0  4.04294  0
C  C65  1  0.75009030  0.54533593  0.52409169  1  0.544525  0  0.059558  -0.007303  0  3.864474  0
C  C66  1  0.74778774  0.45284396  0.47440475  1  0.56032  0  0.048256  0.070156  0  3.946968  0
C  C67  1  0.83161013  0.44983358  0.47279312  1  -0.060695  0  -0.071376  -0.148374  0  3.959787  0
C  C68  1  0.50092045  0.73045343  0.50074006  1  0.030477  0  -0.013453  -0.001926  0  3.981006  0
C  C69  1  0.57585150  0.76775473  0.50058266  1  -0.034783  0  -0.098853  -0.128471  0  4.029778  0
C  C70  1  0.57821544  0.84515168  0.50020956  1  -0.08124  0  -0.088385  -0.108707  0  4.007822  0
C  C71  1  0.50576861  0.88721370  0.50002306  1  0.133438  0  -0.021806  0.003341  0  4.148514  0
C  C72  1  0.43032761  0.84889357  0.50012591  1  0.397157  0  0.088081  0.278462  0  4.045613  0
C  C73  1  0.42844866  0.77104985  0.50043323  1  0.12801  0  -0.094846  -0.213047  0  3.936536  0
C  C74  1  0.50447539  0.96603881  0.49976469  1  -0.553566  0  -0.047344  -0.11592  0  4.177094  0
C  C75  1  0.49495264  0.03410903  0.49966236  1  0.087699  0  -0.047905  -0.117605  0  4.176376  0
C  C76  1  0.49403576  0.11294469  0.49964618  1  0.125237  0  -0.021541  0.005577  0  4.145412  0
C  C77  1  0.56975057  0.15082823  0.49971392  1  0.393865  0  0.087997  0.277603  0  4.045484  0
C  C78  1  0.57214100  0.22866235  0.49976600  1  0.121007  0  -0.094956  -0.21265  0  3.938351  0
C  C79  1  0.49992925  0.26968914  0.49973074  1  -0.074566  0  -0.013099  -0.002315  0  3.980004  0
C  C80  1  0.42473894  0.23282667  0.49971454  1  -0.049299  0  -0.098787  -0.127481  0  4.026897  0
C  C81  1  0.42186782  0.15542812  0.49966980  1  -0.009416  0  -0.088503  -0.110051  0  4.00597  0
C  C82  1  0.42537926  0.50067983  0.64577991  1  -0.074972  0  -0.08271  -0.128276  0  3.92686  0
C  C83  1  0.42482977  0.50077895  0.68798013  1  0.083124  0  -0.012918  -0.005847  0  4.073364  0
C  C84  1  0.35147493  0.50099921  0.71102581  1  0.565151  0  0.086964  0.113989  0  4.090756  0
C  C85  1  0.57276950  0.50045159  0.64524634  1  0.054591  0  -0.080912  -0.125258  0  3.924719  0
C  C86  1  0.57405629  0.50079608  0.68742203  1  -0.018074  0  -0.013349  -0.007795  0  4.074385  0
C  C87  1  0.64786702  0.50111850  0.70989033  1  0.451569  0  0.087547  0.115927  0  4.091765  0
C  C88  1  0.57436610  0.50134143  0.81627488  1  0.061293  0  -0.082229  -0.12748  0  3.925903  0
C  C89  1  0.57487860  0.50124903  0.77407562  1  -0.073061  0  -0.013102  -0.006455  0  4.074226  0
C  C90  1  0.64823075  0.50127080  0.75102385  1  0.562909  0  0.08674  0.114251  0  4.091895  0
C  C91  1  0.42697030  0.50110295  0.81682638  1  0.009107  0  -0.081216  -0.126175  0  3.924091  0
C  C92  1  0.42563770  0.50107149  0.77464483  1  -0.012989  0  -0.013329  -0.006913  0  4.073231  0
C  C93  1  0.35183023  0.50109673  0.75216224  1  0.439821  0  0.087263  0.11604  0  4.089281  0
C  C94  1  0.49888537  0.50053199  0.62469942  1  0.03572  0  -0.013318  -0.013879  0  3.976524  0
C  C95  1  0.49963992  0.50088683  0.70965471  1  0.011628  0  0.000461  0.012828  0  3.95309  0
C  C96  1  0.50086984  0.50134115  0.83737128  1  0.051892  0  -0.013313  -0.012879  0  3.974752  0
C  C97  1  0.50004544  0.50109756  0.75241874  1  0.00507  0  0.000805  0.011109  0  3.9547  0
C  C98  1  0.49879708  0.50219933  0.08591774  1  -0.064747  0  -0.013803  -0.003538  0  3.982408  0
C  C99  1  0.42374728  0.50241789  0.10607703  1  -0.018335  0  -0.099039  -0.12686  0  4.029131  0
C  C100  1  0.42119095  0.50223247  0.14778194  1  -0.022452  0  -0.088932  -0.110554  0  4.007681  0
C  C101  1  0.49355684  0.50192988  0.17034326  1  0.182715  0  -0.022331  0.004321  0  4.148649  0
C  C102  1  0.56909670  0.50194191  0.14962649  1  0.444331  0  0.089047  0.278519  0  4.046738  0
C  C103  1  0.57114514  0.50209335  0.10769938  1  0.023943  0  -0.094589  -0.212443  0  3.939086  0
C  C104  1  0.49489866  0.50167968  0.21278552  1  -0.2713  0  -0.048187  -0.117891  0  4.179677  0
C  C105  1  0.50506790  0.50143070  0.24937547  1  -0.280269  0  -0.046488  -0.115143  0  4.178521  0
C  C106  1  0.50642828  0.50085238  0.29180615  1  0.178627  0  -0.022966  0.003558  0  4.147846  0
C  C107  1  0.43088579  0.50047814  0.31251941  1  0.454515  0  0.088668  0.278705  0  4.046345  0
C  C108  1  0.42884560  0.50000027  0.35443765  1  0.061579  0  -0.094325  -0.212355  0  3.939172  0
C  C109  1  0.50120471  0.49976964  0.37621809  1  -0.035493  0  -0.013709  -0.002843  0  3.982042  0
C  C110  1  0.57626110  0.50016984  0.35606228  1  -0.095154  0  -0.099355  -0.128288  0  4.02887  0
C  C111  1  0.57880065  0.50072194  0.31435699  1  -0.018191  0  -0.088758  -0.110308  0  4.006773  0
C  C112  1  0.74853225  0.54916298  0.93591304  1  0.450874  0  0.049384  0.07106  0  3.943859  0
C  C113  1  0.83236158  0.55229448  0.93456040  1  0.036587  0  -0.070329  -0.146497  0  3.955721  0
C  C114  1  0.87795250  0.50578215  0.96006786  1  0.201134  0  -0.002007  0.034707  0  4.137888  0
C  C115  1  0.83548494  0.45717414  0.98631215  1  0.542214  0  0.103449  0.237299  0  4.044159  0
C  C116  1  0.75071682  0.45768977  0.98573750  1  0.557869  0  0.058339  -0.008332  0  3.866076  0
C  C117  1  0.96346575  0.50527692  0.96066530  1  -0.594663  0  -0.032344  -0.098164  0  4.138831  0
C  C118  1  0.03726975  0.50021328  0.96351971  1  0.051231  0  -0.031343  -0.095935  0  4.139358  0
C  C119  1  0.12278566  0.49962026  0.96393178  1  0.209605  0  -0.002982  0.032707  0  4.14011  0
C  C120  1  0.16511668  0.54833954  0.93769335  1  0.582176  0  0.104415  0.238733  0  4.04215  0
C  C121  1  0.24990947  0.54757010  0.93806988  1  0.539429  0  0.059547  -0.006821  0  3.864459  0
C  C122  1  0.25232653  0.45552383  0.98756246  1  0.57689  0  0.04825  0.069528  0  3.948345  0
C  C123  1  0.16851122  0.45270148  0.98917200  1  -0.122709  0  -0.071755  -0.14853  0  3.958785  0
C  C124  1  0.49888792  0.73262449  0.96094784  1  -0.003296  0  -0.013934  -0.003644  0  3.981089  0
C  C125  1  0.42403455  0.77025698  0.96093937  1  -0.038453  0  -0.098636  -0.12683  0  4.027144  0
C  C126  1  0.42189256  0.84767944  0.96105481  1  -0.007128  0  -0.088596  -0.111009  0  4.006975  0
C  C127  1  0.49446907  0.88936654  0.96116805  1  0.169787  0  -0.022033  0.005821  0  4.146427  0
C  C128  1  0.56982507  0.85071042  0.96107301  1  0.496781  0  0.087332  0.276344  0  4.046841  0
C  C129  1  0.57148059  0.77286779  0.96104522  1  0.016582  0  -0.093954  -0.211328  0  3.938705  0
C  C130  1  0.49591305  0.96816686  0.96138796  1  -0.688724  0  -0.047768  -0.117975  0  4.179368  0
C  C131  1  0.50543946  0.03619493  0.96149239  1  0.110404  0  -0.04696  -0.115553  0  4.177562  0
C  C132  1  0.50631050  0.11500325  0.96167666  1  0.102206  0  -0.022438  0.00494  0  4.147117  0
C  C133  1  0.43060230  0.15307368  0.96171428  1  0.506188  0  0.0885  0.27726  0  4.046607  0
C  C134  1  0.42821002  0.23091209  0.96187464  1  0.008312  0  -0.094428  -0.212377  0  3.939749  0
C  C135  1  0.50041154  0.27175304  0.96200127  1  -0.005446  0  -0.014122  -0.002522  0  3.979697  0
C  C136  1  0.57559298  0.23469894  0.96188804  1  0.107706  0  -0.098335  -0.12634  0  4.025933  0
C  C137  1  0.57847043  0.15729861  0.96174274  1  -0.079014  0  -0.087909  -0.110087  0  4.007454  0
N  N138  1  0.29072843  0.50028074  0.50098490  1  -1.213324  0  -0.3106  -0.163049  0  3.551218  0
N  N139  1  0.70861446  0.49985674  0.49964994  1  -1.206628  0  -0.310966  -0.162249  0  3.55059  0
N  N140  1  0.70928149  0.50261690  0.96111844  1  -1.218341  0  -0.310205  -0.161551  0  3.548287  0
N  N141  1  0.29144792  0.50223988  0.96241090  1  -1.222715  0  -0.31102  -0.162475  0  3.55181  0
O  O142  1  0.56728017  0.61326114  0.50170297  1  -1.168797  0  -0.318371  -0.550174  0  2.33223  0
O  O143  1  0.42972173  0.61523058  0.50075197  1  -1.153085  0  -0.318723  -0.547663  0  2.320381  0
O  O144  1  0.43007123  0.50223071  0.56211614  1  -1.161747  0  -0.316487  -0.546998  0  2.319226  0
O  O145  1  0.56768098  0.49893913  0.56206451  1  -1.16396  0  -0.316761  -0.544663  0  2.325741  0
O  O146  1  0.43463027  0.38744756  0.49998317  1  -1.157695  0  -0.318592  -0.550571  0  2.334219  0
O  O147  1  0.57218662  0.38430464  0.49977236  1  -1.16532  0  -0.318901  -0.547986  0  2.317824  0
O  O148  1  0.56681093  0.49869637  0.43937860  1  -1.164861  0  -0.318654  -0.551061  0  2.336485  0
O  O149  1  0.42924124  0.50000062  0.43823404  1  -1.166922  0  -0.318715  -0.547896  0  2.314418  0
O  O150  1  0.43255188  0.61550631  0.96050091  1  -1.170408  0  -0.318788  -0.55133  0  2.330147  0
O  O151  1  0.57011473  0.61727739  0.96135059  1  -1.165344  0  -0.318783  -0.549006  0  2.320415  0
O  O152  1  0.56980583  0.50349696  0.89994457  1  -1.161677  0  -0.316445  -0.546628  0  2.318419  0
O  O153  1  0.43220742  0.50034600  0.90005026  1  -1.167211  0  -0.316971  -0.544012  0  2.324189  0
O  O154  1  0.56563523  0.38944722  0.96207463  1  -1.158174  0  -0.319095  -0.551063  0  2.331374  0
O  O155  1  0.42809477  0.38651089  0.96221835  1  -1.162251  0  -0.318396  -0.547765  0  2.318124  0
O  O156  1  0.43313891  0.50145935  0.02276263  1  -1.16106  0  -0.318632  -0.550939  0  2.335702  0
O  O157  1  0.57069658  0.50280735  0.02388267  1  -1.165802  0  -0.318621  -0.548124  0  2.314182  0
O  O158  1  0.12686458  0.40722339  0.45000965  1  -1.148966  0  -0.334209  -0.409368  0  2.255097  0
O  O159  1  0.87288944  0.59324587  0.55005630  1  -1.094004  0  -0.333129  -0.407884  0  2.255316  0
O  O160  1  0.35887256  0.88726225  0.49993530  1  -1.12585  0  -0.356815  -0.437973  0  2.243652  0
O  O161  1  0.64095033  0.11203367  0.49976182  1  -1.116834  0  -0.356807  -0.438404  0  2.243945  0
O  O162  1  0.64045378  0.50176950  0.17020705  1  -1.112663  0  -0.356404  -0.436343  0  2.244318  0
O  O163  1  0.35954994  0.50065278  0.29191925  1  -1.118881  0  -0.35639  -0.436806  0  2.244646  0
O  O164  1  0.87345782  0.41021174  0.01198426  1  -1.146158  0  -0.333996  -0.409247  0  2.255821  0
O  O165  1  0.12708504  0.59561197  0.91223661  1  -1.093479  0  -0.333466  -0.408303  0  2.254347  0
O  O166  1  0.64135189  0.88881154  0.96103220  1  -1.107154  0  -0.356511  -0.43798  0  2.243298  0
O  O167  1  0.35939634  0.11446265  0.96154757  1  -1.15762  0  -0.356848  -0.437441  0  2.244142  0
F  F168  1  0.28046710  0.50141651  0.77262928  1  -0.615715  0  -0.099669  -0.119276  0  1.346472  0
F  F169  1  0.27972436  0.50128085  0.69108374  1  -0.621934  0  -0.101049  -0.120894  0  1.346128  0
F  F170  1  0.71998067  0.50156991  0.77096721  1  -0.620283  0  -0.100876  -0.120701  0  1.346258  0
F  F171  1  0.71921262  0.50130235  0.68940697  1  -0.621173  0  -0.099624  -0.119038  0  1.346488  0
