# generated using pymatgen
data_CdH12C15(SN3)2
_symmetry_space_group_name_H-M   'P 1'
_cell_length_a   8.04840181
_cell_length_b   10.66742745
_cell_length_c   10.87460026
_cell_angle_alpha   61.90552834
_cell_angle_beta   87.32836840
_cell_angle_gamma   89.95012375
_symmetry_Int_Tables_number   1
_chemical_formula_structural   CdH12C15(SN3)2
_chemical_formula_sum   'Cd2 H24 C30 S4 N12'
_cell_volume   822.50674736
_cell_formula_units_Z   2
loop_
 _symmetry_equiv_pos_site_id
 _symmetry_equiv_pos_as_xyz
  1  'x, y, z'
loop_
 _atom_site_type_symbol
 _atom_site_label
 _atom_site_symmetry_multiplicity
 _atom_site_fract_x
 _atom_site_fract_y
 _atom_site_fract_z
 _atom_site_occupancy
 _atom_site_hle17_bader_spin_density
 _atom_site_hle17_ddec_charge
 _atom_site_hle17_ddec_spin_density
 _atom_site_hle17_ddec_sum_bond_order
 _atom_site_hle17_magmom
 _atom_site_hse06_10hf_bader_spin_density
 _atom_site_hse06_10hf_ddec_charge
 _atom_site_hse06_10hf_ddec_spin_density
 _atom_site_hse06_10hf_ddec_sum_bond_order
 _atom_site_hse06_10hf_magmom
 _atom_site_hse06_bader_spin_density
 _atom_site_hse06_ddec_charge
 _atom_site_hse06_ddec_spin_density
 _atom_site_hse06_ddec_sum_bond_order
 _atom_site_hse06_magmom
 _atom_site_pbe_bader_spin_density
 _atom_site_pbe_cm5_charge
 _atom_site_pbe_ddec_charge
 _atom_site_pbe_ddec_spin_density
 _atom_site_pbe_ddec_sum_bond_order
 _atom_site_pbe_magmom
Cd  Cd0  1  0.23876587  0.66067371  0.54948213  1  0  0.945706  0  1.976327  0  0  0.762278  0  2.440788  0  0  0.808127  0  2.404607  0  0  0.726012  0.731788  0  2.464523  0
Cd  Cd1  1  0.76123124  0.33932703  0.45051452  1  0  0.94571  0  1.976365  0  0  0.762279  0  2.440844  0  0  0.808124  0  2.404666  0  0  0.726007  0.731791  0  2.464579  0
H  H2  1  0.97114531  0.52010572  0.82455547  1  0  0.065923  0  0.983033  0  0  0.070384  0  1.056991  0  0  0.072451  0  1.055864  0  0  0.102807  0.069144  0  1.057205  0
H  H3  1  0.02885313  0.47989714  0.17544108  1  0  0.065898  0  0.983047  0  0  0.070373  0  1.057  0  0  0.07244  0  1.055873  0  0  0.102816  0.069138  0  1.057207  0
H  H4  1  0.79352971  0.59188946  0.97661466  1  0  0.104473  0  0.943486  0  0  0.116559  0  1.000161  0  0  0.119519  0  0.999237  0  0  0.107531  0.114656  0  1.000755  0
H  H5  1  0.20646871  0.40811233  0.02338330  1  0  0.104469  0  0.943513  0  0  0.116564  0  1.000179  0  0  0.119519  0  0.999261  0  0  0.107539  0.114661  0  1.000772  0
H  H6  1  0.81190673  0.84444061  0.93099555  1  0  0.093538  0  0.949342  0  0  0.104764  0  1.010065  0  0  0.106869  0  1.009162  0  0  0.108109  0.103092  0  1.011198  0
H  H7  1  0.18809294  0.15556010  0.06900469  1  0  0.093531  0  0.94935  0  0  0.104762  0  1.010066  0  0  0.106861  0  1.009178  0  0  0.108106  0.103089  0  1.011197  0
H  H8  1  0.00285000  0.01512100  0.73786641  1  0  0.105939  0  0.963353  0  0  0.116027  0  1.025778  0  0  0.118814  0  1.024935  0  0  0.110357  0.11476  0  1.025482  0
H  H9  1  0.99715094  0.98488077  0.26213329  1  0  0.105973  0  0.963341  0  0  0.116077  0  1.02574  0  0  0.118849  0  1.024934  0  0  0.110373  0.114807  0  1.025455  0
H  H10  1  0.46866862  0.83979653  0.33291105  1  0  0.071545  0  0.950451  0  0  0.081745  0  1.020934  0  0  0.08469  0  1.016973  0  0  0.108232  0.0793  0  1.023867  0
H  H11  1  0.53132596  0.16020208  0.66708853  1  0  0.071529  0  0.950532  0  0  0.081721  0  1.021017  0  0  0.084677  0  1.017044  0  0  0.108239  0.079274  0  1.023947  0
H  H12  1  0.47538170  0.24188888  0.17846811  1  0  0.088765  0  0.99352  0  0  0.096109  0  1.065947  0  0  0.099395  0  1.063503  0  0  0.088708  0.093577  0  1.068091  0
H  H13  1  0.52462168  0.75811182  0.82153104  1  0  0.088747  0  0.993501  0  0  0.096078  0  1.065948  0  0  0.099362  0  1.063506  0  0  0.088693  0.093546  0  1.068089  0
H  H14  1  0.64420937  0.40466814  0.96403072  1  0  0.077814  0  0.978796  0  0  0.086473  0  1.045151  0  0  0.089256  0  1.0442  0  0  0.088548  0.084892  0  1.045055  0
H  H15  1  0.35579397  0.59533150  0.03596892  1  0  0.077866  0  0.978767  0  0  0.086499  0  1.045151  0  0  0.089283  0  1.044198  0  0  0.088555  0.084918  0  1.045055  0
H  H16  1  0.82963443  0.30450563  0.84342793  1  0  0.082318  0  0.985067  0  0  0.090339  0  1.052956  0  0  0.092401  0  1.05237  0  0  0.091241  0.088817  0  1.05349  0
H  H17  1  0.17036884  0.69549188  0.15657268  1  0  0.082343  0  0.984992  0  0  0.090363  0  1.052884  0  0  0.092419  0  1.052308  0  0  0.091262  0.088847  0  1.053417  0
H  H18  1  0.84361110  0.04441042  0.93546161  1  0  0.081816  0  0.963579  0  0  0.095539  0  1.020861  0  0  0.097619  0  1.020815  0  0  0.096382  0.093757  0  1.0217  0
H  H19  1  0.15638979  0.95558813  0.06454231  1  0  0.081811  0  0.96348  0  0  0.095517  0  1.020801  0  0  0.097613  0  1.020735  0  0  0.09638  0.093736  0  1.021639  0
H  H20  1  0.66915617  0.88083973  0.14751801  1  0  0.08597  0  0.983454  0  0  0.093051  0  1.054017  0  0  0.095764  0  1.05335  0  0  0.089162  0.091059  0  1.054552  0
H  H21  1  0.33084341  0.11915886  0.85248227  1  0  0.085983  0  0.983453  0  0  0.093068  0  1.054005  0  0  0.095781  0  1.053337  0  0  0.089173  0.091075  0  1.054539  0
H  H22  1  0.28847570  0.15488063  0.44202610  1  0  0.320296  0  0.923827  0  0  0.293649  0  1.007954  0  0  0.301818  0  1.00113  0  0  0.293565  0.287503  0  1.01349  0
H  H23  1  0.71152278  0.84512222  0.55797229  1  0  0.320286  0  0.923879  0  0  0.293636  0  1.00801  0  0  0.301806  0  1.001186  0  0  0.293538  0.287491  0  1.013547  0
H  H24  1  0.13314474  0.14008107  0.56544807  1  0  0.327327  0  0.936019  0  0  0.308769  0  1.001074  0  0  0.31552  0  0.996541  0  0  0.297618  0.303921  0  1.004208  0
H  H25  1  0.86685127  0.85992177  0.43455135  1  0  0.327195  0  0.936162  0  0  0.30865  0  1.001199  0  0  0.315401  0  0.996666  0  0  0.297576  0.303804  0  1.004333  0
C  C26  1  0.97430923  0.62877942  0.80937246  1  0  0.131502  0  3.725316  0  0  0.10172  0  3.977886  0  0  0.108061  0  3.996289  0  0  0.046306  0.0979  0  3.964763  0
C  C27  1  0.02568927  0.37122449  0.19062452  1  0  0.131458  0  3.725418  0  0  0.101667  0  3.977992  0  0  0.108006  0  3.996396  0  0  0.046285  0.097848  0  3.964874  0
C  C28  1  0.87628864  0.66917777  0.89324067  1  0  -0.111625  0  3.729609  0  0  -0.126162  0  3.985568  0  0  -0.131623  0  4.005268  0  0  -0.080035  -0.123199  0  3.972414  0
C  C29  1  0.12371108  0.33082507  0.10675767  1  0  -0.111624  0  3.729669  0  0  -0.126165  0  3.985619  0  0  -0.131617  0  4.005319  0  0  -0.080056  -0.123201  0  3.972467  0
C  C30  1  0.88731834  0.80953157  0.86757944  1  0  0.0061  0  3.717693  0  0  -0.016748  0  3.976807  0  0  -0.013338  0  3.994102  0  0  -0.060853  -0.018556  0  3.96549  0
C  C31  1  0.11268131  0.19046915  0.13241987  1  0  0.006131  0  3.717695  0  0  -0.016718  0  3.976823  0  0  -0.013307  0  3.994111  0  0  -0.060846  -0.018525  0  3.965504  0
C  C32  1  0.99462138  0.90469046  0.75950362  1  0  -0.105278  0  3.664847  0  0  -0.12864  0  3.913779  0  0  -0.132818  0  3.93346  0  0  -0.072401  -0.126263  0  3.899989  0
C  C33  1  0.00537830  0.09531131  0.24049520  1  0  -0.10533  0  3.664872  0  0  -0.128697  0  3.913784  0  0  -0.13288  0  3.933456  0  0  -0.072416  -0.126323  0  3.899996  0
C  C34  1  0.08840627  0.85649780  0.67920597  1  0  0.139661  0  3.73522  0  0  0.14445  0  3.969935  0  0  0.147807  0  3.989664  0  0  0.123561  0.142251  0  3.956374  0
C  C35  1  0.91159345  0.14350504  0.32079237  1  0  0.13965  0  3.735265  0  0  0.144472  0  3.969945  0  0  0.147834  0  3.989671  0  0  0.123576  0.142274  0  3.956387  0
C  C36  1  0.19974559  0.95380943  0.55851750  1  0  0.410249  0  3.80102  0  0  0.371089  0  4.07158  0  0  0.393249  0  4.081791  0  0  0.248642  0.356851  0  4.064054  0
C  C37  1  0.80025408  0.04619235  0.44148041  1  0  0.41033  0  3.800958  0  0  0.371143  0  4.071525  0  0  0.393302  0  4.081739  0  0  0.248676  0.356906  0  4.064001  0
C  C38  1  0.46404206  0.95390504  0.30206331  1  0  0.077796  0  3.671817  0  0  0.043722  0  3.933741  0  0  0.051554  0  3.945903  0  0  0.062439  0.038826  0  3.925146  0
C  C39  1  0.53595640  0.04609674  0.69793649  1  0  0.077824  0  3.671814  0  0  0.043769  0  3.933714  0  0  0.051593  0  3.945873  0  0  0.062438  0.038881  0  3.925108  0
C  C40  1  0.56176216  0.05109469  0.17721422  1  0  0.03658  0  3.827358  0  0  0.057276  0  4.059302  0  0  0.054096  0  4.084526  0  0  -0.017225  0.059331  0  4.041715  0
C  C41  1  0.43823864  0.94890282  0.82278742  1  0  0.036429  0  3.827465  0  0  0.057134  0  4.059389  0  0  0.053952  0  4.084619  0  0  -0.017322  0.059186  0  4.041798  0
C  C42  1  0.55633520  0.19956502  0.12453548  1  0  -0.09804  0  3.718664  0  0  -0.118562  0  3.960881  0  0  -0.119839  0  3.982043  0  0  -0.091773  -0.117624  0  3.947081  0
C  C43  1  0.44366946  0.80043566  0.87546546  1  0  -0.0979  0  3.718752  0  0  -0.118408  0  3.960945  0  0  -0.119686  0  3.982109  0  0  -0.091702  -0.117473  0  3.947151  0
C  C44  1  0.65184533  0.28993699  0.00547799  1  0  -0.07597  0  3.778595  0  0  -0.084442  0  4.022035  0  0  -0.088333  0  4.04542  0  0  -0.098495  -0.082166  0  4.006094  0
C  C45  1  0.34816050  0.71006156  0.99452387  1  0  -0.076112  0  3.778584  0  0  -0.08457  0  4.022021  0  0  -0.08846  0  4.0454  0  0  -0.098519  -0.082295  0  4.006083  0
C  C46  1  0.75527325  0.23407170  0.93705869  1  0  -0.048958  0  3.747265  0  0  -0.064167  0  3.992184  0  0  -0.065459  0  4.015609  0  0  -0.089708  -0.063278  0  3.976797  0
C  C47  1  0.24473139  0.76592791  0.06294366  1  0  -0.048908  0  3.747055  0  0  -0.064102  0  3.991955  0  0  -0.065391  0  4.015386  0  0  -0.089705  -0.063221  0  3.976582  0
C  C48  1  0.76169464  0.08714035  0.98858725  1  0  -0.078437  0  3.779166  0  0  -0.088519  0  4.025867  0  0  -0.092077  0  4.04916  0  0  -0.096592  -0.086426  0  4.010715  0
C  C49  1  0.23830871  0.91285821  0.01141471  1  0  -0.078406  0  3.77909  0  0  -0.088493  0  4.025822  0  0  -0.092063  0  4.049113  0  0  -0.096582  -0.086399  0  4.010667  0
C  C50  1  0.66500509  0.99583607  0.10727296  1  0  -0.10282  0  3.7321  0  0  -0.122433  0  3.97643  0  0  -0.124783  0  3.999273  0  0  -0.089185  -0.120372  0  3.95985  0
C  C51  1  0.33499330  0.00416358  0.89272781  1  0  -0.102825  0  3.732077  0  0  -0.122443  0  3.976395  0  0  -0.124793  0  3.999243  0  0  -0.089194  -0.12038  0  3.959811  0
C  C52  1  0.92262214  0.67230838  0.34987729  1  0  0.317653  0  3.966522  0  0  0.296309  0  4.265744  0  0  0.31778  0  4.279248  0  0  0.15589  0.282166  0  4.25649  0
C  C53  1  0.07737254  0.32769235  0.65012223  1  0  0.317679  0  3.96625  0  0  0.296339  0  4.265461  0  0  0.317809  0  4.27897  0  0  0.155914  0.282195  0  4.256203  0
C  C54  1  0.39446813  0.50706704  0.36362020  1  0  0.326148  0  3.985042  0  0  0.303174  0  4.284858  0  0  0.324914  0  4.300272  0  0  0.153522  0.288505  0  4.273893  0
C  C55  1  0.60553876  0.49292834  0.63637938  1  0  0.326401  0  3.984945  0  0  0.30343  0  4.284744  0  0  0.32517  0  4.300157  0  0  0.153639  0.288761  0  4.273779  0
S  S56  1  0.81711739  0.62007046  0.25786180  1  0  -0.320007  0  2.205473  0  0  -0.282363  0  2.530952  0  0  -0.300205  0  2.52586  0  0  -0.115316  -0.271182  0  2.534923  0
S  S57  1  0.18287728  0.37993027  0.74213773  1  0  -0.320004  0  2.205386  0  0  -0.282381  0  2.53089  0  0  -0.300225  0  2.525808  0  0  -0.115313  -0.271201  0  2.534858  0
S  S58  1  0.46046369  0.39005331  0.31714799  1  0  -0.353945  0  2.162889  0  0  -0.319409  0  2.495224  0  0  -0.335291  0  2.487237  0  0  -0.13993  -0.307894  0  2.499463  0
S  S59  1  0.53954325  0.60994098  0.68285576  1  0  -0.354067  0  2.162761  0  0  -0.319537  0  2.495087  0  0  -0.335421  0  2.487099  0  0  -0.139984  -0.308024  0  2.499326  0
N  N60  1  0.07783187  0.71951539  0.70579802  1  0  -0.342217  0  3.260238  0  0  -0.273858  0  3.513205  0  0  -0.291446  0  3.533207  0  0  -0.322117  -0.26155  0  3.498921  0
N  N61  1  0.92216655  0.28048640  0.29419993  1  0  -0.342138  0  3.2602  0  0  -0.273824  0  3.513224  0  0  -0.291409  0  3.533217  0  0  -0.32211  -0.261517  0  3.498942  0
N  N62  1  0.28373058  0.89973166  0.48697522  1  0  -0.375525  0  3.20016  0  0  -0.312375  0  3.490044  0  0  -0.33702  0  3.510422  0  0  -0.263636  -0.296401  0  3.47614  0
N  N63  1  0.71626663  0.10027012  0.51302463  1  0  -0.375646  0  3.200158  0  0  -0.312452  0  3.490018  0  0  -0.337101  0  3.510403  0  0  -0.263662  -0.296478  0  3.476115  0
N  N64  1  0.37510741  0.00029710  0.37380294  1  0  -0.172209  0  3.134113  0  0  -0.140776  0  3.418116  0  0  -0.147481  0  3.43758  0  0  -0.217168  -0.135606  0  3.404776  0
N  N65  1  0.62489341  0.99970149  0.62619729  1  0  -0.172165  0  3.134057  0  0  -0.140755  0  3.418056  0  0  -0.147459  0  3.437524  0  0  -0.217162  -0.135588  0  3.404713  0
N  N66  1  0.21122077  0.09098388  0.52555178  1  0  -0.631639  0  3.194326  0  0  -0.590244  0  3.430824  0  0  -0.613252  0  3.43144  0  0  -0.559698  -0.5746  0  3.430224  0
N  N67  1  0.78877640  0.90901684  0.47444764  1  0  -0.63149  0  3.19442  0  0  -0.590102  0  3.430918  0  0  -0.613105  0  3.431535  0  0  -0.559614  -0.574459  0  3.430319  0
N  N68  1  0.99688888  0.71476224  0.41526828  1  0  -0.540581  0  2.842676  0  0  -0.486358  0  3.110677  0  0  -0.50474  0  3.115985  0  0  -0.392079  -0.474431  0  3.106742  0
N  N69  1  0.00310567  0.28523531  0.58473179  1  0  -0.540617  0  2.842465  0  0  -0.486387  0  3.110468  0  0  -0.504772  0  3.11578  0  0  -0.392114  -0.474463  0  3.106531  0
N  N70  1  0.34834378  0.59448313  0.39413725  1  0  -0.539864  0  2.923726  0  0  -0.478363  0  3.200087  0  0  -0.501981  0  3.209908  0  0  -0.392413  -0.462537  0  3.193645  0
N  N71  1  0.65166320  0.40551115  0.60586927  1  0  -0.540013  0  2.923708  0  0  -0.478515  0  3.200061  0  0  -0.502132  0  3.209881  0  0  -0.392493  -0.462689  0  3.193618  0
