# generated using pymatgen
data_MnH19C22N5O4
_symmetry_space_group_name_H-M   'P 1'
_cell_length_a   10.22273389
_cell_length_b   11.36528544
_cell_length_c   11.46380313
_cell_angle_alpha   113.22686577
_cell_angle_beta   100.09048416
_cell_angle_gamma   113.16818750
_symmetry_Int_Tables_number   1
_chemical_formula_structural   MnH19C22N5O4
_chemical_formula_sum   'Mn2 H38 C44 N10 O8'
_cell_volume   1035.65778360
_cell_formula_units_Z   2
loop_
 _symmetry_equiv_pos_site_id
 _symmetry_equiv_pos_as_xyz
  1  'x, y, z'
loop_
 _atom_site_type_symbol
 _atom_site_label
 _atom_site_symmetry_multiplicity
 _atom_site_fract_x
 _atom_site_fract_y
 _atom_site_fract_z
 _atom_site_occupancy
 _atom_site_pbe_cm5_charge
 _atom_site_pbe_ddec_charge
 _atom_site_pbe_ddec_spin_density
 _atom_site_pbe_ddec_sum_bond_order
 _atom_site_pbe_magmom
Mn  Mn0  1  0.84508307  0.03179809  0.40233668  1  0.596752  0.865407  -4.680869  2.385451  -4.464
Mn  Mn1  1  0.15492205  0.96820465  0.59766649  1  0.596763  0.865449  -4.680862  2.385359  -4.464
H  H2  1  0.10077093  0.07970997  0.12949570  1  0.10082  0.107669  2.7e-05  1.049883  0.0
H  H3  1  0.89922989  0.92028828  0.87050509  1  0.100809  0.107663  2.7e-05  1.049932  0.0
H  H4  1  0.52584225  0.10277518  0.10456883  1  0.101294  0.11057  -0.000156  1.032784  0.0
H  H5  1  0.47415957  0.89722308  0.89543212  1  0.101288  0.110563  -0.000156  1.032761  0.0
H  H6  1  0.37748200  0.02222399  0.40820760  1  0.109025  0.128732  0.000557  1.039646  0.0
H  H7  1  0.62251955  0.97777760  0.59179546  1  0.10903  0.128752  0.000557  1.039669  0.0
H  H8  1  0.84652692  0.27154017  0.65456111  1  0.125326  0.09782  -0.000521  1.006607  -0.001
H  H9  1  0.15347401  0.72846025  0.34543792  1  0.125336  0.097844  -0.000521  1.006628  -0.001
H  H10  1  0.17666266  0.71292373  0.75119676  1  0.109205  0.11678  0.000247  1.033528  0.0
H  H11  1  0.82334149  0.28707902  0.24880801  1  0.109211  0.116746  0.000247  1.033555  0.0
H  H12  1  0.27124769  0.59468105  0.58178152  1  0.109246  0.116299  -0.000331  0.989242  0.0
H  H13  1  0.72875543  0.40532165  0.41822133  1  0.109249  0.11633  -0.000331  0.989188  0.0
H  H14  1  0.14096912  0.31496253  0.44822248  1  0.11607  0.085426  -0.000313  1.010887  0.0
H  H15  1  0.85903038  0.68503897  0.55177674  1  0.116075  0.085444  -0.000313  1.010855  0.0
H  H16  1  0.89958505  0.73975747  0.91220833  1  0.096151  0.136723  -6.6e-05  1.042751  0.0
H  H17  1  0.10041328  0.26024178  0.08778899  1  0.096157  0.136739  -6.6e-05  1.042731  0.0
H  H18  1  0.98289178  0.74726689  0.78747207  1  0.095643  0.142582  0.000221  1.021915  0.0
H  H19  1  0.01710741  0.25273017  0.21252453  1  0.095611  0.142565  0.000221  1.021872  0.0
H  H20  1  0.09849596  0.80297054  0.95448499  1  0.099292  0.152898  -1.2e-05  1.00827  0.0
H  H21  1  0.90150293  0.19702981  0.04551196  1  0.099287  0.152873  -1.2e-05  1.008287  0.0
H  H22  1  0.55994707  0.24388052  0.87338618  1  0.101033  0.150333  0.000281  1.007263  0.0
H  H23  1  0.44004771  0.75611759  0.12661191  1  0.100982  0.150281  0.000281  1.007202  0.0
H  H24  1  0.68104108  0.28055006  0.02892682  1  0.091016  0.132606  -0.000104  1.025136  0.0
H  H25  1  0.31895586  0.71945032  0.97107334  1  0.091021  0.132589  -0.000104  1.025146  0.0
H  H26  1  0.74923145  0.27668995  0.89374450  1  0.100605  0.150984  -5.3e-05  1.018666  0.0
H  H27  1  0.25076632  0.72330820  0.10625318  1  0.100616  0.150991  -5.3e-05  1.018644  0.0
H  H28  1  0.50374068  0.34697675  0.08607748  1  0.103158  0.10363  4e-06  1.053754  0.0
H  H29  1  0.49625522  0.65302357  0.91391988  1  0.103158  0.103639  4e-06  1.053741  0.0
H  H30  1  0.42846839  0.48728568  0.26086371  1  0.11062  0.120657  -0.00033  0.979067  0.0
H  H31  1  0.57152706  0.51271572  0.73913313  1  0.110615  0.12067  -0.00033  0.979073  0.0
H  H32  1  0.56970560  0.76673189  0.37959728  1  0.122615  0.093589  -0.00054  1.002277  -0.001
H  H33  1  0.43029233  0.23326849  0.62040215  1  0.122604  0.093584  -0.00054  1.002233  -0.001
H  H34  1  0.85822143  0.76859047  0.16633486  1  0.118686  0.079841  -0.000313  1.043953  0.0
H  H35  1  0.14178054  0.23141000  0.83366696  1  0.118688  0.079839  -0.000313  1.043976  0.0
H  H36  1  0.31637261  0.06214742  0.91415771  1  0.28913  0.298267  0.000121  1.013059  0.0
H  H37  1  0.68362919  0.93785082  0.08584148  1  0.289141  0.298305  0.000121  1.013014  0.0
H  H38  1  0.17225656  0.08620954  0.94219779  1  0.294359  0.287222  0.000206  0.973693  0.0
H  H39  1  0.82774681  0.91378983  0.05780207  1  0.294332  0.287195  0.000206  0.973693  0.0
C  C40  1  0.10847887  0.02581952  0.33598252  1  0.22485  0.585673  -0.022617  4.173879  -0.02
C  C41  1  0.89152540  0.97418541  0.66402136  1  0.224843  0.585665  -0.022619  4.173712  -0.02
C  C42  1  0.22861361  0.05236015  0.27619759  1  -0.026399  -0.032623  0.000121  4.043774  0.0
C  C43  1  0.77138817  0.94763807  0.72380072  1  -0.026401  -0.032627  0.000121  4.043785  0.0
C  C44  1  0.20471867  0.07719785  0.16635331  1  -0.099559  -0.221524  -0.004979  3.944578  -0.004
C  C45  1  0.79528258  0.92279930  0.83364712  1  -0.099519  -0.221453  -0.00498  3.944516  -0.004
C  C46  1  0.30853451  0.09301139  0.10017448  1  0.091114  0.295252  0.000821  4.109206  0.001
C  C47  1  0.69146372  0.90698569  0.89982461  1  0.091125  0.295238  0.000822  4.109164  0.001
C  C48  1  0.44160850  0.08961719  0.15213144  1  -0.097601  -0.216192  -0.005225  3.914116  -0.004
C  C49  1  0.55839072  0.91037991  0.84786780  1  -0.097622  -0.216198  -0.005225  3.914122  -0.004
C  C50  1  0.46640230  0.06595989  0.26295432  1  -0.02337  -0.019799  0.002296  4.033959  0.002
C  C51  1  0.53359750  0.93403833  0.73704544  1  -0.023334  -0.019763  0.002296  4.033983  0.002
C  C52  1  0.35944616  0.04553720  0.32515511  1  -0.094343  -0.153115  -0.004912  3.943956  -0.004
C  C53  1  0.64055567  0.95446107  0.67484671  1  -0.09434  -0.15316  -0.004913  3.944102  -0.004
C  C54  1  0.60510402  0.05562270  0.31107180  1  0.202494  0.545713  -0.010288  4.21324  -0.006
C  C55  1  0.39489836  0.94437666  0.68892879  1  0.202579  0.545896  -0.010288  4.212991  -0.006
C  C56  1  0.94129833  0.34657168  0.64160229  1  0.064011  0.070711  -0.005591  3.881261  -0.005
C  C57  1  0.05870421  0.65342991  0.35840005  1  0.064039  0.07073  -0.005591  3.881298  -0.005
C  C58  1  0.00563378  0.50148261  0.72076890  1  -0.004123  -0.025236  0.000301  3.970007  0.0
C  C59  1  0.99436774  0.49851894  0.27923240  1  -0.004131  -0.025248  0.000301  3.970009  0.0
C  C60  1  0.12473952  0.59215436  0.69666024  1  -0.067277  -0.074363  -0.005279  3.924752  -0.004
C  C61  1  0.87526401  0.40784724  0.30334138  1  -0.067304  -0.074298  -0.005278  3.924766  -0.004
C  C62  1  0.17704641  0.52641535  0.60024406  1  -0.086972  -0.129968  0.00096  4.003926  0.001
C  C63  1  0.82295554  0.47358511  0.39975688  1  -0.086973  -0.13006  0.00096  4.003859  0.001
C  C64  1  0.10613612  0.37202776  0.52657596  1  0.050967  0.089564  -0.006373  3.946262  -0.005
C  C65  1  0.89386338  0.62797373  0.47342327  1  0.050972  0.089597  -0.006373  3.946238  -0.005
C  C66  1  0.94847590  0.56657326  0.82368913  1  0.148025  0.272509  -0.000714  3.908943  -0.001
C  C67  1  0.05152505  0.43342718  0.17631166  1  0.148089  0.272565  -0.000714  3.908854  -0.001
C  C68  1  0.98308424  0.72248487  0.87073791  1  -0.244649  -0.470406  -0.000147  3.933506  0.0
C  C69  1  0.01691566  0.27751551  0.12926008  1  -0.244628  -0.470405  -0.000147  3.933461  0.0
C  C70  1  0.73919020  0.47190561  0.00665393  1  0.149352  0.269483  -0.000954  3.932092  -0.001
C  C71  1  0.26080874  0.52809480  0.99334654  1  0.149346  0.269467  -0.000954  3.931997  -0.001
C  C72  1  0.68044229  0.30922781  0.94805435  1  -0.243786  -0.464612  -0.000188  3.932251  0.0
C  C73  1  0.31955448  0.69077033  0.05194317  1  -0.243745  -0.464555  -0.000188  3.932212  0.0
C  C74  1  0.69000230  0.54745216  0.11203754  1  -0.004343  -0.026482  0.000483  3.960871  0.0
C  C75  1  0.30999607  0.45254713  0.88796241  1  -0.004373  -0.026525  0.000483  3.960963  0.0
C  C76  1  0.56856757  0.46842739  0.14127428  1  -0.065082  -0.062432  -0.004531  3.920543  -0.004
C  C77  1  0.43142776  0.53157181  0.85872256  1  -0.065092  -0.062469  -0.004531  3.920564  -0.004
C  C78  1  0.52447220  0.54658626  0.23852036  1  -0.086072  -0.128427  0.000834  3.991863  0.0
C  C79  1  0.47552471  0.45341407  0.76147715  1  -0.086057  -0.128403  0.000834  3.991828  0.0
C  C80  1  0.60177660  0.70107927  0.30451072  1  0.049906  0.086592  -0.005286  3.934306  -0.005
C  C81  1  0.39822031  0.29892108  0.69548768  1  0.049905  0.086569  -0.005286  3.934352  -0.005
C  C82  1  0.76241769  0.70365475  0.18516583  1  0.064264  0.082751  -0.006101  3.892605  -0.005
C  C83  1  0.23758226  0.29634568  0.81483480  1  0.064262  0.082743  -0.006102  3.892702  -0.005
N  N84  1  0.28241124  0.11310670  0.98860881  1  -0.601699  -0.617291  0.000187  3.307613  0.0
N  N85  1  0.71759056  0.88689155  0.01139126  1  -0.601695  -0.617329  0.000187  3.307541  0.0
N  N86  1  0.98878958  0.28325206  0.54568242  1  -0.311311  -0.233162  -0.032729  3.497612  -0.018
N  N87  1  0.01120934  0.71674832  0.45431630  1  -0.311333  -0.233216  -0.032728  3.4977  -0.018
N  N88  1  0.87270485  0.48385180  0.86898162  1  -0.209447  -0.212973  7.2e-05  3.278324  0.0
N  N89  1  0.12729510  0.51614862  0.13101901  1  -0.209487  -0.213023  7.2e-05  3.278255  0.0
N  N90  1  0.82876261  0.55506350  0.96882900  1  -0.212647  -0.223668  0.000478  3.320029  0.0
N  N91  1  0.17123517  0.44493467  0.03116956  1  -0.212639  -0.22362  0.000478  3.319896  0.0
N  N92  1  0.71999677  0.77896498  0.27824928  1  -0.315692  -0.248397  -0.031971  3.504309  -0.015
N  N93  1  0.28000420  0.22103547  0.72175238  1  -0.315666  -0.248358  -0.031971  3.504397  -0.015
O  O94  1  0.99907274  0.04808019  0.29714661  1  -0.3133  -0.558177  -0.0497  2.317077  -0.033
O  O95  1  0.00093383  0.95192919  0.70285933  1  -0.313294  -0.558172  -0.049701  2.31696  -0.033
O  O96  1  0.11715518  0.97970761  0.41951468  1  -0.305981  -0.55862  -0.055782  2.439111  -0.034
O  O97  1  0.88284431  0.02029388  0.58048455  1  -0.306012  -0.558654  -0.055784  2.439084  -0.034
O  O98  1  0.62639805  0.02994272  0.40929775  1  -0.305746  -0.530226  -0.036519  2.225515  -0.028
O  O99  1  0.37360692  0.97005780  0.59070366  1  -0.305786  -0.530305  -0.036518  2.225449  -0.028
O  O100  1  0.70106684  0.07143238  0.25164027  1  -0.31564  -0.568583  -0.034722  2.246145  -0.026
O  O101  1  0.29893180  0.92856359  0.74835758  1  -0.315695  -0.568697  -0.034723  2.246036  -0.026
