# generated using pymatgen
data_Zn2H35C46N3O13
_symmetry_space_group_name_H-M   'P 1'
_cell_length_a   13.34148690
_cell_length_b   13.95270453
_cell_length_c   15.27241766
_cell_angle_alpha   90.25532763
_cell_angle_beta   92.60277019
_cell_angle_gamma   111.90306369
_symmetry_Int_Tables_number   1
_chemical_formula_structural   Zn2H35C46N3O13
_chemical_formula_sum   'Zn2 H35 C46 N3 O13'
_cell_volume   2634.31930694
_cell_formula_units_Z   1
loop_
 _symmetry_equiv_pos_site_id
 _symmetry_equiv_pos_as_xyz
  1  'x, y, z'
loop_
 _atom_site_type_symbol
 _atom_site_label
 _atom_site_symmetry_multiplicity
 _atom_site_fract_x
 _atom_site_fract_y
 _atom_site_fract_z
 _atom_site_occupancy
 _atom_site_pbe_bader_charge
 _atom_site_pbe_bader_spin_density
 _atom_site_pbe_cm5_charge
 _atom_site_pbe_ddec_charge
 _atom_site_pbe_ddec_spin_density
 _atom_site_pbe_ddec_sum_bond_order
 _atom_site_pbe_magmom
Zn  Zn0  1  0.49296824  0.39729711  0.49748892  1  1.287833  0  0.672783  0.819562  0  2.429515  0
Zn  Zn1  1  0.50832196  0.60380521  0.49636067  1  1.283521  0  0.67085  0.820734  0  2.386525  0
H  H2  1  0.86228357  0.74598247  0.59258956  1  0.101055  0  0.105495  0.107214  0  1.015537  0
H  H3  1  0.20254866  0.70676222  0.64826710  1  0.064769  0  0.105256  0.104008  0  0.991673  0
H  H4  1  0.05317809  0.77226348  0.63847978  1  0.021658  0  0.101123  0.098923  0  1.00165  0
H  H5  1  0.80686386  0.44120280  0.49835212  1  0.094277  0  0.107152  0.11687  0  1.01755  0
H  H6  1  0.13624530  0.24404160  0.46436268  1  0.107808  0  0.118957  0.13445  0  0.99588  0
H  H7  1  0.85812784  0.32066473  0.50413508  1  0.1141  0  0.114698  0.124498  0  1.014149  0
H  H8  1  0.27954491  0.58162718  0.59977825  1  0.086172  0  0.108724  0.124985  0  1.016679  0
H  H9  1  0.45804787  0.33325881  0.05372423  1  0.045586  0  0.099198  0.09936  0  1.005575  0
H  H10  1  0.46647815  0.33468402  0.21715032  1  0.102138  0  0.100533  0.100524  0  1.010073  0
H  H11  1  0.48683348  0.64845537  0.22257999  1  0.109991  0  0.104457  0.109368  0  0.997333  0
H  H12  1  0.47244567  0.64686094  0.05909777  1  0.052841  0  0.100569  0.101332  0  1.003317  0
H  H13  1  0.58104674  0.65124131  0.94552279  1  0.063087  0  0.105326  0.120969  0  1.005592  0
H  H14  1  0.35683919  0.33351155  0.92483061  1  0.064696  0  0.10503  0.120818  0  1.00521  0
H  H15  1  0.34582141  0.69619376  0.44160678  1  0.165493  0  0.131449  0.125635  0  0.981415  0
H  H16  1  0.66140143  0.81297608  0.54646600  1  0.128824  0  0.126209  0.102959  0  0.995627  0
H  H17  1  0.66565869  0.99464465  0.54665079  1  0.14035  0  0.113289  0.127279  0  1.002657  0
H  H18  1  0.56349626  0.09002959  0.62888706  1  0.097991  0  0.117077  0.125219  0  0.980895  0
H  H19  1  0.55655761  0.26783089  0.62623850  1  0.137024  0  0.131492  0.112593  0  0.973466  0
H  H20  1  0.44031620  0.22809376  0.36778723  1  0.143937  0  0.127504  0.104801  0  0.991815  0
H  H21  1  0.43705722  0.04674234  0.35996029  1  0.109721  0  0.119851  0.131595  0  0.979593  0
H  H22  1  0.72323363  0.63103315  0.72431197  1  0.042035  0  0.094177  0.057816  0  0.98644  0
H  H23  1  0.74583368  0.66513198  0.83850357  1  0.022898  0  0.093786  0.049078  0  0.975092  0
H  H24  1  0.77590751  0.84979853  0.80249526  1  0.035244  0  0.090386  0.122699  0  0.996808  0
H  H25  1  0.86912353  0.80730683  0.74997921  1  0.022225  0  0.090613  0.121138  0  1.005618  0
H  H26  1  0.75573100  0.81539435  0.68865384  1  0.034979  0  0.088774  0.120273  0  1.015795  0
H  H27  1  0.24612683  0.36701883  0.69673678  1  0.041566  0  0.092277  0.052326  0  0.988417  0
H  H28  1  0.20910809  0.29954660  0.79662768  1  0.038066  0  0.090966  0.043667  0  0.977923  0
H  H29  1  0.20474003  0.13624710  0.72087403  1  0.032558  0  0.085569  0.115741  0  1.002888  0
H  H30  1  0.11328073  0.18573374  0.66720160  1  0.038702  0  0.08782  0.119807  0  1.004499  0
H  H31  1  0.23974861  0.20592440  0.62134546  1  0.057914  0  0.089657  0.133009  0  1.011199  0
H  H32  1  0.29204971  0.94834465  0.53727679  1  0.017481  0  0.093714  0.048824  0  0.992743  0
H  H33  1  0.21185226  0.81321116  0.52593613  1  0.071542  0  0.092984  0.048531  0  1.027639  0
H  H34  1  0.11429756  0.84899284  0.39192766  1  0.048998  0  0.099289  0.13739  0  0.980112  0
H  H35  1  0.09873332  0.91578775  0.48642144  1  0.031486  0  0.097811  0.134588  0  0.988956  0
H  H36  1  0.19113140  0.98408183  0.40716543  1  0.044528  0  0.093415  0.127204  0  0.994124  0
C  C37  1  0.48890007  0.49398848  0.32757417  1  1.55254  0  0.215005  0.599423  0  4.161506  0
C  C38  1  0.29018896  0.43052616  0.50043214  1  1.617902  0  0.214382  0.588674  0  4.185376  0
C  C39  1  0.49452620  0.49804998  0.66587216  1  1.599395  0  0.215177  0.62617  0  4.170757  0
C  C40  1  0.70871384  0.57016681  0.51670442  1  1.574135  0  0.213393  0.587883  0  4.180692  0
C  C41  1  0.99930417  0.69940435  0.60761414  1  0.04364  0  -0.091707  -0.142416  0  4.005018  0
C  C42  1  0.82459860  0.59066187  0.54334652  1  0.031998  0  -0.015094  -0.024279  0  3.971801  0
C  C43  1  0.10301833  0.30011131  0.48544283  1  0.077679  0  -0.074617  -0.143278  0  3.95999  0
C  C44  1  0.99079597  0.27347688  0.48662002  1  0.134404  0  0.070158  0.060556  0  3.980261  0
C  C45  1  0.94574693  0.34503235  0.50722860  1  0.059548  0  -0.071421  -0.156017  0  3.935945  0
C  C46  1  0.01340285  0.44613189  0.53379984  1  -0.055176  0  0.004071  0.044765  0  3.947395  0
C  C47  1  0.12755505  0.47157396  0.54250130  1  0.035391  0  0.009458  0.070454  0  3.940479  0
C  C48  1  0.97048021  0.52524654  0.55266400  1  -0.09371  0  -0.002626  0.032216  0  3.958643  0
C  C49  1  0.04047169  0.62121654  0.59201569  1  0.006999  0  -0.005847  0.075222  0  4.022882  0
C  C50  1  0.15117513  0.63643433  0.61235056  1  -0.117588  0  -0.083235  -0.123174  0  4.006213  0
C  C51  1  0.19420305  0.56675443  0.58599633  1  0.026365  0  -0.085421  -0.124731  0  3.977757  0
C  C52  1  0.86302443  0.51221117  0.52985398  1  -0.005174  0  -0.077711  -0.128574  0  3.931676  0
C  C53  1  0.89370021  0.68526805  0.58271168  1  -0.09294  0  -0.0825  -0.092672  0  3.996561  0
C  C54  1  0.17086412  0.39915659  0.51127987  1  -0.028856  0  -0.002151  -0.046897  0  3.910828  0
C  C55  1  0.46186824  0.40189041  0.09042302  1  0.020813  0  -0.094016  -0.137018  0  3.992219  0
C  C56  1  0.46761439  0.40259030  0.18160784  1  -0.092325  0  -0.087294  -0.089491  0  4.003574  0
C  C57  1  0.47830646  0.49195393  0.22961752  1  -0.014279  0  -0.020552  -0.037849  0  3.973602  0
C  C58  1  0.47993653  0.57980302  0.18462714  1  -0.020715  0  -0.084793  -0.085347  0  3.991091  0
C  C59  1  0.47292247  0.57869128  0.09351050  1  -0.059483  0  -0.093613  -0.138703  0  3.991038  0
C  C60  1  0.46571881  0.49037074  0.04468731  1  -0.023702  0  -0.004962  0.076455  0  3.990753  0
C  C61  1  0.53290052  0.58212907  0.90694339  1  0.01454  0  -0.10692  -0.267027  0  3.986315  0
C  C62  1  0.54091124  0.58431985  0.81628598  1  0.492925  0  0.081651  0.252577  0  4.07261  0
C  C63  1  0.48446615  0.49603738  0.76329123  1  -0.006076  0  -0.02728  -0.227122  0  3.916674  0
C  C64  1  0.41832421  0.40611683  0.80482784  1  0.498725  0  0.081891  0.250863  0  4.070012  0
C  C65  1  0.40979777  0.40444109  0.89559773  1  -0.009166  0  -0.10772  -0.269616  0  3.985844  0
C  C66  1  0.46781771  0.49217510  0.94810174  1  -0.062265  0  -0.00828  0.107087  0  4.044171  0
C  C67  1  0.40982042  0.86229904  0.46256705  1  0.577649  0  0.092555  0.163926  0  4.060077  0
C  C68  1  0.41491047  0.76421109  0.46471397  1  0.482166  0  0.052329  -0.005988  0  3.891488  0
C  C69  1  0.59133336  0.83028369  0.52427414  1  0.460008  0  0.056459  0.092169  0  3.920687  0
C  C70  1  0.59225205  0.93010011  0.52521714  1  -0.006814  0  -0.073546  -0.152171  0  3.954128  0
C  C71  1  0.50053043  0.94812163  0.49412099  1  -0.075142  0  0.009205  0.002045  0  3.970149  0
C  C72  1  0.53582598  0.11771637  0.56952630  1  -0.000964  0  -0.07457  -0.17508  0  3.940726  0
C  C73  1  0.53260717  0.21611086  0.56878207  1  0.462115  0  0.062691  0.106415  0  3.910274  0
C  C74  1  0.46568006  0.19294883  0.42385053  1  0.439385  0  0.059554  0.099562  0  3.918881  0
C  C75  1  0.46477406  0.09324094  0.41999022  1  0.019747  0  -0.071839  -0.16559  0  3.932495  0
C  C76  1  0.50022177  0.05377532  0.49433246  1  -0.016054  0  0.019299  0.12493  0  3.990829  0
C  C77  1  0.71761859  0.68552011  0.77475454  1  0.432752  0  -0.067459  0.094417  0  3.915314  0
C  C78  1  0.78336798  0.79618971  0.75265927  1  -0.049181  0  -0.244746  -0.393239  0  3.992203  0
C  C79  1  0.25004090  0.30143297  0.73502072  1  0.395782  0  -0.067675  0.101833  0  3.91585  0
C  C80  1  0.19911719  0.20100860  0.68300823  1  -0.06424  0  -0.249088  -0.398004  0  3.987433  0
C  C81  1  0.24546016  0.88571322  0.49005894  1  0.386283  0  -0.067076  0.087618  0  3.909417  0
C  C82  1  0.15762479  0.91020518  0.44064126  1  -0.043229  0  -0.240354  -0.392374  0  3.966042  0
N  N83  1  0.50395132  0.74902630  0.49473435  1  -1.236615  0  -0.317206  -0.176784  0  3.546923  0
N  N84  1  0.49789617  0.25274083  0.49710148  1  -1.233575  0  -0.319882  -0.198055  0  3.526323  0
N  N85  1  0.91878512  0.16642959  0.46561416  1  0.376981  0  0.053046  0.520014  0  4.203287  0
O  O86  1  0.46538564  0.40733695  0.36518281  1  -1.171822  0  -0.320384  -0.556922  0  2.333907  0
O  O87  1  0.52076228  0.58223777  0.36627821  1  -1.172476  0  -0.32051  -0.546461  0  2.320933  0
O  O88  1  0.33112305  0.36307625  0.51676822  1  -1.166298  0  -0.30856  -0.531867  0  2.309952  0
O  O89  1  0.33943199  0.52129932  0.47361146  1  -1.170111  0  -0.310597  -0.548679  0  2.33099  0
O  O90  1  0.52440179  0.43071957  0.63109004  1  -1.157418  0  -0.314465  -0.550991  0  2.309685  0
O  O91  1  0.47222921  0.56762511  0.62520350  1  -1.155658  0  -0.31352  -0.547762  0  2.322256  0
O  O92  1  0.65457164  0.48121443  0.48314855  1  -1.177423  0  -0.321298  -0.554081  0  2.353057  0
O  O93  1  0.67196986  0.64096681  0.53058286  1  -1.157704  0  -0.313578  -0.542651  0  2.282835  0
O  O94  1  0.60622283  0.67526672  0.77970210  1  -1.079443  0  -0.212545  -0.24688  0  2.480669  0
O  O95  1  0.36205200  0.31752157  0.75549578  1  -1.078293  0  -0.211509  -0.248084  0  2.484575  0
O  O96  1  0.31824522  0.87257245  0.42687704  1  -1.069567  0  -0.202346  -0.242231  0  2.501438  0
O  O97  1  0.96050933  0.10445598  0.44369405  1  -0.46647  0  -0.149985  -0.349506  0  1.862296  0
O  O98  1  0.81963463  0.14285166  0.47219272  1  -0.493009  0  -0.158086  -0.373451  0  1.900866  0
