# generated using pymatgen
data_Cu3H42C38N2O15
_symmetry_space_group_name_H-M   'P 1'
_cell_length_a   8.82409959
_cell_length_b   8.82521974
_cell_length_c   31.57342129
_cell_angle_alpha   98.67951491
_cell_angle_beta   94.34543239
_cell_angle_gamma   100.87361027
_symmetry_Int_Tables_number   1
_chemical_formula_structural   Cu3H42C38N2O15
_chemical_formula_sum   'Cu6 H84 C76 N4 O30'
_cell_volume   2373.17079432
_cell_formula_units_Z   2
loop_
 _symmetry_equiv_pos_site_id
 _symmetry_equiv_pos_as_xyz
  1  'x, y, z'
loop_
 _atom_site_type_symbol
 _atom_site_label
 _atom_site_symmetry_multiplicity
 _atom_site_fract_x
 _atom_site_fract_y
 _atom_site_fract_z
 _atom_site_occupancy
 _atom_site_pbe_bader_charge
 _atom_site_pbe_bader_spin_density
 _atom_site_pbe_cm5_charge
 _atom_site_pbe_ddec_charge
 _atom_site_pbe_ddec_spin_density
 _atom_site_pbe_ddec_sum_bond_order
 _atom_site_pbe_magmom
Cu  Cu0  1  0.32951755  0.08125230  0.75014620  1  1.098348  0.56755  0.699091  0.886014  0.730721  2.259838  0.563
Cu  Cu1  1  0.67052749  0.91871962  0.24985497  1  1.09828  -0.567582  0.699046  0.885992  -0.730742  2.259704  -0.563
Cu  Cu2  1  0.34171345  0.42035337  0.78206917  1  1.070896  0.561221  0.701123  0.821413  0.727568  2.131057  0.56
Cu  Cu3  1  0.63897516  0.05845052  0.71760991  1  1.074473  -0.537577  0.706282  0.826055  -0.698336  2.139143  -0.537
Cu  Cu4  1  0.65832758  0.57964668  0.21793816  1  1.071073  -0.561204  0.701179  0.821237  -0.727544  2.130998  -0.56
Cu  Cu5  1  0.36105982  0.94156156  0.28238211  1  1.07437  0.537501  0.706155  0.825767  0.698263  2.139261  0.536
H  H6  1  0.09213749  0.25673317  0.12446679  1  0.070334  -4.2e-05  0.100453  0.096324  -4e-06  1.026153  0.0
H  H7  1  0.13291306  0.46789184  0.37574920  1  0.086255  1.1e-05  0.10063  0.096971  -1e-05  1.026227  0.0
H  H8  1  0.90783356  0.74322846  0.87553535  1  0.070587  4.2e-05  0.100502  0.096417  4e-06  1.025977  0.0
H  H9  1  0.86707231  0.53213786  0.62425013  1  0.085909  -1.1e-05  0.100619  0.097012  1e-05  1.026141  0.0
H  H10  1  0.03257323  0.08172361  0.05233623  1  0.091612  -9.8e-05  0.100995  0.114749  -3.7e-05  1.053518  0.0
H  H11  1  0.02962341  0.48010239  0.44782441  1  0.08379  9.9e-05  0.100897  0.114605  4e-05  1.054844  0.0
H  H12  1  0.96741515  0.91823016  0.94766542  1  0.090982  9.8e-05  0.100976  0.114598  3.7e-05  1.053616  0.0
H  H13  1  0.97036290  0.51990857  0.55217540  1  0.083681  -9.9e-05  0.10084  0.114539  -4e-05  1.054803  0.0
H  H14  1  0.51855625  0.14932258  0.03699869  1  0.059575  -1.5e-05  0.104833  0.118681  3e-06  1.018553  0.0
H  H15  1  0.11106854  0.98122138  0.46307015  1  0.064317  1.2e-05  0.104848  0.118637  -4e-06  1.019065  0.0
H  H16  1  0.48142485  0.85067687  0.96299556  1  0.059537  1.5e-05  0.104873  0.118788  -3e-06  1.018339  0.0
H  H17  1  0.88891998  0.01880303  0.53693699  1  0.064737  -1.3e-05  0.104811  0.118569  4e-06  1.019182  0.0
H  H18  1  0.57949584  0.31518263  0.11090397  1  0.073475  2.3e-05  0.108195  0.115019  3.4e-05  1.001626  0.0
H  H19  1  0.20354018  0.96866945  0.38923314  1  0.090591  -2.1e-05  0.108344  0.1148  -2.4e-05  1.001461  0.0
H  H20  1  0.42049313  0.68482052  0.88909121  1  0.073533  -2.3e-05  0.108219  0.115111  -3.5e-05  1.001427  0.0
H  H21  1  0.79643800  0.03135554  0.61077068  1  0.091031  2.1e-05  0.108369  0.114831  2.5e-05  1.001312  0.0
H  H22  1  0.20730621  0.81896877  0.93140555  1  0.085573  0.000183  0.113381  0.12753  9.1e-05  0.97457  0.0
H  H23  1  0.88709264  0.77627565  0.56875574  1  0.061923  -0.000144  0.113511  0.128038  -8.3e-05  0.975408  0.0
H  H24  1  0.79266791  0.18102489  0.06859456  1  0.085645  -0.000182  0.113389  0.127584  -9.1e-05  0.97462  0.0
H  H25  1  0.11292028  0.22373834  0.43124730  1  0.061859  0.000145  0.113452  0.127922  8.3e-05  0.975425  0.0
H  H26  1  0.23584591  0.89321961  0.85881789  1  0.090984  0.000282  0.106926  0.112991  0.00025  1.014837  0.0
H  H27  1  0.03451542  0.87798953  0.64124815  1  0.109985  0.00031  0.106775  0.112098  0.000261  1.015628  0.0
H  H28  1  0.76415302  0.10676509  0.14117975  1  0.091666  -0.000282  0.106991  0.113123  -0.00025  1.014798  0.0
H  H29  1  0.96551726  0.12203263  0.35875249  1  0.109817  -0.000309  0.106766  0.112049  -0.000261  1.015679  0.0
H  H30  1  0.33909639  0.37999134  0.91604366  1  0.108232  0.000219  0.107011  0.112579  0.000154  0.993815  0.0
H  H31  1  0.46350738  0.92287401  0.58376428  1  0.067606  -0.000209  0.106982  0.113187  -0.000178  0.993069  0.0
H  H32  1  0.66091210  0.62000213  0.08394962  1  0.108125  -0.000218  0.107034  0.112584  -0.000154  0.994086  0.0
H  H33  1  0.53651261  0.07712797  0.41623609  1  0.06786  0.000209  0.106974  0.113212  0.000178  0.99299  0.0
H  H34  1  0.31033764  0.30682984  0.98896237  1  0.084147  0.000151  0.105895  0.122261  7.3e-05  1.006926  0.0
H  H35  1  0.31686712  0.82089309  0.51094483  1  0.090997  0.000147  0.10599  0.12241  7.7e-05  1.006756  0.0
H  H36  1  0.68965397  0.69317214  0.01103070  1  0.084287  -0.000151  0.105965  0.122295  -7.3e-05  1.006901  0.0
H  H37  1  0.68314308  0.17911428  0.48905647  1  0.090981  -0.000147  0.10596  0.122454  -7.7e-05  1.006768  0.0
H  H38  1  0.10945869  0.19453031  0.67911262  1  0.071847  0.006952  0.101681  0.085716  0.003578  0.982458  0.005
H  H39  1  0.51343181  0.92873423  0.82024102  1  0.059531  -0.006128  0.101656  0.085049  -0.003344  0.983507  -0.004
H  H40  1  0.89054443  0.80545402  0.32089164  1  0.071986  -0.006944  0.101699  0.085727  -0.003574  0.982432  -0.005
H  H41  1  0.48657746  0.07125018  0.17975756  1  0.059576  0.006125  0.101685  0.085067  0.003342  0.983536  0.004
H  H42  1  0.31012805  0.28683753  0.68577586  1  0.052122  0.002286  0.096347  0.066775  0.000886  0.990454  0.002
H  H43  1  0.60096716  0.12362208  0.81486248  1  0.052926  0.000467  0.096002  0.06625  0.000246  0.99033  0.0
H  H44  1  0.68986236  0.71317837  0.31422466  1  0.052191  -0.002283  0.096402  0.066851  -0.000885  0.990161  -0.002
H  H45  1  0.39906126  0.87636924  0.18513784  1  0.052858  -0.000463  0.095992  0.066315  -0.000245  0.99024  0.0
H  H46  1  0.14736669  0.48587865  0.67504943  1  0.043729  0.00728  0.106118  0.096003  0.003691  0.968158  0.004
H  H47  1  0.80948372  0.96934484  0.82448442  1  0.047232  -0.003588  0.105491  0.094127  -0.001905  0.96845  -0.002
H  H48  1  0.85261629  0.51410827  0.32496066  1  0.043126  -0.007277  0.106177  0.096075  -0.003688  0.967767  -0.004
H  H49  1  0.19053379  0.03062305  0.17551259  1  0.047032  0.00359  0.105563  0.094146  0.001906  0.968518  0.002
H  H50  1  0.03973904  0.42868901  0.71751432  1  0.061438  -0.000165  0.108401  0.094365  -0.000193  1.013495  0.0
H  H51  1  0.70839779  0.82114116  0.78180916  1  0.039396  8.3e-05  0.108542  0.093396  0.00017  1.015414  0.0
H  H52  1  0.96027168  0.57129507  0.28249166  1  0.061379  0.000165  0.108447  0.094411  0.000193  1.013365  0.0
H  H53  1  0.29161625  0.17885721  0.21818985  1  0.039482  -8.3e-05  0.108488  0.093363  -0.00017  1.015369  0.0
H  H54  1  0.17888512  0.75595765  0.73815101  1  0.05417  0.007794  0.104528  0.085116  0.003796  1.01926  0.005
H  H55  1  0.01712638  0.94073597  0.76215606  1  0.056937  -0.008291  0.104549  0.085688  -0.004235  1.019017  -0.005
H  H56  1  0.82111758  0.24404467  0.26185446  1  0.054058  -0.007796  0.104547  0.085161  -0.003796  1.019145  -0.005
H  H57  1  0.98288677  0.05925445  0.23784186  1  0.057337  0.008294  0.104575  0.085697  0.004237  1.019063  0.005
H  H58  1  0.30230508  0.75204194  0.78461760  1  0.08791  0.001304  0.116558  0.11746  0.000379  0.987543  0.001
H  H59  1  0.96795028  0.01737043  0.71554207  1  0.128995  -0.001334  0.117208  0.118699  -0.000489  0.987551  -0.001
H  H60  1  0.69769376  0.24795688  0.21538745  1  0.088015  -0.001302  0.116584  0.117499  -0.000378  0.987659  -0.001
H  H61  1  0.03205187  0.98262405  0.28445551  1  0.129048  0.001334  0.117244  0.118768  0.000489  0.987445  0.001
H  H62  1  0.02997598  0.74397533  0.79755118  1  0.032969  -0.00023  0.095599  0.058801  -0.000109  0.9998  0.0
H  H63  1  0.94765389  0.73246236  0.70259142  1  0.024605  0.000383  0.095977  0.059708  0.000239  0.998876  0.0
H  H64  1  0.97003501  0.25601906  0.20245890  1  0.032919  0.00023  0.09562  0.058799  0.000109  0.999766  0.0
H  H65  1  0.05234659  0.26753657  0.29740103  1  0.024793  -0.000383  0.095987  0.059763  -0.000239  0.998797  0.0
H  H66  1  0.96723422  0.56242732  0.76247093  1  0.031497  -0.000124  0.096391  0.055258  -7.8e-05  1.020675  0.0
H  H67  1  0.80082600  0.70403203  0.73757979  1  0.034567  0.000123  0.09682  0.055958  5.5e-05  1.020027  0.0
H  H68  1  0.03275819  0.43757448  0.23753125  1  0.03146  0.000124  0.096379  0.05523  7.8e-05  1.020663  0.0
H  H69  1  0.19918701  0.29595808  0.26241915  1  0.034509  -0.000123  0.096788  0.055909  -5.6e-05  1.020175  0.0
H  H70  1  0.45407311  0.52009542  0.70088275  1  0.059062  0.000833  0.102899  0.120395  0.000285  1.022183  0.001
H  H71  1  0.81651483  0.25243579  0.79862274  1  0.050461  -0.000782  0.103224  0.121564  -0.000283  1.022019  -0.001
H  H72  1  0.54591055  0.47991396  0.29911315  1  0.059052  -0.000833  0.102879  0.120342  -0.000285  1.022247  -0.001
H  H73  1  0.18349234  0.74755487  0.20137982  1  0.050594  0.000782  0.103154  0.121496  0.000283  1.022037  0.001
H  H74  1  0.49295079  0.69161140  0.74140340  1  0.082254  0.00091  0.105118  0.130333  0.000433  1.032224  0.0
H  H75  1  0.94983172  0.25070307  0.75868256  1  0.105714  -0.000596  0.104954  0.130623  -0.00015  1.0319  0.0
H  H76  1  0.50703820  0.30840092  0.25859322  1  0.082121  -0.00091  0.10505  0.130189  -0.000433  1.032396  0.0
H  H77  1  0.05018165  0.74928931  0.24132038  1  0.106043  0.000597  0.104953  0.130614  0.00015  1.031937  0.0
H  H78  1  0.37097539  0.68638219  0.69353906  1  0.055711  0.00616  0.099568  0.11951  0.003138  0.996932  0.003
H  H79  1  0.98979354  0.17671883  0.80674808  1  0.031729  -0.005834  0.09909  0.119065  -0.002939  0.994644  -0.003
H  H80  1  0.62899319  0.31362210  0.30646167  1  0.053965  -0.006166  0.099548  0.119462  -0.003139  0.99681  -0.003
H  H81  1  0.01022093  0.82326459  0.19325336  1  0.031898  0.005835  0.099153  0.11918  0.00294  0.994646  0.003
H  H82  1  0.61701417  0.35745897  0.72405761  1  0.646308  -4.2e-05  0.272333  0.371993  1.9e-05  0.980744  0.0
H  H83  1  0.63268359  0.39424222  0.77563959  1  0.648978  7.5e-05  0.272086  0.371173  2.7e-05  0.982123  0.0
H  H84  1  0.38294813  0.64254861  0.27593922  1  0.64625  4.2e-05  0.272287  0.371915  -1.9e-05  0.980873  0.0
H  H85  1  0.36731898  0.60577900  0.22436266  1  0.648977  -7.5e-05  0.272027  0.370991  -2.7e-05  0.982374  0.0
H  H86  1  0.00443622  0.51405375  0.82951841  1  0.603502  -5.1e-05  0.317348  0.357127  -2e-06  0.904984  0.0
H  H87  1  0.68562301  0.67373917  0.67050750  1  0.606417  0.000114  0.316724  0.356927  4.1e-05  0.906697  0.0
H  H88  1  0.99557300  0.48594701  0.17048887  1  0.603608  5.1e-05  0.317381  0.357174  2e-06  0.904982  0.0
H  H89  1  0.31438606  0.32625245  0.32948751  1  0.606631  -0.000113  0.316671  0.356843  -4e-05  0.906884  0.0
C  C90  1  0.37990163  0.40017621  0.16511704  1  1.567016  -0.003548  0.208525  0.58118  -0.004058  4.194734  -0.003
C  C91  1  0.23521217  0.71501812  0.33509480  1  1.571337  0.003528  0.207304  0.579003  0.004095  4.196377  0.003
C  C92  1  0.62011682  0.59982708  0.83489487  1  1.568025  0.003561  0.208675  0.581237  0.004066  4.195079  0.003
C  C93  1  0.76476228  0.28498843  0.66489885  1  1.57276  -0.003532  0.207259  0.578902  -0.004102  4.196497  -0.003
C  C94  1  0.33989856  0.29703599  0.12187376  1  -0.029415  -0.005176  -0.021851  -0.046444  -0.00362  3.977952  -0.004
C  C95  1  0.17511309  0.71812008  0.37830488  1  -0.000938  0.00509  -0.022169  -0.046969  0.003588  3.980991  0.004
C  C96  1  0.66010173  0.70298866  0.87813458  1  -0.029312  0.005157  -0.021968  -0.046788  0.003609  3.978321  0.004
C  C97  1  0.82489394  0.28189924  0.62169113  1  -0.000715  -0.005084  -0.022106  -0.047156  -0.003584  3.981212  -0.004
C  C98  1  0.18553256  0.23237575  0.10543866  1  -0.046253  -0.003091  -0.085202  -0.081829  -0.001985  3.999865  -0.002
C  C99  1  0.12709638  0.58018033  0.39474441  1  -0.087868  0.00307  -0.085737  -0.083268  0.001945  4.003791  0.002
C  C100  1  0.81446102  0.76761873  0.89456808  1  -0.046514  0.003092  -0.08521  -0.081782  0.001985  4.000553  0.002
C  C101  1  0.87288504  0.41984474  0.60525318  1  -0.087825  -0.00307  -0.085827  -0.083408  -0.001946  4.003834  -0.002
C  C102  1  0.15133906  0.13611679  0.06527045  1  0.055566  -5e-05  -0.101477  -0.193018  -9e-05  3.985882  0.0
C  C103  1  0.07071536  0.58596293  0.43486986  1  0.04259  2.4e-05  -0.101297  -0.192286  7.4e-05  3.988102  0.0
C  C104  1  0.84864138  0.86386329  0.93473215  1  0.056176  4.7e-05  -0.101344  -0.192684  8.8e-05  3.986465  0.0
C  C105  1  0.92926593  0.41404542  0.56512956  1  0.042397  -2.3e-05  -0.10109  -0.191953  -7.4e-05  3.988023  0.0
C  C106  1  0.27219897  0.10877191  0.04117304  1  0.348585  -0.002902  0.081196  0.258699  -0.001946  4.041669  -0.002
C  C107  1  0.06679312  0.73080706  0.45889427  1  0.367522  0.002944  0.081603  0.259672  0.001983  4.045104  0.002
C  C108  1  0.72777707  0.89121237  0.95882760  1  0.348834  0.002905  0.081187  0.258553  0.001948  4.042329  0.002
C  C109  1  0.93320632  0.26920580  0.54110698  1  0.368538  -0.002944  0.081482  0.259436  -0.001984  4.045751  -0.002
C  C110  1  0.42672004  0.17369019  0.05656938  1  -0.038772  0.000769  -0.100542  -0.202514  0.000497  4.007074  0.001
C  C111  1  0.11620413  0.86995475  0.44350492  1  0.028634  -0.000797  -0.100258  -0.202107  -0.0005  4.008577  -0.001
C  C112  1  0.57326906  0.82629434  0.94342665  1  -0.038884  -0.000769  -0.100697  -0.202818  -0.000497  4.007203  -0.001
C  C113  1  0.88377389  0.13007354  0.55649882  1  0.028661  0.000797  -0.100293  -0.202109  0.0005  4.008909  0.001
C  C114  1  0.45998365  0.26577120  0.09730650  1  0.03449  -0.002298  -0.08104  -0.072266  -0.001504  3.96882  -0.001
C  C115  1  0.16785850  0.86268358  0.40280823  1  -0.055723  0.002343  -0.08068  -0.071505  0.001533  3.969041  0.001
C  C116  1  0.54000119  0.73423699  0.90269175  1  0.034735  0.002299  -0.08105  -0.072224  0.001505  3.96901  0.001
C  C117  1  0.83213226  0.13733517  0.59719152  1  -0.056574  -0.002342  -0.080642  -0.071326  -0.001533  3.969277  -0.001
C  C118  1  0.25795672  0.05821068  0.96412131  1  0.377264  -0.000171  0.090208  0.266411  -0.000159  4.053134  0.0
C  C119  1  0.09335085  0.79375652  0.53591701  1  0.351866  0.001086  0.090375  0.266655  0.000736  4.055082  0.001
C  C120  1  0.74202032  0.94178576  0.03587590  1  0.37722  0.000172  0.0901  0.266084  0.00016  4.052688  0.0
C  C121  1  0.90665699  0.20624317  0.46408527  1  0.352086  -0.001088  0.090506  0.266853  -0.000738  4.054477  -0.001
C  C122  1  0.23613587  0.94145049  0.92755709  1  -0.036399  0.00045  -0.101398  -0.207754  0.000255  4.023001  0.0
C  C123  1  0.01340815  0.80900100  0.57252196  1  0.021626  -0.000653  -0.101335  -0.209218  -0.000466  4.024633  -0.001
C  C124  1  0.76385588  0.05854871  0.07244079  1  -0.036082  -0.00045  -0.101343  -0.207721  -0.000255  4.022597  0.0
C  C125  1  0.98660597  0.19103103  0.42747917  1  0.022051  0.000654  -0.101326  -0.20909  0.000467  4.024337  0.001
C  C126  1  0.25123493  0.98328932  0.88732493  1  0.00026  0.001104  -0.08084  -0.068179  0.00082  3.982816  0.001
C  C127  1  0.09580032  0.86470887  0.61269732  1  -0.011647  0.000358  -0.081432  -0.066544  0.000304  3.982977  0.0
C  C128  1  0.74875918  0.01669473  0.11267733  1  -0.000472  -0.001104  -0.080871  -0.068203  -0.00082  3.982301  -0.001
C  C129  1  0.90421191  0.13530643  0.38729792  1  -0.012255  -0.00036  -0.081404  -0.066631  -0.000305  3.982847  0.0
C  C130  1  0.28837192  0.14167399  0.88290299  1  -0.013727  0.012209  -0.031979  -0.068933  0.008675  4.00326  0.01
C  C131  1  0.25862335  0.90591542  0.61704237  1  -0.017127  -0.000182  -0.031657  -0.070662  -9.8e-05  4.005383  0.0
C  C132  1  0.71161648  0.85831757  0.11710438  1  -0.013244  -0.01222  -0.032139  -0.069189  -0.008686  4.003193  -0.01
C  C133  1  0.74139077  0.09408162  0.38294957  1  -0.017074  0.000183  -0.031839  -0.070677  9.9e-05  4.005568  0.0
C  C134  1  0.31000064  0.25735280  0.91972730  1  -0.010784  0.000762  -0.077643  -0.052367  0.000514  3.969746  0.001
C  C135  1  0.33716253  0.89038227  0.58016838  1  -0.011768  0.001667  -0.078401  -0.053943  0.001038  3.974164  0.001
C  C136  1  0.68999394  0.74264439  0.08027695  1  -0.010817  -0.000761  -0.077806  -0.052554  -0.000513  3.969684  -0.001
C  C137  1  0.66284948  0.10960852  0.41982484  1  -0.011964  -0.001668  -0.078193  -0.053672  -0.001039  3.973544  -0.001
C  C138  1  0.29473704  0.21685812  0.96040784  1  -0.033793  0.000714  -0.10821  -0.222503  0.000441  4.001667  0.0
C  C139  1  0.25569657  0.83423581  0.53954036  1  0.01526  0.000522  -0.108784  -0.22226  0.000394  4.00507  0.0
C  C140  1  0.70527023  0.78312759  0.03958875  1  -0.034005  -0.000715  -0.10809  -0.222268  -0.000442  4.000977  0.0
C  C141  1  0.74430033  0.16576017  0.46045909  1  0.015777  -0.000522  -0.108783  -0.222467  -0.000394  4.004705  0.0
C  C142  1  0.30515843  0.18259784  0.83928408  1  1.524091  -0.000824  0.210015  0.574651  0.001055  4.204768  -0.003
C  C143  1  0.34355000  0.96594049  0.66063068  1  1.496287  0.000793  0.210509  0.576852  0.000685  4.202895  0.0
C  C144  1  0.69484889  0.81737030  0.16072282  1  1.52305  0.000831  0.210155  0.574953  -0.00104  4.20442  0.003
C  C145  1  0.65648179  0.03406765  0.33936158  1  1.495032  -0.000796  0.210254  0.57646  -0.00069  4.203165  0.0
C  C146  1  0.19979540  0.28229346  0.70034959  1  0.424465  0.004797  -0.094595  0.037408  0.005342  3.971587  0.001
C  C147  1  0.58101088  0.99943466  0.79953646  1  0.430341  -0.001811  -0.094575  0.038743  -0.001138  3.968387  -0.001
C  C148  1  0.80019929  0.71771770  0.29964682  1  0.424041  -0.004791  -0.094547  0.037505  -0.005335  3.970862  -0.001
C  C149  1  0.41899332  0.00055741  0.20046313  1  0.430093  0.001816  -0.094602  0.038569  0.001141  3.968417  0.001
C  C150  1  0.15421504  0.44063759  0.70572011  1  0.244945  0.008272  -0.079042  -0.112162  0.006749  3.881247  0.005
C  C151  1  0.73314614  0.94716396  0.79391808  1  0.254511  0.006785  -0.079038  -0.109603  0.003987  3.875826  0.006
C  C152  1  0.84577945  0.55935485  0.29428394  1  0.245031  -0.008276  -0.07908  -0.112219  -0.006749  3.88046  -0.005
C  C153  1  0.26686607  0.05283241  0.20607903  1  0.255031  -0.006783  -0.078966  -0.10945  -0.003986  3.875831  -0.006
C  C154  1  0.20739032  0.68114309  0.76138887  1  0.239603  -9.1e-05  -0.076165  -0.115669  0.0008  3.858137  -0.002
C  C155  1  0.91963920  0.94555808  0.73867059  1  0.220377  -0.000373  -0.076079  -0.11609  -0.001175  3.858523  0.002
C  C156  1  0.79260292  0.31885829  0.23861532  1  0.239719  8.8e-05  -0.076227  -0.115699  -0.000802  3.858196  0.002
C  C157  1  0.08037441  0.05443299  0.26132661  1  0.219921  0.000375  -0.07604  -0.116062  0.001177  3.858569  -0.002
C  C158  1  0.06594298  0.63437541  0.78456577  1  0.469341  0.000258  -0.080378  0.049517  8.4e-05  3.971258  0.0
C  C159  1  0.85053984  0.78077334  0.71549390  1  0.467007  -0.000165  -0.080437  0.048339  1.7e-05  3.971705  0.0
C  C160  1  0.93404850  0.36561925  0.21543766  1  0.46939  -0.000258  -0.080348  0.049752  -8.4e-05  3.970943  0.0
C  C161  1  0.14946217  0.21921750  0.28450345  1  0.467007  0.000166  -0.080442  0.048271  -1.7e-05  3.971834  0.0
C  C162  1  0.40561577  0.61584718  0.71713307  1  0.213403  -0.000627  -0.15537  -0.297602  0.000375  3.893429  -0.002
C  C163  1  0.89682109  0.18776040  0.78277617  1  0.223824  0.001516  -0.154227  -0.295916  0.000259  3.888357  0.003
C  C164  1  0.59437106  0.38416000  0.28286479  1  0.215185  0.000632  -0.155219  -0.297177  -0.000374  3.893157  0.002
C  C165  1  0.10319192  0.81223275  0.21722642  1  0.223173  -0.001514  -0.154225  -0.295976  -0.000257  3.888458  -0.003
N  N166  1  0.26990858  0.55095582  0.73823274  1  -0.971154  0.119347  -0.352041  -0.044673  0.078997  3.510841  0.102
N  N167  1  0.81158055  0.03082848  0.76149946  1  -0.978338  -0.116006  -0.352362  -0.046502  -0.076704  3.514074  -0.1
N  N168  1  0.73007587  0.44906038  0.26176294  1  -0.9707  -0.119311  -0.352092  -0.044963  -0.078975  3.511137  -0.102
N  N169  1  0.18843232  0.96916745  0.23849832  1  -0.978901  0.116014  -0.352468  -0.046529  0.076711  3.514183  0.1
O  O170  1  0.51391803  0.39731346  0.18400159  1  -1.141206  -0.065625  -0.338112  -0.559611  -0.042514  2.386068  -0.057
O  O171  1  0.21300960  0.82989574  0.31615533  1  -1.144265  0.0642  -0.337003  -0.558522  0.04158  2.38297  0.056
O  O172  1  0.48611473  0.60265591  0.81599306  1  -1.142256  0.065586  -0.338193  -0.55969  0.042491  2.386125  0.057
O  O173  1  0.78698421  0.17015800  0.68385552  1  -1.145172  -0.064184  -0.33717  -0.558529  -0.041567  2.383657  -0.056
O  O174  1  0.28400429  0.47908946  0.17987719  1  -1.187632  -0.007515  -0.32387  -0.55894  -0.004572  2.146576  -0.006
O  O175  1  0.29987153  0.60473349  0.32037469  1  -1.191074  0.007595  -0.323276  -0.55796  0.004647  2.149082  0.006
O  O176  1  0.71594662  0.52091074  0.82011389  1  -1.187839  0.007528  -0.323951  -0.558887  0.004581  2.147582  0.006
O  O177  1  0.70010438  0.39525661  0.67962477  1  -1.19149  -0.007616  -0.323245  -0.557914  -0.00466  2.149217  -0.006
O  O178  1  0.57049691  0.32225877  0.74990400  1  -1.321856  0.000759  -0.605459  -0.881795  0.000486  2.173236  0.001
O  O179  1  0.42948667  0.67776473  0.25009930  1  -1.321753  -0.000756  -0.605429  -0.88153  -0.000485  2.173269  -0.001
O  O180  1  0.23505496  0.00458732  0.00227796  1  -1.098402  -0.000416  -0.156839  -0.222908  -0.000197  2.555378  0.0
O  O181  1  0.00144493  0.73244553  0.49778447  1  -1.105296  0.000959  -0.157038  -0.223706  0.000532  2.556663  0.001
O  O182  1  0.76492379  0.99540755  0.99771144  1  -1.098678  0.000417  -0.156811  -0.222653  0.000197  2.555453  0.0
O  O183  1  0.99856161  0.26756695  0.50222394  1  -1.106318  -0.00096  -0.157031  -0.223732  -0.000533  2.556645  -0.001
O  O184  1  0.35269061  0.32482877  0.83564936  1  -1.131063  0.064198  -0.320447  -0.537486  0.04209  2.368006  0.059
O  O185  1  0.48984721  0.01492743  0.66417320  1  -1.126838  -0.063581  -0.321388  -0.538121  -0.042154  2.365449  -0.058
O  O186  1  0.64730189  0.67512088  0.16433259  1  -1.131005  -0.06421  -0.320245  -0.537242  -0.042101  2.367953  -0.059
O  O187  1  0.51016812  0.98508974  0.33583710  1  -1.126638  0.063622  -0.321231  -0.537973  0.042179  2.365001  0.058
O  O188  1  0.27068360  0.06750164  0.80783717  1  -1.13722  0.080647  -0.329381  -0.558685  0.052202  2.440245  0.073
O  O189  1  0.26006614  0.96468244  0.69211666  1  -1.137434  0.081481  -0.330213  -0.561254  0.053466  2.437758  0.073
O  O190  1  0.72936206  0.93252853  0.19216136  1  -1.136368  -0.08071  -0.329353  -0.558809  -0.052244  2.439666  -0.073
O  O191  1  0.73999880  0.03533966  0.30788333  1  -1.136739  -0.081439  -0.330073  -0.56102  -0.05344  2.437382  -0.073
O  O192  1  0.21310667  0.24195263  0.74241781  1  -1.013957  0.207406  -0.405011  -0.557305  0.134928  2.516406  0.186
O  O193  1  0.49935462  0.97465681  0.75741774  1  -1.011613  -0.013578  -0.407333  -0.559883  -0.00876  2.527251  -0.012
O  O194  1  0.78689010  0.75805590  0.25757351  1  -1.013857  -0.207362  -0.405255  -0.557511  -0.134899  2.516995  -0.186
O  O195  1  0.50064534  0.02534251  0.24258488  1  -1.011374  0.01359  -0.407293  -0.559731  0.008771  2.526995  0.012
O  O196  1  0.10271651  0.55345458  0.81878161  1  -1.116119  0.000133  -0.407822  -0.489768  4.4e-05  2.240956  0.001
O  O197  1  0.73548823  0.78284289  0.68121508  1  -1.115706  0.00102  -0.40765  -0.489825  0.00072  2.243668  0.0
O  O198  1  0.89728253  0.44652791  0.18121609  1  -1.116048  -0.000134  -0.40788  -0.48992  -4.5e-05  2.240716  -0.001
O  O199  1  0.26449609  0.21714987  0.31878938  1  -1.115883  -0.001022  -0.407607  -0.489728  -0.000721  2.243658  0.0
