# generated using pymatgen
data_CdH7C10N6Cl
_symmetry_space_group_name_H-M   'P 1'
_cell_length_a   7.17045248
_cell_length_b   9.77231640
_cell_length_c   16.20281998
_cell_angle_alpha   104.74233728
_cell_angle_beta   90.00008703
_cell_angle_gamma   89.99990057
_symmetry_Int_Tables_number   1
_chemical_formula_structural   CdH7C10N6Cl
_chemical_formula_sum   'Cd4 H28 C40 N24 Cl4'
_cell_volume   1097.98670642
_cell_formula_units_Z   4
loop_
 _symmetry_equiv_pos_site_id
 _symmetry_equiv_pos_as_xyz
  1  'x, y, z'
loop_
 _atom_site_type_symbol
 _atom_site_label
 _atom_site_symmetry_multiplicity
 _atom_site_fract_x
 _atom_site_fract_y
 _atom_site_fract_z
 _atom_site_occupancy
 _atom_site_pbe_bader_spin_density
 _atom_site_pbe_cm5_charge
 _atom_site_pbe_ddec_charge
 _atom_site_pbe_ddec_spin_density
 _atom_site_pbe_ddec_sum_bond_order
 _atom_site_pbe_magmom
Cd  Cd0  1  0.84151775  0.92643454  0.07463683  1  0  0.71389  0.761702  0  2.34133  0
Cd  Cd1  1  0.34151744  0.07356545  0.42536316  1  0  0.713902  0.761699  0  2.341351  0
Cd  Cd2  1  0.15848103  0.07356479  0.92536315  1  0  0.713902  0.76172  0  2.341342  0
Cd  Cd3  1  0.65848134  0.92643599  0.57463715  1  0  0.713911  0.761726  0  2.341345  0
H  H4  1  0.96860204  0.69840472  0.88088857  1  0  0.129071  0.088645  0  1.073074  0
H  H5  1  0.46859874  0.30159573  0.61911128  1  0  0.129057  0.088619  0  1.073107  0
H  H6  1  0.03140093  0.30159566  0.11911096  1  0  0.129062  0.08863  0  1.0731  0
H  H7  1  0.53139865  0.69840677  0.38088920  1  0  0.129071  0.088624  0  1.073097  0
H  H8  1  0.66959315  0.61289471  0.08708299  1  0  0.112928  0.098744  0  1.085136  0
H  H9  1  0.16959484  0.38710441  0.41291429  1  0  0.112922  0.09872  0  1.085109  0
H  H10  1  0.33040563  0.38710463  0.91291453  1  0  0.112917  0.098712  0  1.085146  0
H  H11  1  0.83040673  0.61289703  0.58708480  1  0  0.112923  0.098729  0  1.085133  0
H  H12  1  0.70174493  0.36282207  0.95868664  1  0  0.119549  0.130877  0  1.025491  0
H  H13  1  0.20174337  0.63717762  0.54131168  1  0  0.119539  0.130845  0  1.025492  0
H  H14  1  0.29825525  0.63717726  0.04131212  1  0  0.11955  0.130888  0  1.02549  0
H  H15  1  0.79825402  0.36282383  0.45868802  1  0  0.119551  0.130882  0  1.025446  0
H  H16  1  0.91746014  0.56430708  0.74578936  1  0  0.107474  0.110197  0  1.060942  0
H  H17  1  0.41745700  0.43569343  0.75421046  1  0  0.107464  0.110176  0  1.060901  0
H  H18  1  0.08254283  0.43569437  0.25420972  1  0  0.107464  0.110162  0  1.060917  0
H  H19  1  0.58254179  0.56430801  0.24578923  1  0  0.107467  0.110191  0  1.060948  0
H  H20  1  0.99772144  0.39013859  0.61061484  1  0  0.100091  0.099853  0  1.021916  0
H  H21  1  0.49771834  0.60985972  0.88938470  1  0  0.100096  0.099909  0  1.021888  0
H  H22  1  0.00228153  0.60985968  0.38938375  1  0  0.100106  0.099908  0  1.021882  0
H  H23  1  0.50228044  0.39013749  0.11061496  1  0  0.100096  0.099884  0  1.02192  0
H  H24  1  0.02851233  0.13451926  0.60504635  1  0  0.0901  0.101068  0  1.05249  0
H  H25  1  0.52851109  0.86547849  0.89495278  1  0  0.09011  0.101108  0  1.052451  0
H  H26  1  0.97148646  0.86547796  0.39495207  1  0  0.090109  0.101123  0  1.052431  0
H  H27  1  0.47148909  0.13451872  0.10504750  1  0  0.090119  0.101111  0  1.052458  0
H  H28  1  0.87499761  0.22429347  0.87035001  1  0  0.09471  0.108336  0  1.070773  0
H  H29  1  0.37498765  0.77570708  0.62965041  1  0  0.094706  0.108362  0  1.070783  0
H  H30  1  0.12500955  0.77570691  0.12965014  1  0  0.094702  0.108346  0  1.070804  0
H  H31  1  0.62500416  0.22429647  0.37035208  1  0  0.094702  0.108357  0  1.070776  0
C  C32  1  0.89211467  0.64289626  0.92043639  1  0  0.146962  0.111737  0  3.885805  0
C  C33  1  0.39211250  0.35710427  0.57956342  1  0  0.146964  0.111755  0  3.885891  0
C  C34  1  0.10788691  0.35710412  0.07956314  1  0  0.146957  0.111741  0  3.885926  0
C  C35  1  0.60788489  0.64289822  0.42043706  1  0  0.14699  0.111849  0  3.885768  0
C  C36  1  0.73669344  0.59186071  0.02509202  1  0  -0.010315  -0.040734  0  4.005543  0
C  C37  1  0.23669390  0.40813728  0.47490574  1  0  -0.010357  -0.040756  0  4.005426  0
C  C38  1  0.26330535  0.40813756  0.97490595  1  0  -0.01034  -0.040724  0  4.005471  0
C  C39  1  0.76330628  0.59186311  0.52509380  1  0  -0.010353  -0.040757  0  4.0055  0
C  C40  1  0.75218793  0.46864414  0.96235492  1  0  0.002507  -0.094553  0  3.898524  0
C  C41  1  0.25218661  0.53135444  0.53764326  1  0  0.002512  -0.09455  0  3.898569  0
C  C42  1  0.24781504  0.53135519  0.03764445  1  0  0.002505  -0.094569  0  3.898569  0
C  C43  1  0.74781218  0.46864595  0.46235628  1  0  0.002497  -0.09453  0  3.898578  0
C  C44  1  0.89873779  0.40513014  0.81748523  1  0  0.098175  0.185064  0  3.992978  0
C  C45  1  0.39873123  0.59487039  0.68251458  1  0  0.098186  0.185075  0  3.993088  0
C  C46  1  0.10126797  0.59487025  0.18251430  1  0  0.098209  0.185126  0  3.993054  0
C  C47  1  0.60126616  0.40513105  0.31748697  1  0  0.098212  0.185048  0  3.993177  0
C  C48  1  0.93000620  0.45258987  0.74415153  1  0  -0.08619  -0.158263  0  3.93036  0
C  C49  1  0.43000419  0.54741063  0.75584830  1  0  -0.086215  -0.158291  0  3.930448  0
C  C50  1  0.06999537  0.54741052  0.25584801  1  0  -0.086218  -0.158306  0  3.930502  0
C  C51  1  0.56999599  0.45259187  0.24415279  1  0  -0.08622  -0.158259  0  3.930475  0
C  C52  1  0.97503403  0.35399781  0.66814262  1  0  -0.086694  -0.044928  0  3.980548  0
C  C53  1  0.47503205  0.64599946  0.83185674  1  0  -0.086649  -0.044886  0  3.980547  0
C  C54  1  0.02496754  0.64599940  0.33185580  1  0  -0.086649  -0.044832  0  3.980568  0
C  C55  1  0.52496953  0.35399986  0.16814386  1  0  -0.086659  -0.044874  0  3.98052  0
C  C56  1  0.98939033  0.21022741  0.66423703  1  0  -0.090327  -0.119024  0  3.958377  0
C  C57  1  0.48938384  0.78977196  0.83576267  1  0  -0.090322  -0.11908  0  3.958258  0
C  C58  1  0.01061403  0.78977191  0.33576358  1  0  -0.090338  -0.11912  0  3.958237  0
C  C59  1  0.51061216  0.21022842  0.16423810  1  0  -0.090375  -0.119145  0  3.958401  0
C  C60  1  0.95407893  0.16345694  0.73757440  1  0  -0.008873  0.036518  0  4.035255  0
C  C61  1  0.45407765  0.83654247  0.76242467  1  0  -0.008908  0.036508  0  4.035155  0
C  C62  1  0.04592264  0.83654132  0.26242481  1  0  -0.008881  0.036487  0  4.035227  0
C  C63  1  0.54592253  0.16345791  0.23757549  1  0  -0.008824  0.036604  0  4.035218  0
C  C64  1  0.90883494  0.26151372  0.81425337  1  0  -0.093041  -0.204326  0  3.939125  0
C  C65  1  0.40882666  0.73848680  0.68574645  1  0  -0.093054  -0.204378  0  3.939116  0
C  C66  1  0.09116942  0.73848667  0.18574616  1  0  -0.093044  -0.204337  0  3.939171  0
C  C67  1  0.59116655  0.26151569  0.31425526  1  0  -0.093066  -0.204368  0  3.939101  0
C  C68  1  0.95907600  0.01322706  0.73570935  1  0  0.215727  0.256671  0  4.028283  0
C  C69  1  0.45907298  0.98677234  0.76429095  1  0  0.215694  0.256647  0  4.028294  0
C  C70  1  0.04092418  0.98677120  0.26429047  1  0  0.215691  0.256659  0  4.028212  0
C  C71  1  0.54092580  0.01322910  0.23571060  1  0  0.21569  0.256645  0  4.028268  0
N  N72  1  0.82456809  0.69931447  0.99828031  1  0  -0.36475  -0.285126  0  3.542334  0
N  N73  1  0.32456858  0.30068508  0.50171931  1  0  -0.36471  -0.285037  0  3.542279  0
N  N74  1  0.17543070  0.30068486  0.00171906  1  0  -0.364714  -0.285053  0  3.542289  0
N  N75  1  0.67543160  0.69931636  0.49828101  1  0  -0.364721  -0.285093  0  3.542323  0
N  N76  1  0.85065018  0.50203530  0.89616883  1  0  -0.221931  0.00962  0  3.77785  0
N  N77  1  0.35064498  0.49796528  0.60383034  1  0  -0.221894  0.009655  0  3.777931  0
N  N78  1  0.14935278  0.49796509  0.10383070  1  0  -0.221922  0.00958  0  3.778037  0
N  N79  1  0.64935101  0.50203616  0.39617059  1  0  -0.221923  0.009492  0  3.778099  0
N  N80  1  0.01586952  0.96081169  0.80072916  1  0  -0.244117  -0.259895  0  3.475406  0
N  N81  1  0.51586818  0.03918606  0.69927120  1  0  -0.244093  -0.259869  0  3.475378  0
N  N82  1  0.98413066  0.03918658  0.19927066  1  0  -0.244114  -0.259879  0  3.475345  0
N  N83  1  0.48413061  0.96081326  0.30072940  1  0  -0.244119  -0.259896  0  3.475409  0
N  N84  1  0.99269503  0.81938526  0.77530049  1  0  -0.090232  -0.066035  0  3.277128  0
N  N85  1  0.49269657  0.18061410  0.72470106  1  0  -0.090217  -0.065967  0  3.277088  0
N  N86  1  0.00730375  0.18061406  0.22469950  1  0  -0.090203  -0.06596  0  3.277072  0
N  N87  1  0.50730361  0.81938628  0.27529971  1  0  -0.090203  -0.065967  0  3.277116  0
N  N88  1  0.92382202  0.78648643  0.69789547  1  0  -0.093549  -0.070425  0  3.265833  0
N  N89  1  0.42382374  0.21351407  0.80210498  1  0  -0.093557  -0.070482  0  3.265895  0
N  N90  1  0.07617677  0.21351289  0.30210452  1  0  -0.093573  -0.070513  0  3.265943  0
N  N91  1  0.57617644  0.78648737  0.19789534  1  0  -0.093554  -0.070477  0  3.265938  0
N  N92  1  0.90133092  0.90587292  0.67091739  1  0  -0.242047  -0.272769  0  3.383552  0
N  N93  1  0.40133023  0.09412760  0.82908366  1  0  -0.242061  -0.272777  0  3.383501  0
N  N94  1  0.09866926  0.09412746  0.32908277  1  0  -0.242034  -0.27273  0  3.383505  0
N  N95  1  0.59866995  0.90587383  0.17091788  1  0  -0.242045  -0.27276  0  3.383538  0
Cl  Cl96  1  0.77567926  0.08976276  0.98373065  1  0  -0.299131  -0.483001  0  1.26177  0
Cl  Cl97  1  0.27567976  0.91023790  0.51626972  1  0  -0.299132  -0.483004  0  1.261779  0
Cl  Cl98  1  0.22431952  0.91023868  0.01627028  1  0  -0.299141  -0.483018  0  1.261777  0
Cl  Cl99  1  0.72431903  0.08976354  0.48373060  1  0  -0.29914  -0.483011  0  1.261789  0
