# generated using pymatgen
data_PrH6C8NO8
_symmetry_space_group_name_H-M   'P 1'
_cell_length_a   6.82573554
_cell_length_b   11.81639928
_cell_length_c   13.53111383
_cell_angle_alpha   89.99996697
_cell_angle_beta   97.91266999
_cell_angle_gamma   89.99961263
_symmetry_Int_Tables_number   1
_chemical_formula_structural   PrH6C8NO8
_chemical_formula_sum   'Pr4 H24 C32 N4 O32'
_cell_volume   1080.96953649
_cell_formula_units_Z   4
loop_
 _symmetry_equiv_pos_site_id
 _symmetry_equiv_pos_as_xyz
  1  'x, y, z'
loop_
 _atom_site_type_symbol
 _atom_site_label
 _atom_site_symmetry_multiplicity
 _atom_site_fract_x
 _atom_site_fract_y
 _atom_site_fract_z
 _atom_site_occupancy
 _atom_site_hle17_bader_spin_density
 _atom_site_hle17_ddec_charge
 _atom_site_hle17_ddec_spin_density
 _atom_site_hle17_ddec_sum_bond_order
 _atom_site_hle17_magmom
 _atom_site_hse06_10hf_bader_spin_density
 _atom_site_hse06_10hf_ddec_charge
 _atom_site_hse06_10hf_ddec_spin_density
 _atom_site_hse06_10hf_ddec_sum_bond_order
 _atom_site_hse06_10hf_magmom
 _atom_site_hse06_bader_spin_density
 _atom_site_hse06_ddec_charge
 _atom_site_hse06_ddec_spin_density
 _atom_site_hse06_ddec_sum_bond_order
 _atom_site_hse06_magmom
 _atom_site_pbe_bader_spin_density
 _atom_site_pbe_cm5_charge
 _atom_site_pbe_ddec_charge
 _atom_site_pbe_ddec_spin_density
 _atom_site_pbe_ddec_sum_bond_order
 _atom_site_pbe_magmom
Pr  Pr0  1  0.92374294  0.17765887  0.24466553  1  0  2.314214  0  1.626194  0  0  2.193545  0  1.998822  0  0  2.229886  0  1.958752  0  0  1.488627  2.11409  0  2.127141  0
Pr  Pr1  1  0.07626294  0.67765967  0.25533288  1  0  2.314162  0  1.626212  0  0  2.193484  0  1.998833  0  0  2.229826  0  1.958769  0  0  1.488631  2.113965  0  2.127271  0
Pr  Pr2  1  0.07625597  0.82234233  0.75533203  1  0  2.314239  0  1.626212  0  0  2.193569  0  1.998841  0  0  2.22991  0  1.958774  0  0  1.488643  2.114132  0  2.127141  0
Pr  Pr3  1  0.92374330  0.32234153  0.74466674  1  0  2.314192  0  1.626144  0  0  2.193511  0  1.998758  0  0  2.229853  0  1.958694  0  0  1.488644  2.114014  0  2.127154  0
H  H4  1  0.16783868  0.06249671  0.04729889  1  0  0.132191  0  0.934229  0  0  0.138139  0  0.999214  0  0  0.142373  0  0.996268  0  0  0.12402  0.135157  0  1.001316  0
H  H5  1  0.83216245  0.56249872  0.45270510  1  0  0.132181  0  0.934248  0  0  0.138136  0  0.999239  0  0  0.142369  0  0.996291  0  0  0.124013  0.135155  0  1.001345  0
H  H6  1  0.83215865  0.93750111  0.95270077  1  0  0.132236  0  0.934206  0  0  0.138198  0  0.999154  0  0  0.142438  0  0.996212  0  0  0.124043  0.135217  0  1.001261  0
H  H7  1  0.16784071  0.43750249  0.54729723  1  0  0.132215  0  0.93421  0  0  0.138177  0  0.999174  0  0  0.142414  0  0.996229  0  0  0.124025  0.135197  0  1.001279  0
H  H8  1  0.55386908  0.19384113  0.84652976  1  0  0.125643  0  0.983998  0  0  0.128288  0  1.055537  0  0  0.133013  0  1.051863  0  0  0.117427  0.125212  0  1.057521  0
H  H9  1  0.44611837  0.69383720  0.65347034  1  0  0.125627  0  0.984091  0  0  0.128302  0  1.0556  0  0  0.133027  0  1.051926  0  0  0.117448  0.125224  0  1.057576  0
H  H10  1  0.44612678  0.80615923  0.15346978  1  0  0.125631  0  0.984091  0  0  0.12831  0  1.055586  0  0  0.133035  0  1.051913  0  0  0.117449  0.125229  0  1.057572  0
H  H11  1  0.55387894  0.30616231  0.34653005  1  0  0.125646  0  0.98404  0  0  0.128324  0  1.05555  0  0  0.13305  0  1.051874  0  0  0.117444  0.125243  0  1.057533  0
H  H12  1  0.74987823  0.44537020  0.23651338  1  0  0.445816  0  0.84956  0  0  0.41703  0  0.90943  0  0  0.427094  0  0.894621  0  0  0.307894  0.409661  0  0.920172  0
H  H13  1  0.25012574  0.94536779  0.26348699  1  0  0.445803  0  0.849593  0  0  0.417025  0  0.909438  0  0  0.427087  0  0.894633  0  0  0.307891  0.409657  0  0.920175  0
H  H14  1  0.25012062  0.55463185  0.76348565  1  0  0.445786  0  0.849608  0  0  0.417004  0  0.909464  0  0  0.427067  0  0.894657  0  0  0.307875  0.409632  0  0.920208  0
H  H15  1  0.74987902  0.05463341  0.73651251  1  0  0.44581  0  0.849578  0  0  0.417028  0  0.909432  0  0  0.427092  0  0.894623  0  0  0.307885  0.409659  0  0.920172  0
H  H16  1  0.60986282  0.36561354  0.16594672  1  0  0.438713  0  0.807847  0  0  0.423474  0  0.856654  0  0  0.430864  0  0.848435  0  0  0.33212  0.417912  0  0.862504  0
H  H17  1  0.39014216  0.86561140  0.33405303  1  0  0.438752  0  0.807924  0  0  0.423511  0  0.85672  0  0  0.430901  0  0.848503  0  0  0.332143  0.417949  0  0.862574  0
H  H18  1  0.39013593  0.63438682  0.83405452  1  0  0.438715  0  0.80786  0  0  0.423482  0  0.856651  0  0  0.430871  0  0.848435  0  0  0.332123  0.417919  0  0.862503  0
H  H19  1  0.60986417  0.13438896  0.66594439  1  0  0.438707  0  0.807844  0  0  0.423473  0  0.85664  0  0  0.430862  0  0.848424  0  0  0.332121  0.417914  0  0.862494  0
H  H20  1  0.92217547  0.93536344  0.33845403  1  0  0.435558  0  0.859232  0  0  0.403477  0  0.925434  0  0  0.414782  0  0.90855  0  0  0.303548  0.395563  0  0.936982  0
H  H21  1  0.07782582  0.43536339  0.16154243  1  0  0.435526  0  0.859295  0  0  0.403437  0  0.925509  0  0  0.414743  0  0.908624  0  0  0.303522  0.395516  0  0.937068  0
H  H22  1  0.07778792  0.06464200  0.66154142  1  0  0.435667  0  0.859088  0  0  0.403554  0  0.92535  0  0  0.414861  0  0.908461  0  0  0.303571  0.395636  0  0.936907  0
H  H23  1  0.92219213  0.56463951  0.83846108  1  0  0.435587  0  0.859195  0  0  0.403511  0  0.925384  0  0  0.414816  0  0.9085  0  0  0.303577  0.395593  0  0.936937  0
H  H24  1  0.06878338  0.99775122  0.42022268  1  0  0.436573  0  0.810847  0  0  0.420337  0  0.864902  0  0  0.428545  0  0.854902  0  0  0.330385  0.414172  0  0.871886  0
H  H25  1  0.93122614  0.49775304  0.07977147  1  0  0.436551  0  0.810917  0  0  0.420319  0  0.864972  0  0  0.428527  0  0.854963  0  0  0.330349  0.414153  0  0.871952  0
H  H26  1  0.93123263  0.00224152  0.57975629  1  0  0.436534  0  0.810948  0  0  0.420298  0  0.865006  0  0  0.4285  0  0.854989  0  0  0.330319  0.414132  0  0.871988  0
H  H27  1  0.06875723  0.50224140  0.92024259  1  0  0.436579  0  0.810866  0  0  0.420345  0  0.864929  0  0  0.42855  0  0.854919  0  0  0.330369  0.414176  0  0.871918  0
C  C28  1  0.42922244  0.11216949  0.22018485  1  0  0.67916  0  3.867293  0  0  0.626804  0  4.172741  0  0  0.660942  0  4.16092  0  0  0.235476  0.603447  0  4.176811  0
C  C29  1  0.57078849  0.61216923  0.27981843  1  0  0.679264  0  3.86723  0  0  0.626927  0  4.172637  0  0  0.661065  0  4.160812  0  0  0.235467  0.603567  0  4.176713  0
C  C30  1  0.57077927  0.88783003  0.77981663  1  0  0.679165  0  3.867161  0  0  0.626839  0  4.172567  0  0  0.660979  0  4.160743  0  0  0.235491  0.603494  0  4.176625  0
C  C31  1  0.42921624  0.38783029  0.72018181  1  0  0.679194  0  3.867442  0  0  0.626849  0  4.172875  0  0  0.660989  0  4.16105  0  0  0.23546  0.603489  0  4.176947  0
C  C32  1  0.44856602  0.13259449  0.11181654  1  0  0.098656  0  3.73629  0  0  0.103145  0  3.987864  0  0  0.101995  0  4.005747  0  0  0.120088  0.103672  0  3.974325  0
C  C33  1  0.55143575  0.63259508  0.38818673  1  0  0.098656  0  3.73637  0  0  0.103147  0  3.987937  0  0  0.101998  0  4.005821  0  0  0.120058  0.103669  0  3.974402  0
C  C34  1  0.55143270  0.86740502  0.88818544  1  0  0.098667  0  3.736208  0  0  0.103126  0  3.987792  0  0  0.101975  0  4.005675  0  0  0.120062  0.103653  0  3.97425  0
C  C35  1  0.44857042  0.36740528  0.61181437  1  0  0.098582  0  3.736377  0  0  0.10306  0  3.98795  0  0  0.10191  0  4.005832  0  0  0.120052  0.10359  0  3.974408  0
C  C36  1  0.30385156  0.10332191  0.03279771  1  0  -0.062235  0  3.606271  0  0  -0.100537  0  3.861556  0  0  -0.099528  0  3.877412  0  0  -0.049114  -0.101425  0  3.852105  0
C  C37  1  0.69615057  0.60332105  0.46720561  1  0  -0.062284  0  3.606372  0  0  -0.100606  0  3.861707  0  0  -0.099595  0  3.877559  0  0  -0.049123  -0.101499  0  3.852262  0
C  C38  1  0.69614571  0.89667760  0.96720342  1  0  -0.062288  0  3.606338  0  0  -0.100548  0  3.861612  0  0  -0.099552  0  3.877483  0  0  -0.049119  -0.101445  0  3.852172  0
C  C39  1  0.30385410  0.39668015  0.53279611  1  0  -0.062261  0  3.606319  0  0  -0.100556  0  3.861608  0  0  -0.099553  0  3.877469  0  0  -0.049127  -0.101451  0  3.852163  0
C  C40  1  0.33978417  0.12699712  0.93559973  1  0  -0.003985  0  3.663139  0  0  0.014686  0  3.905116  0  0  0.010733  0  3.922772  0  0  0.016537  0.016724  0  3.89445  0
C  C41  1  0.66020850  0.62699666  0.56440155  1  0  -0.003946  0  3.66312  0  0  0.014706  0  3.905168  0  0  0.010756  0  3.922826  0  0  0.016491  0.016752  0  3.894486  0
C  C42  1  0.66021168  0.87300154  0.06439980  1  0  -0.004003  0  3.663135  0  0  0.014586  0  3.905229  0  0  0.010626  0  3.922883  0  0  0.016469  0.01663  0  3.894555  0
C  C43  1  0.33979327  0.37300370  0.43559846  1  0  -0.004097  0  3.663276  0  0  0.014555  0  3.905286  0  0  0.0106  0  3.922941  0  0  0.016458  0.0166  0  3.894619  0
C  C44  1  0.19255287  0.09421418  0.84688096  1  0  0.707906  0  3.871322  0  0  0.65677  0  4.171024  0  0  0.691676  0  4.159837  0  0  0.237365  0.633391  0  4.173175  0
C  C45  1  0.80744767  0.59420802  0.65311948  1  0  0.707699  0  3.8717  0  0  0.65658  0  4.171425  0  0  0.691479  0  4.160253  0  0  0.237291  0.633205  0  4.173555  0
C  C46  1  0.80744591  0.90578702  0.15311954  1  0  0.707946  0  3.871248  0  0  0.656848  0  4.170938  0  0  0.691773  0  4.159713  0  0  0.237464  0.633468  0  4.17308  0
C  C47  1  0.19255401  0.40579403  0.34688274  1  0  0.707778  0  3.871577  0  0  0.656686  0  4.17124  0  0  0.6916  0  4.160042  0  0  0.237281  0.633295  0  4.173399  0
C  C48  1  0.51991843  0.17604980  0.92100369  1  0  -0.080184  0  3.617162  0  0  -0.116765  0  3.865703  0  0  -0.116649  0  3.881598  0  0  -0.054044  -0.11705  0  3.85605  0
C  C49  1  0.48007515  0.67604748  0.57899690  1  0  -0.080053  0  3.617219  0  0  -0.116698  0  3.865801  0  0  -0.116586  0  3.881696  0  0  -0.053986  -0.116987  0  3.856141  0
C  C50  1  0.48007739  0.82394887  0.07899658  1  0  -0.080139  0  3.617218  0  0  -0.116744  0  3.865763  0  0  -0.11663  0  3.881658  0  0  -0.054031  -0.117027  0  3.856107  0
C  C51  1  0.51992659  0.32395288  0.42100384  1  0  -0.08009  0  3.61718  0  0  -0.116706  0  3.86578  0  0  -0.116591  0  3.881674  0  0  -0.053987  -0.116988  0  3.856118  0
C  C52  1  0.66112422  0.19623364  0.00385474  1  0  0.104966  0  3.741183  0  0  0.110969  0  3.986188  0  0  0.110393  0  4.003138  0  0  0.122166  0.110899  0  3.9738  0
C  C53  1  0.33887532  0.69623413  0.49614760  1  0  0.104887  0  3.741081  0  0  0.111001  0  3.986088  0  0  0.110434  0  4.003022  0  0  0.12218  0.110929  0  3.973699  0
C  C54  1  0.33887459  0.80376503  0.99614503  1  0  0.104861  0  3.741263  0  0  0.110958  0  3.986224  0  0  0.110386  0  4.003166  0  0  0.122175  0.110879  0  3.973843  0
C  C55  1  0.66113092  0.30376539  0.50385203  1  0  0.105023  0  3.740994  0  0  0.111015  0  3.986158  0  0  0.110441  0  4.003104  0  0  0.122171  0.110944  0  3.973764  0
C  C56  1  0.86906015  0.23687728  0.99688577  1  0  0.686873  0  3.866049  0  0  0.639334  0  4.16085  0  0  0.674175  0  4.149003  0  0  0.23743  0.615341  0  4.165625  0
C  C57  1  0.13093303  0.73687973  0.50310664  1  0  0.687061  0  3.86569  0  0  0.639317  0  4.160791  0  0  0.674157  0  4.148943  0  0  0.237398  0.615323  0  4.165568  0
C  C58  1  0.13093580  0.76312054  0.00311156  1  0  0.687068  0  3.865753  0  0  0.639395  0  4.160737  0  0  0.674235  0  4.148889  0  0  0.237444  0.615402  0  4.165514  0
C  C59  1  0.86907026  0.26311978  0.49689275  1  0  0.686993  0  3.865945  0  0  0.639269  0  4.161085  0  0  0.67411  0  4.14924  0  0  0.237394  0.615266  0  4.165873  0
N  N60  1  0.62381930  0.17579937  0.09688869  1  0  -0.433874  0  3.363842  0  0  -0.390319  0  3.608997  0  0  -0.399624  0  3.628603  0  0  -0.377001  -0.378943  0  3.594484  0
N  N61  1  0.37617917  0.67579977  0.40310986  1  0  -0.4339  0  3.363891  0  0  -0.390353  0  3.609026  0  0  -0.399663  0  3.628631  0  0  -0.376988  -0.378967  0  3.594511  0
N  N62  1  0.37617656  0.82419930  0.90311084  1  0  -0.433817  0  3.363792  0  0  -0.390271  0  3.608928  0  0  -0.399575  0  3.628529  0  0  -0.376969  -0.378892  0  3.594411  0
N  N63  1  0.62382562  0.32419974  0.59688891  1  0  -0.433842  0  3.363821  0  0  -0.390244  0  3.608976  0  0  -0.399549  0  3.628581  0  0  -0.376919  -0.378857  0  3.594452  0
O  O64  1  0.58684235  0.11422140  0.28120985  1  0  -0.663399  0  1.982023  0  0  -0.621983  0  2.22301  0  0  -0.644339  0  2.212169  0  0  -0.360726  -0.600589  0  2.232025  0
O  O65  1  0.41316425  0.61422093  0.21879012  1  0  -0.663509  0  1.981918  0  0  -0.622112  0  2.222931  0  0  -0.644479  0  2.212105  0  0  -0.360742  -0.600692  0  2.231923  0
O  O66  1  0.41315946  0.88577896  0.71878942  1  0  -0.66344  0  1.981925  0  0  -0.622049  0  2.22292  0  0  -0.644405  0  2.212079  0  0  -0.360756  -0.600658  0  2.231932  0
O  O67  1  0.58683749  0.38577773  0.78121062  1  0  -0.663478  0  1.981974  0  0  -0.622063  0  2.222952  0  0  -0.644419  0  2.21211  0  0  -0.360731  -0.600656  0  2.231964  0
O  O68  1  0.25770078  0.09105339  0.24348382  1  0  -0.749263  0  2.079721  0  0  -0.697511  0  2.33064  0  0  -0.719526  0  2.314334  0  0  -0.386389  -0.675017  0  2.342933  0
O  O69  1  0.74230591  0.59105418  0.25652060  1  0  -0.749257  0  2.079889  0  0  -0.697498  0  2.330788  0  0  -0.719511  0  2.314481  0  0  -0.386328  -0.674992  0  2.343082  0
O  O70  1  0.74230231  0.90894527  0.75651999  1  0  -0.749257  0  2.079766  0  0  -0.697508  0  2.330666  0  0  -0.719525  0  2.314363  0  0  -0.386365  -0.675024  0  2.34296  0
O  O71  1  0.25769744  0.40894618  0.74347731  1  0  -0.74923  0  2.079977  0  0  -0.69747  0  2.330879  0  0  -0.719486  0  2.314574  0  0  -0.386345  -0.674971  0  2.34318  0
O  O72  1  0.17052652  0.15965804  0.77109062  1  0  -0.717854  0  1.992932  0  0  -0.665691  0  2.230681  0  0  -0.689879  0  2.218367  0  0  -0.367299  -0.642467  0  2.238764  0
O  O73  1  0.82947450  0.65966021  0.72891427  1  0  -0.717836  0  1.992935  0  0  -0.665668  0  2.230621  0  0  -0.689857  0  2.218313  0  0  -0.367283  -0.642457  0  2.238695  0
O  O74  1  0.82947217  0.84034570  0.22891210  1  0  -0.717827  0  1.992937  0  0  -0.665673  0  2.230648  0  0  -0.689868  0  2.218321  0  0  -0.367347  -0.642449  0  2.238724  0
O  O75  1  0.17053020  0.34034100  0.27108671  1  0  -0.717853  0  1.992738  0  0  -0.665685  0  2.230396  0  0  -0.689878  0  2.218078  0  0  -0.367295  -0.642459  0  2.238475  0
O  O76  1  0.10414658  0.00083311  0.85282339  1  0  -0.706181  0  2.03851  0  0  -0.661785  0  2.291609  0  0  -0.68718  0  2.283276  0  0  -0.377795  -0.637735  0  2.297712  0
O  O77  1  0.89585505  0.50083508  0.64717865  1  0  -0.705997  0  2.038831  0  0  -0.661595  0  2.29192  0  0  -0.686989  0  2.283595  0  0  -0.377724  -0.637545  0  2.298015  0
O  O78  1  0.89585381  0.99916725  0.14717429  1  0  -0.706218  0  2.038463  0  0  -0.661841  0  2.291577  0  0  -0.68723  0  2.283205  0  0  -0.377811  -0.63779  0  2.297677  0
O  O79  1  0.10414814  0.49916528  0.35282295  1  0  -0.705985  0  2.038859  0  0  -0.661602  0  2.291942  0  0  -0.686991  0  2.283592  0  0  -0.377664  -0.637543  0  2.29805  0
O  O80  1  0.91971284  0.25187416  0.91142458  1  0  -0.714611  0  2.057125  0  0  -0.664681  0  2.308479  0  0  -0.689238  0  2.296873  0  0  -0.400549  -0.640512  0  2.318626  0
O  O81  1  0.08027978  0.75188014  0.58857664  1  0  -0.714756  0  2.056733  0  0  -0.664767  0  2.308198  0  0  -0.689327  0  2.296592  0  0  -0.400579  -0.640603  0  2.318343  0
O  O82  1  0.08028009  0.74812620  0.08857398  1  0  -0.714712  0  2.05697  0  0  -0.664753  0  2.308411  0  0  -0.68931  0  2.296805  0  0  -0.400593  -0.640581  0  2.318559  0
O  O83  1  0.91972359  0.24812361  0.41142053  1  0  -0.71481  0  2.056739  0  0  -0.664818  0  2.308212  0  0  -0.68938  0  2.296607  0  0  -0.400652  -0.640646  0  2.318362  0
O  O84  1  0.98240613  0.25047456  0.07872337  1  0  -0.706421  0  2.027459  0  0  -0.664719  0  2.275928  0  0  -0.687685  0  2.264434  0  0  -0.380099  -0.642712  0  2.285451  0
O  O85  1  0.01759294  0.75047548  0.42127447  1  0  -0.706439  0  2.027628  0  0  -0.664662  0  2.276184  0  0  -0.687623  0  2.264688  0  0  -0.380082  -0.64265  0  2.285714  0
O  O86  1  0.01759130  0.74952410  0.92127408  1  0  -0.706479  0  2.027388  0  0  -0.664733  0  2.275919  0  0  -0.687699  0  2.264426  0  0  -0.38009  -0.642728  0  2.285442  0
O  O87  1  0.98241201  0.24951980  0.57872061  1  0  -0.706384  0  2.027797  0  0  -0.664606  0  2.276363  0  0  -0.687565  0  2.264865  0  0  -0.380027  -0.642592  0  2.285891  0
O  O88  1  0.94960494  0.00891617  0.37288208  1  0  -0.875233  0  1.836324  0  0  -0.838165  0  2.013641  0  0  -0.852705  0  1.983488  0  0  -0.611006  -0.822197  0  2.037738  0
O  O89  1  0.05040455  0.50891378  0.12711520  1  0  -0.875184  0  1.836459  0  0  -0.838114  0  2.013753  0  0  -0.85265  0  1.983594  0  0  -0.610952  -0.822134  0  2.037853  0
O  O90  1  0.05037437  0.99108418  0.62712278  1  0  -0.875328  0  1.836365  0  0  -0.838235  0  2.013651  0  0  -0.852764  0  1.983483  0  0  -0.610972  -0.822263  0  2.037745  0
O  O91  1  0.94960474  0.49108489  0.87288245  1  0  -0.87526  0  1.836333  0  0  -0.838207  0  2.013643  0  0  -0.852739  0  1.983487  0  0  -0.611026  -0.82223  0  2.037746  0
O  O92  1  0.71939928  0.36470187  0.22000390  1  0  -0.89303  0  1.872823  0  0  -0.853844  0  2.060605  0  0  -0.870123  0  2.034407  0  0  -0.60909  -0.836588  0  2.08232  0
O  O93  1  0.28060571  0.86470187  0.27999585  1  0  -0.89304  0  1.872979  0  0  -0.853847  0  2.060768  0  0  -0.870123  0  2.034567  0  0  -0.609103  -0.836582  0  2.082489  0
O  O94  1  0.28060403  0.63529934  0.77999475  1  0  -0.892989  0  1.872894  0  0  -0.853816  0  2.060683  0  0  -0.870094  0  2.034486  0  0  -0.609069  -0.836559  0  2.082398  0
O  O95  1  0.71939452  0.13529933  0.72000551  1  0  -0.893004  0  1.872875  0  0  -0.853818  0  2.060654  0  0  -0.870098  0  2.034462  0  0  -0.609078  -0.836555  0  2.082374  0
