# generated using pymatgen
data_AgH13C20N2O5
_symmetry_space_group_name_H-M   'P 1'
_cell_length_a   7.92366404
_cell_length_b   9.80766081
_cell_length_c   11.93613644
_cell_angle_alpha   71.41633808
_cell_angle_beta   76.30445250
_cell_angle_gamma   79.12115385
_symmetry_Int_Tables_number   1
_chemical_formula_structural   AgH13C20N2O5
_chemical_formula_sum   'Ag2 H26 C40 N4 O10'
_cell_volume   847.73747380
_cell_formula_units_Z   2
loop_
 _symmetry_equiv_pos_site_id
 _symmetry_equiv_pos_as_xyz
  1  'x, y, z'
loop_
 _atom_site_type_symbol
 _atom_site_label
 _atom_site_symmetry_multiplicity
 _atom_site_fract_x
 _atom_site_fract_y
 _atom_site_fract_z
 _atom_site_occupancy
 _atom_site_hle17_bader_spin_density
 _atom_site_hle17_ddec_charge
 _atom_site_hle17_ddec_spin_density
 _atom_site_hle17_ddec_sum_bond_order
 _atom_site_hle17_magmom
 _atom_site_hse06_10hf_bader_spin_density
 _atom_site_hse06_10hf_ddec_charge
 _atom_site_hse06_10hf_ddec_spin_density
 _atom_site_hse06_10hf_ddec_sum_bond_order
 _atom_site_hse06_10hf_magmom
 _atom_site_hse06_bader_spin_density
 _atom_site_hse06_ddec_charge
 _atom_site_hse06_ddec_spin_density
 _atom_site_hse06_ddec_sum_bond_order
 _atom_site_hse06_magmom
 _atom_site_pbe_bader_spin_density
 _atom_site_pbe_cm5_charge
 _atom_site_pbe_ddec_charge
 _atom_site_pbe_ddec_spin_density
 _atom_site_pbe_ddec_sum_bond_order
 _atom_site_pbe_magmom
Ag  Ag0  1  0.39840579  0.86894190  0.03131845  1  0  0.496843  0  1.470077  0  0  0.345046  0  1.920683  0  0  0.375871  0  1.873745  0  0  0.463123  0.324203  0  1.953717  0
Ag  Ag1  1  0.60159474  0.13106246  0.96868560  1  0  0.496821  0  1.470094  0  0  0.345001  0  1.9207  0  0  0.375831  0  1.873761  0  0  0.463071  0.324153  0  1.953732  0
H  H2  1  0.53255473  0.26385957  0.29019373  1  0  0.095148  0  0.983198  0  0  0.101771  0  1.05307  0  0  0.10515  0  1.050953  0  0  0.096264  0.099446  0  1.05441  0
H  H3  1  0.46743448  0.73614271  0.70980421  1  0  0.095104  0  0.983243  0  0  0.101743  0  1.053096  0  0  0.10512  0  1.050983  0  0  0.096264  0.099418  0  1.054436  0
H  H4  1  0.45618297  0.45762548  0.39593970  1  0  0.088556  0  0.960478  0  0  0.100182  0  1.021139  0  0  0.102866  0  1.020508  0  0  0.096982  0.097689  0  1.0227  0
H  H5  1  0.54381724  0.54237243  0.60406103  1  0  0.088599  0  0.960394  0  0  0.100194  0  1.021098  0  0  0.102878  0  1.020468  0  0  0.096982  0.097704  0  1.02266  0
H  H6  1  0.23587977  0.43183218  0.58193953  1  0  0.097953  0  0.950168  0  0  0.107527  0  1.011108  0  0  0.111076  0  1.008315  0  0  0.101553  0.104188  0  1.014846  0
H  H7  1  0.76412755  0.56816134  0.41806541  1  0  0.097959  0  0.950282  0  0  0.107544  0  1.011183  0  0  0.111097  0  1.008381  0  0  0.10156  0.104178  0  1.014951  0
H  H8  1  0.08989082  0.20416783  0.67670873  1  0  0.106664  0  0.9539  0  0  0.118765  0  1.013404  0  0  0.121908  0  1.011949  0  0  0.104551  0.116689  0  1.014294  0
H  H9  1  0.91011587  0.79582139  0.32329321  1  0  0.106617  0  0.953766  0  0  0.118711  0  1.013301  0  0  0.121854  0  1.011846  0  0  0.104527  0.116636  0  1.014194  0
H  H10  1  0.33042710  0.76696508  0.34751379  1  0  0.37758  0  0.942522  0  0  0.346605  0  1.020593  0  0  0.359777  0  1.002518  0  0  0.284665  0.337546  0  1.030437  0
H  H11  1  0.66955946  0.23302849  0.65249098  1  0  0.377484  0  0.942587  0  0  0.346656  0  1.020485  0  0  0.359827  0  1.002412  0  0  0.284644  0.337597  0  1.030205  0
H  H12  1  0.58081938  0.62590225  0.21668499  1  0  0.091369  0  0.943215  0  0  0.102118  0  1.003676  0  0  0.104373  0  1.001602  0  0  0.120635  0.100517  0  1.005129  0
H  H13  1  0.41918315  0.37410652  0.78331009  1  0  0.091399  0  0.943235  0  0  0.102091  0  1.003772  0  0  0.104345  0  1.001697  0  0  0.120681  0.100492  0  1.005222  0
H  H14  1  0.78556190  0.39946475  0.22639965  1  0  0.123229  0  0.98414  0  0  0.134315  0  1.042233  0  0  0.137266  0  1.041371  0  0  0.112748  0.132191  0  1.042808  0
H  H15  1  0.21443823  0.60054297  0.77359187  1  0  0.123276  0  0.984183  0  0  0.134321  0  1.042311  0  0  0.137271  0  1.04145  0  0  0.112741  0.132199  0  1.04288  0
H  H16  1  0.80045256  0.48539033  0.84401900  1  0  0.112632  0  0.938566  0  0  0.127823  0  0.989733  0  0  0.130658  0  0.988819  0  0  0.115213  0.125953  0  0.990218  0
H  H17  1  0.19956150  0.51461086  0.15597457  1  0  0.112748  0  0.938527  0  0  0.12791  0  0.989728  0  0  0.130744  0  0.988817  0  0  0.115233  0.126041  0  0.990211  0
H  H18  1  0.59949923  0.70842582  0.85226223  1  0  0.085249  0  0.977612  0  0  0.093491  0  1.043165  0  0  0.095159  0  1.042189  0  0  0.115808  0.092322  0  1.043834  0
H  H19  1  0.40050852  0.29158298  0.14772869  1  0  0.085299  0  0.977502  0  0  0.093552  0  1.043023  0  0  0.095227  0  1.042056  0  0  0.115825  0.092375  0  1.043699  0
H  H20  1  0.90890996  0.19962427  0.23265266  1  0  0.125414  0  0.981711  0  0  0.129344  0  1.049607  0  0  0.133648  0  1.046581  0  0  0.11202  0.126257  0  1.051887  0
H  H21  1  0.09108508  0.80037366  0.76734717  1  0  0.125471  0  0.981714  0  0  0.129394  0  1.049603  0  0  0.133703  0  1.046572  0  0  0.112023  0.126308  0  1.051884  0
H  H22  1  0.12804019  0.98873376  0.22444123  1  0  0.080333  0  0.948816  0  0  0.088451  0  1.015513  0  0  0.090098  0  1.014457  0  0  0.115923  0.087231  0  1.016255  0
H  H23  1  0.87196178  0.01126086  0.77556341  1  0  0.080366  0  0.948871  0  0  0.08847  0  1.015584  0  0  0.090117  0  1.014528  0  0  0.115922  0.087249  0  1.016325  0
H  H24  1  0.00282516  0.32483430  0.84183860  1  0  0.106612  0  0.948942  0  0  0.123655  0  0.998478  0  0  0.126245  0  0.997691  0  0  0.113049  0.121953  0  0.998979  0
H  H25  1  0.99718904  0.67516577  0.15815858  1  0  0.106503  0  0.948905  0  0  0.123607  0  0.998392  0  0  0.1262  0  0.9976  0  0  0.113016  0.121904  0  0.998897  0
H  H26  1  0.22299169  0.10599122  0.85200473  1  0  0.085916  0  0.971771  0  0  0.092101  0  1.041354  0  0  0.094528  0  1.039424  0  0  0.114784  0.090402  0  1.042593  0
H  H27  1  0.77701938  0.89401203  0.14799882  1  0  0.085904  0  0.971782  0  0  0.09206  0  1.041413  0  0  0.094488  0  1.039481  0  0  0.114743  0.090363  0  1.04265  0
C  C28  1  0.24070804  0.91340186  0.48190728  1  0  0.069093  0  3.649118  0  0  0.051929  0  3.925225  0  0  0.057689  0  3.936654  0  0  0.076905  0.048108  0  3.917022  0
C  C29  1  0.75929008  0.08660146  0.51809238  1  0  0.068867  0  3.649183  0  0  0.051726  0  3.925334  0  0  0.057484  0  3.936761  0  0  0.076869  0.047914  0  3.917109  0
C  C30  1  0.35270390  0.99787205  0.38937856  1  0  -0.176996  0  3.73488  0  0  -0.181117  0  3.993899  0  0  -0.186744  0  4.012223  0  0  -0.029364  -0.176848  0  3.980932  0
C  C31  1  0.64728234  0.00212369  0.61062486  1  0  -0.176784  0  3.734544  0  0  -0.180862  0  3.99353  0  0  -0.186482  0  4.011853  0  0  -0.029222  -0.17657  0  3.980524  0
C  C32  1  0.34965862  0.12791891  0.42247518  1  0  -0.010194  0  3.818253  0  0  -0.000548  0  4.052864  0  0  -0.004034  0  4.078388  0  0  -0.023306  0.00185  0  4.035462  0
C  C33  1  0.65033138  0.87207795  0.57752402  1  0  -0.010282  0  3.818159  0  0  -0.000645  0  4.052835  0  0  -0.004131  0  4.078359  0  0  -0.023358  0.001748  0  4.035426  0
C  C34  1  0.43453113  0.25331500  0.37240536  1  0  -0.100265  0  3.748922  0  0  -0.123149  0  4.004238  0  0  -0.123903  0  4.024755  0  0  -0.095328  -0.122276  0  3.989704  0
C  C35  1  0.56546598  0.74667749  0.62759722  1  0  -0.100172  0  3.749021  0  0  -0.123058  0  4.004335  0  0  -0.123812  0  4.024849  0  0  -0.095349  -0.122187  0  3.989807  0
C  C36  1  0.39246711  0.35933047  0.43230349  1  0  -0.080418  0  3.769071  0  0  -0.09851  0  4.028369  0  0  -0.102332  0  4.051092  0  0  -0.098626  -0.095856  0  4.013337  0
C  C37  1  0.60753779  0.64066200  0.56769958  1  0  -0.080439  0  3.769245  0  0  -0.098523  0  4.028552  0  0  -0.102344  0  4.051276  0  0  -0.098579  -0.095873  0  4.013514  0
C  C38  1  0.26863154  0.34354678  0.54051653  1  0  -0.030401  0  3.724598  0  0  -0.048455  0  3.979812  0  0  -0.047274  0  3.998748  0  0  -0.086141  -0.049409  0  3.968539  0
C  C39  1  0.73136462  0.65644357  0.45948339  1  0  -0.030505  0  3.724674  0  0  -0.04853  0  3.979794  0  0  -0.047352  0  3.998738  0  0  -0.086191  -0.049459  0  3.968527  0
C  C40  1  0.18628803  0.21857406  0.59344777  1  0  -0.160628  0  3.742872  0  0  -0.182339  0  3.997724  0  0  -0.187024  0  4.016863  0  0  -0.097493  -0.179424  0  3.984987  0
C  C41  1  0.81371135  0.78142057  0.40655643  1  0  -0.160471  0  3.742465  0  0  -0.182157  0  3.997356  0  0  -0.186844  0  4.016502  0  0  -0.097433  -0.179241  0  3.984608  0
C  C42  1  0.23119174  0.11342023  0.53275856  1  0  0.227774  0  3.72952  0  0  0.215031  0  3.986747  0  0  0.223702  0  4.003971  0  0  0.084636  0.208897  0  3.97559  0
C  C43  1  0.76880264  0.88658202  0.46724196  1  0  0.227794  0  3.72937  0  0  0.214963  0  3.986722  0  0  0.223633  0  4.003947  0  0  0.084637  0.208827  0  3.975573  0
C  C44  1  0.19424120  0.76468395  0.51044245  1  0  0.608175  0  3.925909  0  0  0.556434  0  4.238747  0  0  0.588124  0  4.229803  0  0  0.215216  0.534756  0  4.244261  0
C  C45  1  0.80575336  0.23530859  0.48955549  1  0  0.608584  0  3.925512  0  0  0.556683  0  4.238589  0  0  0.588373  0  4.229633  0  0  0.215196  0.535002  0  4.244107  0
C  C46  1  0.45759005  0.96759325  0.27681112  1  0  0.657612  0  3.927647  0  0  0.605618  0  4.23176  0  0  0.639275  0  4.223266  0  0  0.199119  0.582765  0  4.236596  0
C  C47  1  0.54239926  0.03239923  0.72319433  1  0  0.657583  0  3.927664  0  0  0.605569  0  4.231834  0  0  0.639221  0  4.223342  0  0  0.199116  0.582707  0  4.236664  0
C  C48  1  0.63118723  0.58806167  0.13711173  1  0  0.114613  0  3.700164  0  0  0.085116  0  3.945158  0  0  0.091487  0  3.965348  0  0  0.044081  0.08155  0  3.930588  0
C  C49  1  0.36881906  0.41194821  0.86287998  1  0  0.114835  0  3.700336  0  0  0.085351  0  3.945347  0  0  0.091728  0  3.96553  0  0  0.044111  0.081783  0  3.930784  0
C  C50  1  0.74508859  0.46097323  0.14124638  1  0  -0.152465  0  3.672965  0  0  -0.168985  0  3.914085  0  0  -0.177166  0  3.936444  0  0  -0.076382  -0.162555  0  3.897888  0
C  C51  1  0.25490732  0.53903667  0.85874524  1  0  -0.152561  0  3.67301  0  0  -0.169075  0  3.914113  0  0  -0.177254  0  3.936471  0  0  -0.076356  -0.162645  0  3.897915  0
C  C52  1  0.80986821  0.41760299  0.03593359  1  0  0.090643  0  3.744138  0  0  0.101531  0  3.978266  0  0  0.105517  0  3.999481  0  0  0.012367  0.098872  0  3.964475  0
C  C53  1  0.19013548  0.58240689  0.96405768  1  0  0.090736  0  3.744249  0  0  0.101709  0  3.978227  0  0  0.105686  0  3.999446  0  0  0.012463  0.099055  0  3.964434  0
C  C54  1  0.75576822  0.50909002  0.93013120  1  0  -0.144416  0  3.693682  0  0  -0.164956  0  3.943391  0  0  -0.172058  0  3.964444  0  0  -0.076118  -0.16068  0  3.930057  0
C  C55  1  0.24422277  0.49090901  0.06986646  1  0  -0.144657  0  3.693782  0  0  -0.165249  0  3.943523  0  0  -0.17235  0  3.964578  0  0  -0.076206  -0.160969  0  3.930178  0
C  C56  1  0.64235977  0.63493892  0.93312506  1  0  0.119683  0  3.695734  0  0  0.089343  0  3.941001  0  0  0.095859  0  3.961959  0  0  0.042656  0.084396  0  3.927496  0
C  C57  1  0.35764119  0.36507206  0.06686467  1  0  0.119624  0  3.695901  0  0  0.089334  0  3.941091  0  0  0.095834  0  3.962066  0  0  0.042626  0.084393  0  3.927583  0
C  C58  1  0.93362723  0.28410738  0.03668657  1  0  0.090096  0  3.74429  0  0  0.100772  0  3.97835  0  0  0.104936  0  3.998703  0  0  0.014511  0.098496  0  3.965524  0
C  C59  1  0.06638371  0.71589700  0.96331253  1  0  0.090152  0  3.744382  0  0  0.100871  0  3.978312  0  0  0.105049  0  3.998662  0  0  0.014555  0.098588  0  3.965485  0
C  C60  1  0.97117066  0.18498220  0.14491706  1  0  -0.126919  0  3.645597  0  0  -0.143597  0  3.888555  0  0  -0.150518  0  3.908528  0  0  -0.073574  -0.139959  0  3.875818  0
C  C61  1  0.02883378  0.81502217  0.85508388  1  0  -0.1271  0  3.645722  0  0  -0.143779  0  3.888641  0  0  -0.15071  0  3.908617  0  0  -0.073618  -0.140137  0  3.875902  0
C  C62  1  0.09586379  0.06571803  0.14147959  1  0  0.124585  0  3.687613  0  0  0.093003  0  3.934313  0  0  0.099028  0  3.954988  0  0  0.045491  0.089191  0  3.920661  0
C  C63  1  0.90413950  0.93428526  0.85852264  1  0  0.124545  0  3.68774  0  0  0.092957  0  3.934425  0  0  0.098982  0  3.955102  0  0  0.045452  0.089148  0  3.920768  0
C  C64  1  0.02309743  0.25282867  0.92952675  1  0  -0.164989  0  3.726368  0  0  -0.186484  0  3.981897  0  0  -0.193177  0  4.001943  0  0  -0.082747  -0.182399  0  3.969357  0
C  C65  1  0.97691920  0.74718112  0.07047093  1  0  -0.16487  0  3.726211  0  0  -0.186425  0  3.981744  0  0  -0.193125  0  4.001791  0  0  -0.08278  -0.182336  0  3.969202  0
C  C66  1  0.14708025  0.13162071  0.93330088  1  0  0.122975  0  3.707339  0  0  0.088718  0  3.959205  0  0  0.095367  0  3.978692  0  0  0.040461  0.084174  0  3.946806  0
C  C67  1  0.85293067  0.86838364  0.06670158  1  0  0.122974  0  3.707319  0  0  0.088688  0  3.959243  0  0  0.095336  0  3.978736  0  0  0.040559  0.084141  0  3.946855  0
N  N68  1  0.57903301  0.67420274  0.03508476  1  0  -0.289615  0  3.353768  0  0  -0.197604  0  3.625924  0  0  -0.217669  0  3.644943  0  0  -0.347454  -0.184122  0  3.613113  0
N  N69  1  0.42097982  0.32581582  0.96490121  1  0  -0.289772  0  3.354295  0  0  -0.197768  0  3.626472  0  0  -0.217836  0  3.645497  0  0  -0.347546  -0.184286  0  3.61366  0
N  N70  1  0.18510829  0.03964547  0.03763430  1  0  -0.304627  0  3.376714  0  0  -0.210248  0  3.648935  0  0  -0.230349  0  3.667356  0  0  -0.352699  -0.197139  0  3.637319  0
N  N71  1  0.81489303  0.96035348  0.96237018  1  0  -0.304563  0  3.37666  0  0  -0.210143  0  3.648849  0  0  -0.230244  0  3.667271  0  0  -0.35267  -0.19704  0  3.637236  0
O  O72  1  0.16630794  0.98227783  0.56945757  1  0  -0.2094  0  2.363269  0  0  -0.142313  0  2.588738  0  0  -0.159102  0  2.595023  0  0  -0.11466  -0.130944  0  2.584516  0
O  O73  1  0.83369032  0.01772439  0.43054402  1  0  -0.209417  0  2.363248  0  0  -0.14228  0  2.588734  0  0  -0.159069  0  2.595026  0  0  -0.114655  -0.130918  0  2.584517  0
O  O74  1  0.24607683  0.70185239  0.42335938  1  0  -0.553753  0  2.089269  0  0  -0.501494  0  2.306594  0  0  -0.525035  0  2.291949  0  0  -0.332267  -0.485374  0  2.315811  0
O  O75  1  0.75390552  0.29815200  0.57664578  1  0  -0.553978  0  2.088617  0  0  -0.501723  0  2.305924  0  0  -0.525262  0  2.291273  0  0  -0.332367  -0.485601  0  2.315061  0
O  O76  1  0.11235565  0.70496350  0.61103089  1  0  -0.543716  0  1.912529  0  0  -0.509884  0  2.130201  0  0  -0.526873  0  2.120859  0  0  -0.303054  -0.497365  0  2.136268  0
O  O77  1  0.88764092  0.29502350  0.38897988  1  0  -0.543766  0  1.912504  0  0  -0.50988  0  2.13025  0  0  -0.526875  0  2.120917  0  0  -0.302981  -0.49737  0  2.136329  0
O  O78  1  0.44168598  0.84924675  0.25575920  1  0  -0.648382  0  2.071198  0  0  -0.58993  0  2.324343  0  0  -0.615628  0  2.309481  0  0  -0.332809  -0.571667  0  2.332856  0
O  O79  1  0.55830088  0.15074463  0.74424859  1  0  -0.648328  0  2.071225  0  0  -0.589928  0  2.324309  0  0  -0.615629  0  2.309454  0  0  -0.332779  -0.571659  0  2.332782  0
O  O80  1  0.55428894  0.05977811  0.20660791  1  0  -0.601553  0  1.956398  0  0  -0.549057  0  2.205177  0  0  -0.570689  0  2.192788  0  0  -0.320708  -0.533591  0  2.212929  0
O  O81  1  0.44569811  0.94021224  0.79339509  1  0  -0.601587  0  1.956306  0  0  -0.549101  0  2.205083  0  0  -0.570741  0  2.192722  0  0  -0.320759  -0.533668  0  2.212907  0
