# generated using pymatgen
data_Al3H28C53O16
_symmetry_space_group_name_H-M   'P 1'
_cell_length_a   12.79990157
_cell_length_b   12.70617525
_cell_length_c   27.69312784
_cell_angle_alpha   89.80349332
_cell_angle_beta   89.46419571
_cell_angle_gamma   61.55715029
_symmetry_Int_Tables_number   1
_chemical_formula_structural   Al3H28C53O16
_chemical_formula_sum   'Al6 H56 C106 O32'
_cell_volume   3960.11343210
_cell_formula_units_Z   2
loop_
 _symmetry_equiv_pos_site_id
 _symmetry_equiv_pos_as_xyz
  1  'x, y, z'
loop_
 _atom_site_type_symbol
 _atom_site_label
 _atom_site_symmetry_multiplicity
 _atom_site_fract_x
 _atom_site_fract_y
 _atom_site_fract_z
 _atom_site_occupancy
 _atom_site_pbe_bader_charge
 _atom_site_pbe_bader_spin_density
 _atom_site_pbe_cm5_charge
 _atom_site_pbe_ddec_charge
 _atom_site_pbe_ddec_spin_density
 _atom_site_pbe_ddec_sum_bond_order
 _atom_site_pbe_magmom
Al  Al0  1  0.57530424  0.61549662  0.49799926  1  2.497036  0  0.395076  1.687728  0  2.556838  0
Al  Al1  1  0.33983385  0.58731458  0.49929664  1  2.478822  0  0.499566  1.657937  0  2.521321  0
Al  Al2  1  0.57346944  0.36354145  0.50033703  1  2.481714  0  0.506411  1.6632  0  2.503301  0
Al  Al3  1  0.07890204  0.07452063  0.98383561  1  2.495341  0  0.392293  1.689465  0  2.559494  0
Al  Al4  1  0.07280264  0.33019375  0.98507235  1  2.480974  0  0.50674  1.663021  0  2.502953  0
Al  Al5  1  0.31131351  0.11021247  0.98377633  1  2.479568  0  0.504537  1.662139  0  2.504397  0
H  H6  1  0.10263468  0.45845495  0.22753908  1  0.095649  0  0.09779  0.083385  0  1.037185  0
H  H7  1  0.19372808  0.26297343  0.29277956  1  0.071255  0  0.105594  0.098846  0  0.986406  0
H  H8  1  0.00369397  0.48759616  0.76969552  1  0.08809  0  0.097761  0.099499  0  1.037442  0
H  H9  1  0.03348330  0.49970809  0.68242394  1  0.09003  0  0.107566  0.110973  0  1.008786  0
H  H10  1  0.46604046  0.21747594  0.87062217  1  0.094029  0  0.111355  0.118344  0  0.990166  0
H  H11  1  0.60353002  0.18285678  0.80059061  1  0.069552  0  0.105111  0.109101  0  0.991967  0
H  H12  1  0.63318459  0.20405987  0.71374225  1  0.121166  0  0.098142  0.098873  0  1.037055  0
H  H13  1  0.54864150  0.27793986  0.63213454  1  0.123082  0  0.108747  0.115457  0  1.015461  0
H  H14  1  0.95036140  0.12123491  0.85415129  1  0.131744  0  0.113972  0.12459  0  0.999258  0
H  H15  1  0.79587728  0.20532236  0.61797823  1  0.081299  0  0.108316  0.114628  0  0.998414  0
H  H16  1  0.93592150  0.03783228  0.77464058  1  0.10592  0  0.100213  0.100591  0  1.021309  0
H  H17  1  0.04128869  0.31464108  0.22632833  1  0.059115  0  0.100204  0.10343  0  1.027791  0
H  H18  1  0.25350889  0.53928206  0.26718127  1  0.083731  0  0.103604  0.095862  0  0.987533  0
H  H19  1  0.88309693  0.06750698  0.68815929  1  0.058039  0  0.103658  0.105547  0  0.992263  0
H  H20  1  0.84161750  0.49573651  0.86887731  1  0.0861  0  0.109282  0.116402  0  0.995833  0
H  H21  1  0.75264878  0.63407030  0.79873757  1  0.056694  0  0.10437  0.107432  0  0.989797  0
H  H22  1  0.70165012  0.66364279  0.71201392  1  0.085766  0  0.103265  0.110762  0  1.026249  0
H  H23  1  0.68850600  0.57972907  0.63238179  1  0.11579  0  0.115147  0.126694  0  0.997795  0
H  H24  1  0.44943776  0.96675011  0.85040955  1  0.087333  0  0.107747  0.115845  0  1.001074  0
H  H25  1  0.49903000  0.80811885  0.61363861  1  0.129024  0  0.119657  0.130289  0  1.000007  0
H  H26  1  0.55001087  0.94127255  0.76949517  1  0.065722  0  0.108073  0.127232  0  0.991202  0
H  H27  1  0.15859420  0.89015070  0.86727113  1  0.100336  0  0.118251  0.130756  0  0.987622  0
H  H28  1  0.51545105  0.79843332  0.21810594  1  0.079263  0  0.100344  0.094037  0  1.001043  0
H  H29  1  0.43302630  0.39681610  0.19816044  1  0.074113  0  0.104405  0.099899  0  1.019276  0
H  H30  1  0.08847177  0.81886673  0.79712468  1  0.061336  0  0.107622  0.109117  0  0.985213  0
H  H31  1  0.10108311  0.76972880  0.70995679  1  0.052334  0  0.100856  0.100503  0  1.006477  0
H  H32  1  0.19914490  0.74601461  0.63014185  1  0.078962  0  0.104234  0.104968  0  1.039294  0
H  H33  1  0.52420087  0.20517680  0.26372207  1  0.095072  0  0.106742  0.105058  0  0.990767  0
H  H34  1  0.37228237  0.12321975  0.22387393  1  0.081129  0  0.103506  0.098964  0  1.007168  0
H  H35  1  0.85222671  0.13906065  0.22089659  1  0.075687  0  0.111297  0.116104  0  0.970328  0
H  H36  1  0.00430803  0.16009278  0.29052040  1  0.08197  0  0.104427  0.095979  0  1.001113  0
H  H37  1  0.52776810  0.47640415  0.20745249  1  0.05907  0  0.093247  0.079925  0  1.098287  0
H  H38  1  0.39241410  0.60000617  0.14236739  1  0.042583  0  0.101043  0.093877  0  0.996037  0
H  H39  1  0.39886265  0.97817889  0.29027913  1  0.063764  0  0.104551  0.096935  0  0.986667  0
H  H40  1  0.46062194  0.70167890  0.08270563  1  0.063291  0  0.104905  0.10652  0  0.996419  0
H  H41  1  0.66313475  0.68146738  0.08958292  1  0.067917  0  0.108757  0.108605  0  0.979399  0
H  H42  1  0.79820679  0.55625055  0.15348328  1  0.077282  0  0.100929  0.097408  0  1.01155  0
H  H43  1  0.76558509  0.66628706  0.22778569  1  0.054701  0  0.09584  0.092839  0  1.018978  0
H  H44  1  0.92195196  0.56895366  0.22112806  1  0.044483  0  0.093237  0.08371  0  1.022464  0
H  H45  1  0.86734494  0.67499338  0.26980184  1  0.093819  0  0.111645  0.118465  0  0.965597  0
H  H46  1  0.00224180  0.62999318  0.58580047  1  0.093888  0  0.115597  0.127815  0  0.957764  0
H  H47  1  0.13670132  0.64205302  0.58749829  1  0.074942  0  0.09796  0.101388  0  1.035609  0
H  H48  1  0.06151918  0.64219306  0.64275059  1  0.016492  0  0.090376  0.079487  0  1.029036  0
H  H49  1  0.52997363  0.06468792  0.67079153  1  0.050644  0  0.088008  0.086113  0  1.041402  0
H  H50  1  0.42001965  0.66142820  0.26140471  1  0.068612  0  0.095727  0.081332  0  1.042022  0
H  H51  1  0.47968145  0.99963265  0.62512148  1  0.040362  0  0.099687  0.099078  0  0.994818  0
H  H52  1  0.63233833  0.96612736  0.62602511  1  0.05719  0  0.109813  0.118953  0  0.965172  0
H  H53  1  0.58111054  0.49617221  0.29875114  1  0.063425  0  0.106451  0.11078  0  0.990748  0
H  H54  1  0.56307497  0.38842069  0.33480357  1  0.091006  0  0.104552  0.114849  0  0.992785  0
H  H55  1  0.46918894  0.45608174  0.28398255  1  0.037582  0  0.098402  0.09627  0  1.037474  0
H  H56  1  0.21827209  0.77404315  0.20083612  1  0.062707  0  0.101645  0.0904  0  0.991831  0
H  H57  1  0.10188338  0.95212848  0.27253988  1  0.08121  0  0.100541  0.088865  0  1.001636  0
H  H58  1  0.19708171  0.09109336  0.22941735  1  0.076534  0  0.098383  0.087477  0  1.017659  0
H  H59  1  0.08783350  0.42432530  0.85217528  1  0.09679  0  0.108323  0.115468  0  1.015004  0
H  H60  1  0.69439750  0.69690812  0.46982246  1  0.573779  0  0.291581  0.382233  0  0.924756  0
H  H61  1  0.96887845  0.98132950  0.01058381  1  0.581087  0  0.290416  0.381627  0  0.92536  0
C  C62  1  0.36741298  0.73150299  0.43064766  1  1.633301  0  0.274842  0.711759  0  4.16678  0
C  C63  1  0.34846189  0.34962121  0.34421042  1  -0.402009  0  -0.015228  -0.020012  0  4.053831  0
C  C64  1  0.51882566  0.64907733  0.11180360  1  -0.006647  0  -0.086796  -0.077327  0  4.009797  0
C  C65  1  0.63246441  0.63774894  0.11578104  1  -0.039697  0  -0.088228  -0.08024  0  4.025502  0
C  C66  1  0.70809374  0.56829333  0.15237390  1  -0.089908  0  -0.092974  -0.139577  0  4.010749  0
C  C67  1  0.84900381  0.61477283  0.24747284  1  0.352595  0  -0.136754  -0.166921  0  3.934032  0
C  C68  1  0.08401365  0.60601216  0.60578884  1  0.374659  0  -0.135042  -0.171004  0  3.895023  0
C  C69  1  0.55458046  0.98466967  0.64850350  1  0.399224  0  -0.136776  -0.164005  0  3.902054  0
C  C70  1  0.55926991  0.42242496  0.29808737  1  0.35763  0  -0.138372  -0.177837  0  3.880885  0
C  C71  1  0.93572592  0.23339212  0.26986888  1  -0.029231  0  -0.068796  -0.056114  0  3.656926  0
C  C72  1  0.38911709  0.39859060  0.43276924  1  1.649951  0  0.281406  0.720362  0  4.149633  0
C  C73  1  0.85112581  0.22177352  0.23233297  1  -0.026482  0  -0.072129  -0.138558  0  3.632083  0
C  C74  1  0.90819611  0.29525571  0.10377417  1  0.167578  0  -0.035707  -0.190481  0  3.951209  0
C  C75  1  0.77425675  0.36884307  0.38706393  1  0.307154  0  -0.04157  -0.209673  0  3.951537  0
C  C76  1  0.95568165  0.32044699  0.23566700  1  -0.050032  0  -0.081714  -0.167878  0  3.643741  0
C  C77  1  0.87177532  0.30823184  0.19755773  1  0.123598  0  0.008321  0.120779  0  3.820558  0
C  C78  1  0.84516370  0.43098465  0.25946533  1  0.608832  0  0.092823  0.19467  0  3.737914  0
C  C79  1  0.82724781  0.34318806  0.29449667  1  0.074493  0  -0.004947  -0.008404  0  3.83567  0
C  C80  1  0.36396307  0.36509835  0.38647043  1  0.157143  0  -0.041412  -0.206127  0  3.952347  0
C  C81  1  0.75784606  0.42182091  0.22043224  1  -0.039777  0  -0.002807  -0.097246  0  3.602842  0
C  C82  1  0.74216097  0.33065440  0.25542221  1  0.61311  0  0.098686  0.206072  0  3.729842  0
C  C83  1  0.89307925  0.29677492  0.14732053  1  -0.460867  0  -0.022157  -0.027341  0  4.071092  0
C  C84  1  0.71482524  0.39918070  0.43314026  1  1.652459  0  0.27585  0.713431  0  4.164714  0
C  C85  1  0.80218165  0.35806290  0.34441952  1  -0.569069  0  -0.020221  0.002769  0  4.080785  0
C  C86  1  0.35912278  0.93305235  0.26977078  1  -0.012205  0  -0.070442  -0.083836  0  3.634053  0
C  C87  1  0.42375736  0.83341167  0.23076619  1  -0.023632  0  -0.070792  -0.080747  0  3.627979  0
C  C88  1  0.30558785  0.93833369  0.10370971  1  0.160053  0  -0.042279  -0.207231  0  3.987434  0
C  C89  1  0.32847593  0.79125424  0.38510942  1  -0.280998  0  -0.044875  -0.201398  0  3.983129  0
C  C90  1  0.24671719  0.99534467  0.23721287  1  -0.047471  0  -0.071114  -0.083006  0  3.63583  0
C  C91  1  0.34604540  0.21553930  0.23397732  1  -0.041619  0  -0.06965  -0.084956  0  3.625113  0
C  C92  1  0.31173759  0.89614191  0.19690185  1  0.13655  0  0.007256  0.116418  0  3.809575  0
C  C93  1  0.19373280  0.91843336  0.26025419  1  -0.04847  0  -0.07274  -0.082943  0  3.638297  0
C  C94  1  0.30573086  0.85590928  0.29404892  1  0.09136  0  0.006656  0.123222  0  3.804221  0
C  C95  1  0.25826102  0.81904069  0.22124043  1  -0.01462  0  -0.070323  -0.079459  0  3.638384  0
C  C96  1  0.36888783  0.72929705  0.56714956  1  1.564801  0  0.273751  0.638859  0  4.086207  0
C  C97  1  0.37048280  0.75693817  0.25366253  1  -0.025551  0  -0.070348  -0.073748  0  3.633039  0
C  C98  1  0.31035448  0.91943059  0.14700276  1  -0.462163  0  -0.020457  -0.027773  0  4.074586  0
C  C99  1  0.31194066  0.82595989  0.34341453  1  0.036677  0  -0.027759  -0.04008  0  4.086495  0
C  C100  1  0.24520895  0.42608336  0.63608930  1  0.442525  0  0.09958  0.202694  0  3.976881  0
C  C101  1  0.22664525  0.41412779  0.68587477  1  -0.003716  0  -0.011934  -0.026648  0  4.012727  0
C  C102  1  0.29455916  0.32419291  0.19705159  1  0.1521  0  0.007235  0.116063  0  3.788601  0
C  C103  1  0.19213978  0.39506400  0.78679764  1  0.080309  0  -0.004554  0.079807  0  4.032871  0
C  C104  1  0.09330180  0.45212971  0.75478134  1  -0.061234  0  -0.087224  -0.121288  0  3.983069  0
C  C105  1  0.10967704  0.45981346  0.70634733  1  -0.044806  0  -0.089024  -0.119259  0  4.010597  0
C  C106  1  0.17692972  0.38551527  0.83655040  1  -0.05304  0  -0.075482  -0.135382  0  3.909549  0
C  C107  1  0.27522240  0.32168942  0.86634337  1  -0.060492  0  -0.015985  -0.046511  0  4.020001  0
C  C108  1  0.38844954  0.39815390  0.56649065  1  1.572946  0  0.281752  0.673028  0  4.048454  0
C  C109  1  0.45944730  0.31494844  0.64761000  1  -0.099514  0  -0.076386  -0.125729  0  3.939915  0
C  C110  1  0.44468310  0.30331078  0.69715905  1  0.057597  0  -0.010843  0.059049  0  4.056317  0
C  C111  1  0.32691941  0.35414417  0.71672994  1  -0.006358  0  0.007531  0.019669  0  3.923674  0
C  C112  1  0.54363623  0.24160901  0.72889095  1  -0.141459  0  -0.088109  -0.12289  0  4.00338  0
C  C113  1  0.43015986  0.26024282  0.25554939  1  -0.033761  0  -0.068604  -0.074747  0  3.615651  0
C  C114  1  0.52717971  0.22995298  0.77699704  1  0.000506  0  -0.089217  -0.134132  0  4.002973  0
C  C115  1  0.41003443  0.28019585  0.79780287  1  -0.014426  0  -0.004479  0.076981  0  4.034936  0
C  C116  1  0.30975331  0.34338488  0.76702002  1  -0.055979  0  0.008747  0.007409  0  3.891908  0
C  C117  1  0.39076495  0.26842576  0.84702531  1  -0.00449  0  -0.075287  -0.136659  0  3.919515  0
C  C118  1  0.36195261  0.37712856  0.61702054  1  0.077625  0  -0.020302  -0.147988  0  3.970553  0
C  C119  1  0.78566663  0.27957532  0.64072184  1  -0.042245  0  -0.079298  -0.146324  0  3.941139  0
C  C120  1  0.69497311  0.41784807  0.57027797  1  1.550343  0  0.270978  0.637221  0  4.088511  0
C  C121  1  0.81906522  0.25992536  0.68935730  1  -0.03929  0  -0.00731  0.071815  0  4.045905  0
C  C122  1  0.88022164  0.22536090  0.78896079  1  0.001961  0  -0.006504  0.075677  0  4.043845  0
C  C123  1  0.89722452  0.12695386  0.75870728  1  -0.088952  0  -0.087321  -0.124161  0  4.002108  0
C  C124  1  0.33154503  0.33822294  0.29436431  1  0.09737  0  0.008803  0.110129  0  3.784806  0
C  C125  1  0.86838195  0.14336293  0.71095341  1  0.007144  0  -0.089925  -0.135663  0  4.019194  0
C  C126  1  0.91222365  0.20967315  0.83766922  1  -0.057139  0  -0.073772  -0.134501  0  3.91451  0
C  C127  1  0.89953225  0.30641218  0.86586137  1  -0.023856  0  -0.017268  -0.043864  0  4.022196  0
C  C128  1  0.72492043  0.49154777  0.64901470  1  -0.016039  0  -0.072297  -0.132073  0  3.903177  0
C  C129  1  0.75465479  0.47641755  0.69802426  1  -0.013307  0  -0.004903  0.077447  0  4.034407  0
C  C130  1  0.80188580  0.35953840  0.71872685  1  -0.032271  0  0.00649  0.004738  0  3.907089  0
C  C131  1  0.73793297  0.57491077  0.72822560  1  -0.078005  0  -0.085657  -0.123812  0  3.980119  0
C  C132  1  0.24668023  0.29300501  0.27131423  1  -0.02746  0  -0.065978  -0.076943  0  3.624522  0
C  C133  1  0.76647857  0.55832899  0.77605763  1  -0.012945  0  -0.088939  -0.134467  0  4.013525  0
C  C134  1  0.81550832  0.44184641  0.79777360  1  -0.062412  0  -0.007044  0.070864  0  4.044857  0
C  C135  1  0.37970155  0.36857044  0.22012965  1  -0.020999  0  -0.068471  -0.077378  0  3.62075  0
C  C136  1  0.83205198  0.34242574  0.76841890  1  0.046997  0  0.007038  0.004706  0  3.909787  0
C  C137  1  0.85079660  0.42166619  0.84625572  1  -0.022343  0  -0.07917  -0.146396  0  3.936592  0
C  C138  1  0.73873402  0.39436599  0.62082750  1  -0.016905  0  -0.016499  -0.041172  0  4.020112  0
C  C139  1  0.42821138  0.81123050  0.63667673  1  -0.031838  0  -0.073865  -0.126512  0  3.931341  0
C  C140  1  0.41803093  0.84651868  0.68506682  1  -0.050923  0  -0.009588  -0.018535  0  4.023378  0
C  C141  1  0.40064106  0.90772111  0.78513779  1  -0.003727  0  -0.005862  0.09419  0  4.055762  0
C  C142  1  0.48850547  0.91341944  0.75447471  1  0.016271  0  -0.096801  -0.248912  0  3.97746  0
C  C143  1  0.49764257  0.88342562  0.70668622  1  0.489105  0  0.080599  0.200142  0  4.076877  0
C  C144  1  0.19633335  0.40159307  0.23580040  1  -0.056185  0  -0.072501  -0.079923  0  3.641146  0
C  C145  1  0.39064919  0.93682715  0.83438138  1  -0.029632  0  -0.078319  -0.140112  0  3.920792  0
C  C146  1  0.28024164  0.44660491  0.25722260  1  -0.050935  0  -0.070718  -0.084377  0  3.639015  0
C  C147  1  0.30356368  0.93025536  0.86320032  1  -0.003842  0  -0.017129  -0.044367  0  4.028268  0
C  C148  1  0.25889686  0.77481021  0.64594967  1  -0.001768  0  -0.080237  -0.139306  0  3.932913  0
C  C149  1  0.24794922  0.80598807  0.69488309  1  -0.008516  0  -0.005248  0.078832  0  4.032822  0
C  C150  1  0.32828465  0.84246168  0.71501740  1  0.007446  0  0.007802  0.018987  0  3.91691  0
C  C151  1  0.16082212  0.79896317  0.72573099  1  -0.08457  0  -0.088474  -0.12975  0  4.011552  0
C  C152  1  0.15385450  0.82599956  0.77367983  1  -0.005632  0  -0.085979  -0.128433  0  4.016484  0
C  C153  1  0.23257570  0.86371170  0.79475166  1  0.052693  0  -0.005138  0.077378  0  4.046686  0
C  C154  1  0.32028169  0.87156686  0.76483852  1  -0.002109  0  0.004745  -0.002872  0  3.911445  0
C  C155  1  0.22557656  0.89358915  0.84368705  1  -0.072447  0  -0.074305  -0.140306  0  3.919542  0
C  C156  1  0.27030998  0.31526414  0.10297963  1  0.306259  0  -0.043521  -0.208239  0  3.962201  0
C  C157  1  0.28000420  0.31911704  0.14666352  1  -0.597275  0  -0.017571  -0.020535  0  4.053777  0
C  C158  1  0.34890626  0.77602288  0.61737051  1  -0.059527  0  -0.016996  -0.044354  0  4.021918  0
C  C159  1  0.94725416  0.27858989  0.05427559  1  1.68403  0  0.277408  0.714873  0  4.16487  0
C  C160  1  0.25359539  0.29324498  0.05355243  1  1.666622  0  0.281986  0.721566  0  4.152726  0
C  C161  1  0.27998686  0.97320790  0.05411828  1  1.653198  0  0.274831  0.709797  0  4.172375  0
C  C162  1  0.94824767  0.28023901  0.91565848  1  1.555405  0  0.271279  0.637949  0  4.087164  0
C  C163  1  0.25353786  0.30097772  0.91744627  1  1.547988  0  0.279499  0.653103  0  4.066373  0
C  C164  1  0.28484255  0.97134831  0.91423241  1  1.55624  0  0.274257  0.63823  0  4.090435  0
C  C165  1  0.67131858  0.50963351  0.18637906  1  -0.012198  0  -0.018016  0.076496  0  4.01463  0
C  C166  1  0.55635579  0.52339664  0.18222434  1  -0.065624  0  -0.099228  -0.147333  0  4.006987  0
C  C167  1  0.48080814  0.59216370  0.14534831  1  -0.043147  0  -0.093313  -0.078212  0  4.027269  0
O  O168  1  0.68880674  0.50072820  0.45036482  1  -1.221067  0  -0.211325  -0.566676  0  2.292265  0
O  O169  1  0.33465594  0.19627925  0.03488186  1  -1.251863  0  -0.229117  -0.587904  0  2.248036  0
O  O170  1  0.35804429  0.98799857  0.02927182  1  -1.261439  0  -0.249503  -0.614342  0  2.223988  0
O  O171  1  0.47341101  0.70040939  0.44210162  1  -1.214804  0  -0.209812  -0.55828  0  2.28984  0
O  O172  1  0.19556844  0.97683454  0.93625162  1  -1.242579  0  -0.210696  -0.554697  0  2.36263  0
O  O173  1  0.98348027  0.17549057  0.93134425  1  -1.254391  0  -0.211693  -0.560829  0  2.372593  0
O  O174  1  0.95633628  0.36443930  0.93875953  1  -1.280961  0  -0.250972  -0.617179  0  2.272279  0
O  O175  1  0.15109155  0.36992636  0.93587043  1  -1.268541  0  -0.235379  -0.6001  0  2.298595  0
O  O176  1  0.33548943  0.21105775  0.93942843  1  -1.264205  0  -0.235753  -0.599259  0  2.291331  0
O  O177  1  0.35803795  0.00367294  0.93229196  1  -1.27758  0  -0.249127  -0.614522  0  2.27877  0
O  O178  1  0.15528608  0.17314816  0.98497835  1  -1.604679  0  -0.391964  -1.26855  0  2.289747  0
O  O179  1  0.31196129  0.49048142  0.54402484  1  -1.26668  0  -0.228219  -0.595194  0  2.343636  0
O  O180  1  0.29238322  0.71095746  0.45502029  1  -1.259668  0  -0.245966  -0.611671  0  2.235667  0
O  O181  1  0.31326079  0.50154064  0.44893652  1  -1.240844  0  -0.22824  -0.587231  0  2.245267  0
O  O182  1  0.48697997  0.32687768  0.45301155  1  -1.248636  0  -0.227551  -0.587953  0  2.243568  0
O  O183  1  0.68809414  0.32164444  0.45191463  1  -1.255138  0  -0.243488  -0.605609  0  2.2262  0
O  O184  1  0.66489394  0.52029998  0.55312238  1  -1.25173  0  -0.212357  -0.557589  0  2.363935  0
O  O185  1  0.45810403  0.72144358  0.54431543  1  -1.244749  0  -0.210151  -0.548657  0  2.349224  0
O  O186  1  0.29587772  0.69468014  0.55070773  1  -1.273615  0  -0.248957  -0.617688  0  2.299745  0
O  O187  1  0.84025979  0.53143711  0.28003353  1  -1.071976  0  -0.206728  -0.188208  0  2.544065  0
O  O188  1  0.14874164  0.47718907  0.60627683  1  -1.072737  0  -0.204443  -0.183803  0  2.539384  0
O  O189  1  0.58882586  0.88120746  0.67890761  1  -1.084098  0  -0.216371  -0.212515  0  2.533433  0
O  O190  1  0.49158907  0.32640894  0.54919291  1  -1.273101  0  -0.236642  -0.60157  0  2.285315  0
O  O191  1  0.63975327  0.32606765  0.26700936  1  -1.075433  0  -0.206107  -0.201396  0  2.537081  0
O  O192  1  0.68629868  0.33300705  0.54792826  1  -1.268872  0  -0.252034  -0.62061  0  2.27868  0
O  O193  1  0.49569249  0.52065230  0.49856815  1  -1.610231  0  -0.392391  -1.270767  0  2.302013  0
O  O194  1  0.18030569  0.98997871  0.03928012  1  -1.214989  0  -0.209816  -0.55933  0  2.307007  0
O  O195  1  0.96742781  0.18167678  0.03416158  1  -1.223715  0  -0.212573  -0.567817  0  2.293311  0
O  O196  1  0.96332421  0.36279022  0.03525460  1  -1.260591  0  -0.243797  -0.605316  0  2.228366  0
O  O197  1  0.15764719  0.36755529  0.03274719  1  -1.251273  0  -0.230591  -0.59061  0  2.241265  0
O  O198  1  0.64674323  0.70410672  0.49815782  1  -1.362834  0  -0.580517  -0.998827  0  1.791476  0
O  O199  1  0.01152877  0.98228625  0.98174692  1  -1.372997  0  -0.582366  -1.001573  0  1.791355  0
