# generated using pymatgen
data_Zn4H6C24S6O13
_symmetry_space_group_name_H-M   'P 1'
_cell_length_a   20.82455859
_cell_length_b   20.82625599
_cell_length_c   20.81219659
_cell_angle_alpha   60.01727648
_cell_angle_beta   60.01866298
_cell_angle_gamma   60.04135102
_symmetry_Int_Tables_number   1
_chemical_formula_structural   Zn4H6C24S6O13
_chemical_formula_sum   'Zn8 H12 C48 S12 O26'
_cell_volume   6386.21368905
_cell_formula_units_Z   2
loop_
 _symmetry_equiv_pos_site_id
 _symmetry_equiv_pos_as_xyz
  1  'x, y, z'
loop_
 _atom_site_type_symbol
 _atom_site_label
 _atom_site_symmetry_multiplicity
 _atom_site_fract_x
 _atom_site_fract_y
 _atom_site_fract_z
 _atom_site_occupancy
 _atom_site_pbe_bader_charge
 _atom_site_pbe_bader_spin_density
 _atom_site_pbe_cm5_charge
 _atom_site_pbe_ddec_charge
 _atom_site_pbe_ddec_spin_density
 _atom_site_pbe_ddec_sum_bond_order
 _atom_site_pbe_magmom
Zn  Zn0  1  0.78914684  0.63442454  0.78821334  1  1.315603  0  0.671354  0.968677  0  2.366092  0
Zn  Zn1  1  0.78889939  0.78890851  0.78799996  1  1.325136  0  0.670248  0.963502  0  2.37118  0
Zn  Zn2  1  0.63441144  0.78814150  0.78922461  1  1.315788  0  0.671316  0.968941  0  2.365628  0
Zn  Zn3  1  0.78792836  0.78890008  0.63418615  1  1.317846  0  0.670277  0.963365  0  2.370876  0
Zn  Zn4  1  0.21085482  0.36557333  0.21178774  1  1.315629  0  0.671306  0.968551  0  2.365883  0
Zn  Zn5  1  0.21109913  0.21109199  0.21199753  1  1.325066  0  0.670302  0.963633  0  2.37124  0
Zn  Zn6  1  0.36558790  0.21185886  0.21077573  1  1.315773  0  0.671305  0.968961  0  2.365683  0
Zn  Zn7  1  0.21207134  0.21110063  0.36581288  1  1.31779  0  0.670284  0.96335  0  2.370818  0
H  H8  1  0.93908131  0.93925616  0.45803825  1  0.120835  0  0.121526  0.148034  0  0.969233  0
H  H9  1  0.66354635  0.45813876  0.93913728  1  0.113664  0  0.121524  0.147859  0  0.968356  0
H  H10  1  0.45781173  0.93926259  0.66366742  1  0.133278  0  0.121761  0.148373  0  0.968826  0
H  H11  1  0.93913126  0.66349877  0.93899599  1  0.118005  0  0.121622  0.147995  0  0.969258  0
H  H12  1  0.93896453  0.66349700  0.45836587  1  0.120987  0  0.121627  0.148259  0  0.969113  0
H  H13  1  0.66350762  0.93916543  0.93895808  1  0.117491  0  0.121557  0.14798  0  0.969183  0
H  H14  1  0.06091959  0.06074383  0.54196267  1  0.12094  0  0.121526  0.148014  0  0.969217  0
H  H15  1  0.33645272  0.54186132  0.06086361  1  0.11365  0  0.121528  0.147851  0  0.96837  0
H  H16  1  0.54218789  0.06073804  0.33633236  1  0.13328  0  0.121765  0.14838  0  0.968798  0
H  H17  1  0.06086848  0.33650197  0.06100473  1  0.118027  0  0.121622  0.148039  0  0.969204  0
H  H18  1  0.06103529  0.33650383  0.54163411  1  0.121  0  0.121633  0.148278  0  0.969123  0
H  H19  1  0.33649269  0.06083397  0.06104225  1  0.117498  0  0.121553  0.147988  0  0.969194  0
C  C20  1  0.95147040  0.95157090  0.49491398  1  -0.02499  0  -0.089092  -0.13746  0  3.973279  0
C  C21  1  0.60202500  0.49502726  0.95146671  1  -0.058099  0  -0.088941  -0.136934  0  3.970636  0
C  C22  1  0.49478332  0.95155359  0.60212682  1  -0.018863  0  -0.088875  -0.137015  0  3.971717  0
C  C23  1  0.95150581  0.60193623  0.95140181  1  -0.021796  0  -0.089479  -0.13737  0  3.97289  0
C  C24  1  0.95140685  0.60193546  0.49514991  1  -0.018316  0  -0.089752  -0.138342  0  3.972796  0
C  C25  1  0.60194190  0.95151641  0.95138943  1  -0.018154  0  -0.089526  -0.137562  0  3.972633  0
C  C26  1  0.62896873  0.62556298  0.87293790  1  1.55381  0  0.217302  0.609319  0  4.215224  0
C  C27  1  0.57836514  0.57635420  0.92268823  1  -0.095807  0  -0.02464  -0.117256  0  3.985769  0
C  C28  1  0.87265069  0.87304294  0.62542159  1  1.548386  0  0.217208  0.609083  0  4.218792  0
C  C29  1  0.92266613  0.92275384  0.57628570  1  -0.123914  0  -0.024922  -0.117448  0  3.990206  0
C  C30  1  0.62526811  0.87277962  0.62915557  1  1.575372  0  0.217086  0.609052  0  4.217934  0
C  C31  1  0.57609902  0.92268923  0.57854761  1  -0.098556  0  -0.024775  -0.117709  0  3.988322  0
C  C32  1  0.87320468  0.62867899  0.87237592  1  1.509559  0  0.217183  0.609306  0  4.217239  0
C  C33  1  0.92278365  0.57812261  0.92255651  1  -0.094608  0  -0.025198  -0.118135  0  3.988606  0
C  C34  1  0.87278900  0.62867301  0.62573816  1  1.571543  0  0.21734  0.609776  0  4.21655  0
C  C35  1  0.92269073  0.57811821  0.57653453  1  -0.143099  0  -0.024748  -0.117025  0  3.987724  0
C  C36  1  0.62867819  0.87278547  0.87280469  1  1.534994  0  0.217477  0.610317  0  4.216413  0
C  C37  1  0.57811823  0.92267924  0.92266951  1  -0.122975  0  -0.024839  -0.117609  0  3.988182  0
C  C38  1  0.46356148  0.53104012  0.00271934  1  -0.176661  0  -0.021828  -0.007968  0  4.068689  0
C  C39  1  0.99730186  0.99733988  0.46889696  1  -0.197706  0  -0.022017  -0.007927  0  4.070385  0
C  C40  1  0.53110945  0.00266150  0.46356932  1  -0.196247  0  -0.021937  -0.008069  0  4.069525  0
C  C41  1  0.00271570  0.46353010  0.00271644  1  -0.202268  0  -0.021658  -0.007917  0  4.069063  0
C  C42  1  0.00275155  0.46352859  0.53103902  1  -0.178332  0  -0.021635  -0.007695  0  4.068948  0
C  C43  1  0.46352525  0.00268639  0.00275178  1  -0.139261  0  -0.021749  -0.008163  0  4.069295  0
C  C44  1  0.04852962  0.04843013  0.50508618  1  -0.02515  0  -0.089087  -0.137458  0  3.973302  0
C  C45  1  0.39797483  0.50497262  0.04853363  1  -0.058073  0  -0.088941  -0.136944  0  3.970607  0
C  C46  1  0.50521631  0.04844609  0.39787332  1  -0.018861  0  -0.088881  -0.137  0  3.971703  0
C  C47  1  0.04849333  0.39806489  0.04859797  1  -0.021728  0  -0.089505  -0.137482  0  3.972797  0
C  C48  1  0.04859344  0.39806489  0.50485006  1  -0.018235  0  -0.089743  -0.138398  0  3.972844  0
C  C49  1  0.39805840  0.04848394  0.04861054  1  -0.018119  0  -0.089535  -0.137579  0  3.972645  0
C  C50  1  0.37103255  0.37443451  0.12706279  1  1.55383  0  0.217348  0.609337  0  4.215136  0
C  C51  1  0.42163592  0.42364500  0.07731155  1  -0.095789  0  -0.024649  -0.117261  0  3.985673  0
C  C52  1  0.12734989  0.12695769  0.37457783  1  1.548385  0  0.217205  0.609108  0  4.218797  0
C  C53  1  0.07733512  0.07724650  0.42371391  1  -0.124149  0  -0.024931  -0.117481  0  3.990195  0
C  C54  1  0.37473075  0.12722122  0.37084476  1  1.575166  0  0.217098  0.60909  0  4.217956  0
C  C55  1  0.42390032  0.07731208  0.42145236  1  -0.098605  0  -0.024757  -0.117681  0  3.988345  0
C  C56  1  0.12679693  0.37131596  0.12762284  1  1.509216  0  0.217234  0.609531  0  4.217065  0
C  C57  1  0.07721529  0.42187926  0.07744271  1  -0.094061  0  -0.025169  -0.118179  0  3.988562  0
C  C58  1  0.12720939  0.37132735  0.37426253  1  1.571536  0  0.21725  0.609668  0  4.216732  0
C  C59  1  0.07730901  0.42188254  0.42346619  1  -0.143185  0  -0.024716  -0.116919  0  3.98766  0
C  C60  1  0.37132163  0.12721536  0.12719528  1  1.534998  0  0.217559  0.610567  0  4.216119  0
C  C61  1  0.42188151  0.07732056  0.07733157  1  -0.122914  0  -0.024836  -0.117641  0  3.988162  0
C  C62  1  0.53643862  0.46896003  0.99728043  1  -0.141007  0  -0.021862  -0.008077  0  4.068812  0
C  C63  1  0.00269951  0.00266058  0.53110360  1  -0.137011  0  -0.021886  -0.007677  0  4.070208  0
C  C64  1  0.46889027  0.99733826  0.53643007  1  -0.241784  0  -0.021949  -0.007956  0  4.069482  0
C  C65  1  0.99728185  0.53647134  0.99728520  1  -0.138654  0  -0.021685  -0.008052  0  4.06925  0
C  C66  1  0.99724819  0.53647216  0.46896170  1  -0.141929  0  -0.021648  -0.007762  0  4.06899  0
C  C67  1  0.53647477  0.99731273  0.99724911  1  -0.20245  0  -0.021738  -0.008118  0  4.069278  0
S  S68  1  0.47677115  0.62135574  0.95101845  1  0.280587  0  0.081614  0.119553  0  2.732604  0
S  S69  1  0.95097256  0.95091276  0.62144903  1  0.277325  0  0.081204  0.118948  0  2.735116  0
S  S70  1  0.62132616  0.95089136  0.47690889  1  0.280809  0  0.080986  0.118948  0  2.735015  0
S  S71  1  0.95105659  0.47652333  0.95094008  1  0.287112  0  0.08175  0.119866  0  2.732423  0
S  S72  1  0.95111748  0.47651623  0.62148512  1  0.279382  0  0.081742  0.119555  0  2.732157  0
S  S73  1  0.47651012  0.95090283  0.95110810  1  0.286643  0  0.081821  0.119953  0  2.732108  0
S  S74  1  0.52322963  0.37864413  0.04898152  1  0.280566  0  0.081636  0.119598  0  2.732644  0
S  S75  1  0.04902793  0.04908779  0.37855113  1  0.277575  0  0.081164  0.118942  0  2.735164  0
S  S76  1  0.37867367  0.04910851  0.52309144  1  0.280788  0  0.081016  0.118957  0  2.735075  0
S  S77  1  0.04894227  0.52347941  0.04905954  1  0.287041  0  0.081734  0.119882  0  2.732477  0
S  S78  1  0.04888217  0.52348444  0.37851635  1  0.279316  0  0.081715  0.11952  0  2.732152  0
S  S79  1  0.52348991  0.04909629  0.04889279  1  0.286641  0  0.081808  0.119923  0  2.732135  0
O  O80  1  0.75010474  0.75010813  0.74989449  1  -1.234114  0  -0.569801  -1.029723  0  2.522604  0
O  O81  1  0.70319498  0.59005153  0.85338631  1  -1.152733  0  -0.315637  -0.536603  0  2.307339  0
O  O82  1  0.85339726  0.85338690  0.69990494  1  -1.151057  0  -0.321059  -0.54966  0  2.341711  0
O  O83  1  0.59349802  0.70000359  0.85379168  1  -1.155616  0  -0.320864  -0.550014  0  2.337631  0
O  O84  1  0.85298985  0.85409191  0.58977860  1  -1.153731  0  -0.315994  -0.536606  0  2.310883  0
O  O85  1  0.58978804  0.85336495  0.70344658  1  -1.157673  0  -0.315549  -0.536544  0  2.308433  0
O  O86  1  0.85408291  0.70288057  0.85298257  1  -1.145337  0  -0.316224  -0.537191  0  2.309238  0
O  O87  1  0.69969114  0.85337176  0.59352294  1  -1.16823  0  -0.321041  -0.549651  0  2.341214  0
O  O88  1  0.85380186  0.59326528  0.85269708  1  -1.156013  0  -0.320176  -0.548819  0  2.339635  0
O  O89  1  0.85296817  0.70287338  0.59005052  1  -1.163168  0  -0.316495  -0.537951  0  2.309185  0
O  O90  1  0.70287916  0.85407496  0.85300169  1  -1.144162  0  -0.316381  -0.538035  0  2.309425  0
O  O91  1  0.85378591  0.59326065  0.70023384  1  -1.159866  0  -0.32025  -0.54893  0  2.338954  0
O  O92  1  0.59326646  0.85268098  0.85382371  1  -1.156736  0  -0.320508  -0.549392  0  2.338743  0
O  O93  1  0.24989507  0.24988981  0.25010486  1  -1.234028  0  -0.569797  -1.029694  0  2.522601  0
O  O94  1  0.29681010  0.40994689  0.14661258  1  -1.152658  0  -0.31566  -0.536549  0  2.307172  0
O  O95  1  0.14660443  0.14661388  0.30009262  1  -1.151103  0  -0.321093  -0.549765  0  2.341665  0
O  O96  1  0.40650374  0.29999151  0.14620972  1  -1.155716  0  -0.320898  -0.550084  0  2.337659  0
O  O97  1  0.14701007  0.14590615  0.41022170  1  -1.153705  0  -0.315915  -0.536485  0  2.310938  0
O  O98  1  0.41021072  0.14663482  0.29655317  1  -1.157653  0  -0.315565  -0.536573  0  2.308427  0
O  O99  1  0.14592067  0.29711538  0.14701851  1  -1.145231  0  -0.316277  -0.53731  0  2.309327  0
O  O100  1  0.30030823  0.14662958  0.40647873  1  -1.168023  0  -0.321029  -0.549664  0  2.341262  0
O  O101  1  0.14619527  0.40673574  0.14729832  1  -1.156088  0  -0.320133  -0.54884  0  2.339418  0
O  O102  1  0.14703019  0.29712695  0.40994847  1  -1.163159  0  -0.316416  -0.53788  0  2.3093  0
O  O103  1  0.29711957  0.14592863  0.14699662  1  -1.144181  0  -0.316465  -0.538213  0  2.309317  0
O  O104  1  0.14621307  0.40674030  0.29976744  1  -1.159784  0  -0.320247  -0.548911  0  2.338992  0
O  O105  1  0.40673460  0.14731822  0.14617607  1  -1.156746  0  -0.320515  -0.549469  0  2.338654  0
