# generated using pymatgen
data_V2CoH12C12(NO3)2
_symmetry_space_group_name_H-M   'P 1'
_cell_length_a   8.33448960
_cell_length_b   8.44186648
_cell_length_c   11.10529632
_cell_angle_alpha   94.23906333
_cell_angle_beta   93.24919724
_cell_angle_gamma   106.81408549
_symmetry_Int_Tables_number   1
_chemical_formula_structural   V2CoH12C12(NO3)2
_chemical_formula_sum   'V4 Co2 H24 C24 N4 O12'
_cell_volume   743.40546161
_cell_formula_units_Z   2
loop_
 _symmetry_equiv_pos_site_id
 _symmetry_equiv_pos_as_xyz
  1  'x, y, z'
loop_
 _atom_site_type_symbol
 _atom_site_label
 _atom_site_symmetry_multiplicity
 _atom_site_fract_x
 _atom_site_fract_y
 _atom_site_fract_z
 _atom_site_occupancy
 _atom_site_hle17_ddec_charge
 _atom_site_hle17_ddec_spin_density
 _atom_site_hle17_ddec_sum_bond_order
 _atom_site_hle17_magmom
 _atom_site_hse06_10hf_bader_charge
 _atom_site_hse06_10hf_bader_spin_density
 _atom_site_hse06_10hf_ddec_charge
 _atom_site_hse06_10hf_ddec_spin_density
 _atom_site_hse06_10hf_ddec_sum_bond_order
 _atom_site_hse06_10hf_magmom
 _atom_site_hse06_ddec_charge
 _atom_site_hse06_ddec_spin_density
 _atom_site_hse06_ddec_sum_bond_order
 _atom_site_hse06_magmom
 _atom_site_pbe_cm5_charge
 _atom_site_pbe_ddec_charge
 _atom_site_pbe_ddec_spin_density
 _atom_site_pbe_ddec_sum_bond_order
 _atom_site_pbe_magmom
V  V0  1  0.26030178  0.74188265  0.98289225  1  2.010099  0.003691  2.968674  0.005  2.187176  0.006352  2.086424  0.003704  3.353706  0.006  2.187313  0.002186  3.334242  0.004  1.453149  1.99884  0.006234  3.394641  0.01
V  V1  1  0.73970175  0.25812238  0.01710743  1  2.010219  -0.003705  2.968533  -0.005  2.187268  -0.006354  2.086388  -0.003707  3.353804  -0.006  2.187437  -0.002195  3.334092  -0.004  1.453139  1.998878  -0.006272  3.394615  -0.01
V  V2  1  0.42231223  0.09149079  0.18258462  1  1.984885  0.014239  3.021357  0.029  2.164299  0.047854  2.054393  0.027658  3.416071  0.053  2.152067  0.022522  3.388615  0.044  1.437758  1.968439  0.034072  3.468938  0.064
V  V3  1  0.57768705  0.90850801  0.81741363  1  1.984905  -0.014229  3.021342  -0.029  2.164089  -0.047856  2.054385  -0.027659  3.416086  -0.053  2.152091  -0.022522  3.388589  -0.044  1.437725  1.968419  -0.034088  3.468915  -0.064
Co  Co4  1  0.18470843  0.34316342  0.05744219  1  1.162369  2.991446  2.200456  2.553  1.342775  2.585688  1.153097  2.819627  2.627476  2.55  1.22517  2.885088  2.545296  2.655  0.708589  1.08976  2.680237  2.692914  2.381
Co  Co5  1  0.81529065  0.65684283  0.94255287  1  1.162343  -2.991437  2.200497  -2.553  1.342708  -2.585684  1.153088  -2.819619  2.627488  -2.55  1.225196  -2.885078  2.545281  -2.655  0.708504  1.08968  -2.680253  2.692836  -2.381
H  H6  1  0.34178931  0.98129858  0.52289736  1  0.104846  -1.1e-05  0.930615  0.0  0.06314  -2e-06  0.124323  -1e-06  0.983923  0.0  0.126358  -4e-06  0.98235  0.0  0.099429  0.122914  -8e-06  0.985209  0.0
H  H7  1  0.65820720  0.01869898  0.47709981  1  0.104817  1.1e-05  0.930625  0.0  0.063097  2e-06  0.124297  2e-06  0.983915  0.0  0.12633  3e-06  0.982346  0.0  0.099406  0.12289  8e-06  0.985198  0.0
H  H8  1  0.12912698  0.95836170  0.48289770  1  0.078925  -0.000319  0.938485  -0.001  0.046887  -0.000221  0.099101  -9e-05  0.997515  0.0  0.099751  -5.9e-05  0.998076  0.0  0.095303  0.098438  -0.000149  0.997376  0.0
H  H9  1  0.87086787  0.04163835  0.51710314  1  0.078919  0.000319  0.938447  0.001  0.04694  0.00022  0.099065  9e-05  0.997504  0.0  0.099722  5.8e-05  0.998056  0.0  0.095297  0.098404  0.000148  0.997355  0.0
H  H10  1  0.36578224  0.54067466  0.51714178  1  0.106619  0.000206  0.949044  0.0  0.079805  0.000709  0.118819  0.000293  1.00612  0.0  0.121372  0.000221  1.00622  0.0  0.108293  0.117339  0.000335  1.005868  0.0
H  H11  1  0.63421723  0.45933285  0.48286057  1  0.106602  -0.000206  0.94907  0.0  0.080179  -0.000709  0.118829  -0.000293  1.006118  0.0  0.121382  -0.000221  1.006217  0.0  0.1083  0.117336  -0.000335  1.005886  0.0
H  H12  1  0.25797934  0.72806782  0.63926152  1  0.093807  1.5e-05  0.95069  0.0  0.089393  4.4e-05  0.109293  3.4e-05  1.011998  0.0  0.11135  2.2e-05  1.010604  0.0  0.096849  0.107962  4.4e-05  1.012844  0.0
H  H13  1  0.74201746  0.27193472  0.36074135  1  0.093795  -1.6e-05  0.950705  0.0  0.089391  -4.4e-05  0.109312  -3.4e-05  1.011984  0.0  0.111371  -2.2e-05  1.010587  0.0  0.096868  0.10798  -4.4e-05  1.01284  0.0
H  H14  1  0.04379697  0.70580442  0.59938207  1  0.075385  -0.000192  0.961773  0.0  0.045871  -0.000226  0.091562  -6.1e-05  1.0259  0.0  0.091647  -6.2e-05  1.028152  0.0  0.093114  0.091264  -6.9e-05  1.024698  0.0
H  H15  1  0.95619945  0.29419686  0.40061890  1  0.075374  0.000192  0.961774  0.0  0.045699  0.000226  0.091569  6.1e-05  1.025897  0.0  0.091648  6.1e-05  1.028154  0.0  0.093121  0.09127  6.9e-05  1.02471  0.0
H  H16  1  0.44819421  0.22025696  0.66453458  1  0.110173  0.000198  0.955942  0.0  0.097248  0.000673  0.120064  0.000288  1.016164  0.0  0.122568  0.000209  1.016991  0.0  0.108289  0.118544  0.000334  1.015362  0.0
H  H17  1  0.55180638  0.77973812  0.33546442  1  0.110161  -0.000198  0.955924  0.0  0.097212  -0.000673  0.120067  -0.000288  1.016128  0.0  0.12257  -0.00021  1.016956  0.0  0.108335  0.118548  -0.000334  1.015331  0.0
H  H18  1  0.98219268  0.72484411  0.35264446  1  0.099566  0.000149  0.975985  0.0  0.067559  0.000545  0.109497  0.000257  1.037262  0.0  0.110928  0.000199  1.040104  0.0  0.103861  0.108696  0.000283  1.035268  0.0
H  H19  1  0.01780817  0.27515594  0.64735392  1  0.099595  -0.000148  0.975959  0.0  0.067551  -0.000545  0.109501  -0.000257  1.037256  0.0  0.110937  -0.000199  1.040091  0.0  0.103852  0.108691  -0.000283  1.035278  0.0
H  H20  1  0.95942495  0.88371034  0.71159725  1  0.110434  0.000288  0.954975  0.0  0.095168  0.000685  0.119173  0.000344  1.018076  0.0  0.122202  0.000295  1.017429  0.0  0.110557  0.117155  0.000351  1.018529  0.0
H  H21  1  0.04057481  0.11628598  0.28840178  1  0.110405  -0.000288  0.954993  0.0  0.095198  -0.000685  0.119132  -0.000344  1.018092  0.0  0.122161  -0.000295  1.017444  0.0  0.110536  0.117122  -0.000351  1.018566  0.0
H  H22  1  0.99759566  0.56073561  0.16210964  1  0.068595  0.000596  0.981643  0.001  0.086898  0.000934  0.068014  0.000219  1.064151  0.001  0.070825  0.000161  1.060434  0.001  0.117883  0.066832  0.000269  1.065892  0.001
H  H23  1  0.00240798  0.43926570  0.83789163  1  0.068616  -0.000596  0.981572  -0.001  0.086819  -0.000934  0.068031  -0.000219  1.064084  -0.001  0.070841  -0.000161  1.060368  -0.001  0.117878  0.066843  -0.000269  1.065832  -0.001
H  H24  1  0.35991989  0.37558981  0.31926315  1  0.076642  0.000431  0.975258  0.001  0.102869  0.001126  0.079636  0.000201  1.049231  0.001  0.082523  0.000106  1.045861  0.001  0.114447  0.078358  0.000273  1.05095  0.001
H  H25  1  0.64008439  0.62441771  0.68074120  1  0.076665  -0.000432  0.975233  -0.001  0.102771  -0.001126  0.07966  -0.000201  1.049197  -0.001  0.082562  -0.000105  1.045814  -0.001  0.114444  0.078363  -0.000274  1.050908  -0.001
H  H26  1  0.95746152  0.05412880  0.90084151  1  0.075403  0.000606  0.979829  0.001  0.097418  0.001278  0.07905  0.000395  1.055304  0.001  0.081645  0.000319  1.052422  0.001  0.116972  0.078039  0.000432  1.056414  0.001
H  H27  1  0.04253824  0.94586753  0.09915843  1  0.075407  -0.000606  0.979867  -0.001  0.0976  -0.001278  0.079048  -0.000395  1.05533  -0.001  0.081644  -0.000318  1.052447  -0.001  0.116976  0.078036  -0.000432  1.056446  -0.001
H  H28  1  0.42379326  0.38102195  0.85738027  1  0.091871  0.000765  0.93328  0.002  0.100781  0.001459  0.101593  0.000566  0.994183  0.001  0.104688  0.000468  0.990641  0.001  0.121956  0.099635  0.000594  0.996764  0.001
H  H29  1  0.57620807  0.61897562  0.14261890  1  0.091897  -0.000764  0.933263  -0.002  0.100796  -0.001459  0.101606  -0.000566  0.994175  -0.001  0.104699  -0.000468  0.990635  -0.001  0.121962  0.099649  -0.000594  0.996764  -0.001
C  C30  1  0.20523981  0.03768445  0.66949925  1  0.161794  -0.008606  3.704195  -0.011  -0.109981  -0.003953  0.175416  -0.002064  3.944201  -0.003  0.182077  -0.001571  3.964313  -0.002  0.016678  0.170787  -0.003039  3.930565  -0.004
C  C31  1  0.79476309  0.96231437  0.33050095  1  0.161718  0.008602  3.704201  0.011  -0.109989  0.003951  0.175304  0.002063  3.944255  0.003  0.181961  0.001571  3.964372  0.002  0.016657  0.170681  0.003038  3.930615  0.004
C  C32  1  0.17533269  0.64928316  0.45229167  1  0.16741  -0.009085  3.705815  -0.012  0.005919  -0.006464  0.181227  -0.003318  3.943563  -0.004  0.187219  -0.003109  3.965112  -0.004  0.018525  0.177531  -0.003591  3.928654  -0.004
C  C33  1  0.82466493  0.35071813  0.54770755  1  0.167543  0.009084  3.705698  0.012  0.005941  0.006469  0.181278  0.003321  3.943558  0.004  0.187269  0.003114  3.965104  0.004  0.018554  0.177567  0.003591  3.928658  0.004
C  C34  1  0.21563172  0.93687406  0.55448304  1  -0.150727  -2.8e-05  3.667322  0.0  -0.00704  -0.00026  -0.192229  -0.000171  3.90929  0.0  -0.193552  -0.000145  3.919379  0.0  -0.153613  -0.190998  -0.000223  3.902129  0.0
C  C35  1  0.78436480  0.06312350  0.44551593  1  -0.150641  2.8e-05  3.667184  0.0  -0.007222  0.000262  -0.192082  0.000172  3.909094  0.0  -0.193408  0.000147  3.919184  0.0  -0.153554  -0.190849  0.000223  3.901922  0.0
C  C36  1  0.28196871  0.54867361  0.44026515  1  -0.179867  0.007942  3.71015  0.011  -0.064303  0.004545  -0.195517  0.002358  3.952291  0.003  -0.204155  0.002544  3.973598  0.004  -0.084764  -0.189696  0.002205  3.937774  0.003
C  C37  1  0.71803557  0.45133390  0.55973740  1  -0.179918  -0.007938  3.710309  -0.011  -0.06461  -0.004544  -0.195569  -0.002358  3.952478  -0.003  -0.204203  -0.002546  3.973784  -0.004  -0.084849  -0.189767  -0.002204  3.937986  -0.003
C  C38  1  0.17114954  0.74941430  0.56872827  1  -0.156823  0.00012  3.685007  0.001  -0.033906  -5.7e-05  -0.197661  -5.4e-05  3.928368  0.0  -0.199369  -1.2e-05  3.93971  0.0  -0.157181  -0.196418  -8.9e-05  3.920521  0.0
C  C39  1  0.82884735  0.25058450  0.43127258  1  -0.156918  -0.000119  3.685049  -0.001  -0.033788  5.8e-05  -0.197808  5.4e-05  3.928481  0.0  -0.199511  1.2e-05  3.939829  0.0  -0.157259  -0.196558  8.9e-05  3.920654  0.0
C  C40  1  0.33531007  0.18076192  0.71295869  1  -0.177695  0.008179  3.708308  0.011  0.042296  0.004091  -0.195877  0.00209  3.957745  0.003  -0.20484  0.001886  3.978875  0.003  -0.082576  -0.189511  0.002228  3.943175  0.003
C  C41  1  0.66468682  0.81923688  0.28704126  1  -0.177598  -0.008179  3.708081  -0.011  0.042348  -0.004089  -0.195781  -0.002089  3.957525  -0.003  -0.204741  -0.001881  3.978654  -0.003  -0.082613  -0.189422  -0.002227  3.942963  -0.003
C  C42  1  0.07019791  0.65136226  0.34982403  1  -0.159629  0.008094  3.683083  0.011  0.024903  0.004443  -0.173546  0.002356  3.922679  0.003  -0.182445  0.002527  3.945447  0.003  -0.080622  -0.167635  0.00231  3.90738  0.003
C  C43  1  0.92980453  0.34863905  0.65017900  1  -0.159687  -0.008093  3.683161  -0.011  0.024923  -0.004447  -0.17355  -0.002358  3.922763  -0.003  -0.182448  -0.002532  3.945528  -0.003  -0.080641  -0.167652  -0.00231  3.907483  -0.003
C  C44  1  0.06621372  0.99295249  0.73853528  1  -0.163048  0.008059  3.688505  0.011  0.005407  0.003857  -0.179874  0.002008  3.937928  0.003  -0.187432  0.001873  3.95707  0.003  -0.080256  -0.174893  0.00206  3.925125  0.003
C  C45  1  0.93378809  0.00704261  0.26146918  1  -0.162975  -0.008056  3.688455  -0.011  0.005598  -0.003857  -0.179811  -0.002009  3.937939  -0.003  -0.187364  -0.001868  3.957074  -0.003  -0.080204  -0.174846  -0.002058  3.925179  -0.003
C  C46  1  0.07764214  0.55931185  0.24273387  1  0.133448  -0.008854  3.71408  -0.012  0.457468  -0.005706  0.104444  -0.002776  3.974426  -0.004  0.113145  -0.003037  3.99109  -0.005  0.048746  0.098234  -0.002612  3.961057  -0.004
C  C47  1  0.92235981  0.44069193  0.75726207  1  0.133406  0.008848  3.714462  0.012  0.457492  0.005703  0.104429  0.002773  3.974791  0.004  0.113131  0.003039  3.99146  0.005  0.048746  0.098209  0.002609  3.961404  0.004
C  C48  1  0.28089626  0.45776094  0.33007014  1  0.121223  -0.00811  3.724703  -0.011  0.493854  -0.004915  0.097482  -0.002075  3.977462  -0.003  0.105797  -0.002402  3.994414  -0.004  0.044552  0.091192  -0.001861  3.964641  -0.003
C  C49  1  0.71910894  0.54224161  0.66993037  1  0.121266  0.00811  3.724718  0.011  0.494121  0.004913  0.097536  0.002075  3.977476  0.003  0.105841  0.002402  3.994418  0.004  0.044595  0.091245  0.00186  3.964618  0.003
C  C50  1  0.06363971  0.08765724  0.84548877  1  0.129326  -0.008129  3.708788  -0.011  0.476522  -0.003042  0.100202  -0.001229  3.965489  -0.002  0.108657  -0.001137  3.981725  -0.002  0.047783  0.093987  -0.001789  3.953749  -0.003
C  C51  1  0.93636245  0.91233909  0.15451037  1  0.129294  0.008127  3.708703  0.011  0.476049  0.003042  0.100196  0.001229  3.965362  0.002  0.108654  0.00113  3.981608  0.002  0.047713  0.093975  0.001788  3.953641  0.003
C  C52  1  0.32334364  0.27061630  0.82061072  1  0.13469  -0.008299  3.691967  -0.011  0.472516  -0.002981  0.106844  -0.001203  3.944727  -0.002  0.11597  -0.001125  3.960167  -0.002  0.050655  0.099732  -0.001761  3.934177  -0.003
C  C53  1  0.67666009  0.72938128  0.17938674  1  0.134601  0.008293  3.692042  0.011  0.472509  0.002976  0.106755  0.0012  3.944799  0.002  0.115887  0.001117  3.960245  0.002  0.050633  0.099638  0.001761  3.934248  0.003
N  N54  1  0.18954713  0.22476902  0.88665192  1  -0.327733  0.045547  3.318765  0.075  -1.261792  0.049906  -0.274031  0.028105  3.584762  0.043  -0.297355  0.024814  3.595348  0.037  -0.328803  -0.253736  0.027642  3.577551  0.043
N  N55  1  0.81045059  0.77522854  0.11334800  1  -0.327671  -0.045542  3.318935  -0.075  -1.261511  -0.049903  -0.273938  -0.028103  3.584866  -0.043  -0.29729  -0.02481  3.595477  -0.037  -0.328723  -0.253634  -0.027629  3.577616  -0.043
N  N56  1  0.18127617  0.46351934  0.23168397  1  -0.330063  0.042434  3.306153  0.072  -1.254722  0.045795  -0.282761  0.025591  3.583793  0.044  -0.306553  0.022015  3.599714  0.039  -0.325655  -0.260554  0.026935  3.566447  0.045
N  N57  1  0.81873338  0.53648570  0.76831685  1  -0.330099  -0.042432  3.306371  -0.072  -1.254946  -0.045793  -0.282839  -0.025591  3.584032  -0.044  -0.306642  -0.022021  3.599955  -0.039  -0.325694  -0.260618  -0.026931  3.566611  -0.045
O  O58  1  0.28773800  0.55500110  0.00333658  1  -0.881147  0.057839  1.610838  0.086  -0.966455  0.052681  -0.905049  0.032508  1.936353  0.037  -0.951601  0.023159  1.919387  0.021  -0.605929  -0.864985  0.040684  1.950598  0.051
O  O59  1  0.71226396  0.44500268  0.99665936  1  -0.881128  -0.057836  1.610747  -0.086  -0.966437  -0.052679  -0.905001  -0.032506  1.936313  -0.037  -0.951606  -0.023151  1.919314  -0.021  -0.6059  -0.86494  -0.040659  1.950494  -0.051
O  O60  1  0.36382742  0.82404005  0.85521686  1  -0.988205  -0.003449  1.598474  -0.005  -1.058735  -0.005298  -1.015594  -0.002698  1.900321  -0.004  -1.060198  -0.001354  1.894882  -0.002  -0.688328  -0.977435  -0.00442  1.908878  -0.006
O  O61  1  0.63617250  0.17596497  0.14478267  1  -0.988249  0.003449  1.598417  0.005  -1.058835  0.005298  -1.015618  0.002698  1.90031  0.004  -1.060259  0.001354  1.894852  0.002  -0.688319  -0.977474  0.004419  1.908868  0.006
O  O62  1  0.94643370  0.27997877  0.04236731  1  -0.889115  0.058514  1.670625  0.089  -0.969863  0.055422  -0.909774  0.034742  2.006998  0.043  -0.957225  0.025342  1.992267  0.027  -0.607196  -0.870021  0.044575  2.020592  0.06
O  O63  1  0.05356681  0.72002005  0.95763820  1  -0.889097  -0.05851  1.67069  -0.089  -0.969763  -0.05542  -0.90981  -0.034742  2.007023  -0.043  -0.957215  -0.02534  1.992306  -0.027  -0.607198  -0.870017  -0.044555  2.020582  -0.06
O  O64  1  0.41821876  0.10183682  0.32950731  1  -0.759362  -0.001922  1.218789  -0.003  -0.847744  0.001731  -0.766174  0.000659  1.446894  0.001  -0.792955  0.000144  1.438449  0.0  -0.603089  -0.745929  0.000663  1.458757  0.001
O  O65  1  0.58177534  0.89816073  0.67048796  1  -0.759388  0.001917  1.218729  0.003  -0.847728  -0.001732  -0.766213  -0.00066  1.446864  -0.001  -0.793006  -0.000147  1.438409  0.0  -0.603114  -0.745985  -0.000656  1.458718  -0.001
O  O66  1  0.34331755  0.87823362  0.11561361  1  -1.006002  0.000801  1.597633  0.001  -1.067226  0.003084  -1.035769  0.001424  1.906441  0.002  -1.081003  0.000956  1.901057  0.001  -0.693211  -0.997262  0.001835  1.915391  0.002
O  O67  1  0.65668055  0.12176519  0.88438910  1  -1.006046  -0.000799  1.597623  -0.001  -1.067189  -0.003084  -1.03576  -0.001424  1.906471  -0.002  -1.081055  -0.000956  1.901052  -0.001  -0.693214  -0.997282  -0.001834  1.91541  -0.002
O  O68  1  0.30405843  0.20480600  0.12501800  1  -0.928108  0.055002  1.655231  0.08  -1.004344  0.057589  -0.955745  0.03557  1.997108  0.042  -1.00458  0.025214  1.981099  0.024  -0.622065  -0.914497  0.045151  2.011029  0.057
O  O69  1  0.69593846  0.79519280  0.87498196  1  -0.928116  -0.055007  1.655289  -0.08  -1.004342  -0.057591  -0.955752  -0.035573  1.997203  -0.042  -1.004596  -0.025215  1.98117  -0.024  -0.62206  -0.914489  -0.045145  2.011048  -0.057
