# generated using pymatgen
data_CuH12C6IN2
_symmetry_space_group_name_H-M   'P 1'
_cell_length_a   8.53280975
_cell_length_b   8.53282760
_cell_length_c   11.69548061
_cell_angle_alpha   90.00002401
_cell_angle_beta   89.99983714
_cell_angle_gamma   94.23447299
_symmetry_Int_Tables_number   1
_chemical_formula_structural   CuH12C6IN2
_chemical_formula_sum   'Cu4 H48 C24 I4 N8'
_cell_volume   849.21168828
_cell_formula_units_Z   4
loop_
 _symmetry_equiv_pos_site_id
 _symmetry_equiv_pos_as_xyz
  1  'x, y, z'
loop_
 _atom_site_type_symbol
 _atom_site_label
 _atom_site_symmetry_multiplicity
 _atom_site_fract_x
 _atom_site_fract_y
 _atom_site_fract_z
 _atom_site_occupancy
 _atom_site_pbe_bader_spin_density
 _atom_site_pbe_cm5_charge
 _atom_site_pbe_ddec_charge
 _atom_site_pbe_ddec_spin_density
 _atom_site_pbe_ddec_sum_bond_order
 _atom_site_pbe_magmom
Cu  Cu0  1  0.89799931  0.10200195  0.98393042  1  0  0.300352  0.174149  0  2.381728  0
Cu  Cu1  1  0.60199833  0.39800131  0.48392567  1  0  0.300358  0.174208  0  2.381872  0
Cu  Cu2  1  0.10200250  0.89799532  0.01607376  1  0  0.300367  0.174208  0  2.381826  0
Cu  Cu3  1  0.39799401  0.60199487  0.51607252  1  0  0.300365  0.174228  0  2.381895  0
H  H4  1  0.60733298  0.03537544  0.13825790  1  0  0.091969  0.077175  0  1.023541  0
H  H5  1  0.89267193  0.46462885  0.63825593  1  0  0.091978  0.077217  0  1.023557  0
H  H6  1  0.03537130  0.60732879  0.86174233  1  0  0.091968  0.0772  0  1.023602  0
H  H7  1  0.46462437  0.89266737  0.36174280  1  0  0.091971  0.077172  0  1.02354  0
H  H8  1  0.39266551  0.96462421  0.86174286  1  0  0.091947  0.077156  0  1.02355  0
H  H9  1  0.10733026  0.53537312  0.36174312  1  0  0.091955  0.07721  0  1.023534  0
H  H10  1  0.96463051  0.39266849  0.13825758  1  0  0.092005  0.077243  0  1.02347  0
H  H11  1  0.53537538  0.10733345  0.63825711  1  0  0.09197  0.077196  0  1.023517  0
H  H12  1  0.57318661  0.21607978  0.07170149  1  0  0.092534  0.076625  0  1.029292  0
H  H13  1  0.92681836  0.28392214  0.57170110  1  0  0.092537  0.076638  0  1.029259  0
H  H14  1  0.21607675  0.57318349  0.92829861  1  0  0.092535  0.076638  0  1.029251  0
H  H15  1  0.28391993  0.92681385  0.42829948  1  0  0.092537  0.076611  0  1.029287  0
H  H16  1  0.42681431  0.78392103  0.92829842  1  0  0.092536  0.076613  0  1.029291  0
H  H17  1  0.07318500  0.71607982  0.42830052  1  0  0.092535  0.07666  0  1.029251  0
H  H18  1  0.78392506  0.42681378  0.07170044  1  0  0.092527  0.076616  0  1.029274  0
H  H19  1  0.71607992  0.07318814  0.57169958  1  0  0.092529  0.076611  0  1.029288  0
H  H20  1  0.00147723  0.15191177  0.22964514  1  0  0.093252  0.074689  0  1.035923  0
H  H21  1  0.49852655  0.34808984  0.72964633  1  0  0.093219  0.074648  0  1.036052  0
H  H22  1  0.15191204  0.00147138  0.77035211  1  0  0.093239  0.07469  0  1.036034  0
H  H23  1  0.34808417  0.49852560  0.27035371  1  0  0.093221  0.074659  0  1.036025  0
H  H24  1  0.99852496  0.84808279  0.77035155  1  0  0.093223  0.074676  0  1.035978  0
H  H25  1  0.50147096  0.65191217  0.27035187  1  0  0.093234  0.074675  0  1.036054  0
H  H26  1  0.84808996  0.99852674  0.22964593  1  0  0.09324  0.074639  0  1.036043  0
H  H27  1  0.65191558  0.50147522  0.72964705  1  0  0.093219  0.07464  0  1.036014  0
H  H28  1  0.75205871  0.09456547  0.40156032  1  0  0.09688  0.079731  0  1.015061  0
H  H29  1  0.74794393  0.40543773  0.90155863  1  0  0.096872  0.079692  0  1.015139  0
H  H30  1  0.09456537  0.75205575  0.59843802  1  0  0.096882  0.079703  0  1.015146  0
H  H31  1  0.40543158  0.74794386  0.09843942  1  0  0.096882  0.079722  0  1.015081  0
H  H32  1  0.24794202  0.90543299  0.59843873  1  0  0.096882  0.079716  0  1.015126  0
H  H33  1  0.25205367  0.59456545  0.09844042  1  0  0.096867  0.079689  0  1.015108  0
H  H34  1  0.90543779  0.24794386  0.40156104  1  0  0.096865  0.07969  0  1.015151  0
H  H35  1  0.59456592  0.25205815  0.90155877  1  0  0.096882  0.079705  0  1.015096  0
H  H36  1  0.47688140  0.31259459  0.24234273  1  0  0.095666  0.080823  0  1.023226  0
H  H37  1  0.02312008  0.18740821  0.74234316  1  0  0.095674  0.080821  0  1.023244  0
H  H38  1  0.31259135  0.47687865  0.75765651  1  0  0.095673  0.080827  0  1.023235  0
H  H39  1  0.18740492  0.02311832  0.25765916  1  0  0.095686  0.080866  0  1.023208  0
H  H40  1  0.52311708  0.68740506  0.75765718  1  0  0.095702  0.08088  0  1.023177  0
H  H41  1  0.97687967  0.81259260  0.25765931  1  0  0.09568  0.08085  0  1.023204  0
H  H42  1  0.68740948  0.52312098  0.24234340  1  0  0.095657  0.080778  0  1.023305  0
H  H43  1  0.81259483  0.97688250  0.74234331  1  0  0.09567  0.080837  0  1.023206  0
H  H44  1  0.50808537  0.13488893  0.31198068  1  0  0.096772  0.081953  0  1.032368  0
H  H45  1  0.99191780  0.36511659  0.81197847  1  0  0.096741  0.08194  0  1.032414  0
H  H46  1  0.13488678  0.50808124  0.68801784  1  0  0.096772  0.081978  0  1.032348  0
H  H47  1  0.36510847  0.99191606  0.18801855  1  0  0.096758  0.081913  0  1.03242  0
H  H48  1  0.49191653  0.86510951  0.68801923  1  0  0.096765  0.081934  0  1.032404  0
H  H49  1  0.00808107  0.63488776  0.18802058  1  0  0.096756  0.081927  0  1.032424  0
H  H50  1  0.86511512  0.49191721  0.31197950  1  0  0.096747  0.081969  0  1.032357  0
H  H51  1  0.63488786  0.00808596  0.81197964  1  0  0.09676  0.081915  0  1.032417  0
C  C52  1  0.62888523  0.16355374  0.14542220  1  0  -0.083395  -0.095285  0  3.843086  0
C  C53  1  0.87111965  0.33645055  0.64542024  1  0  -0.083415  -0.095285  0  3.843112  0
C  C54  1  0.16354871  0.62887890  0.85457789  1  0  -0.083431  -0.09532  0  3.843218  0
C  C55  1  0.33644571  0.87111609  0.35457863  1  0  -0.083404  -0.095183  0  3.843073  0
C  C56  1  0.37111677  0.83644588  0.85457770  1  0  -0.083402  -0.095203  0  3.843114  0
C  C57  1  0.12888019  0.66355144  0.35457967  1  0  -0.0834  -0.095319  0  3.843124  0
C  C58  1  0.83645182  0.37111720  0.14542202  1  0  -0.083443  -0.095326  0  3.842991  0
C  C59  1  0.66355404  0.12888473  0.64542042  1  0  -0.083406  -0.095235  0  3.843063  0
C  C60  1  0.87398450  0.12601865  0.23722236  1  0  -0.082402  -0.094442  0  3.837647  0
C  C61  1  0.62601984  0.37398332  0.73722434  1  0  -0.082337  -0.094381  0  3.837691  0
C  C62  1  0.12601613  0.87397864  0.76277413  1  0  -0.082329  -0.094436  0  3.837649  0
C  C63  1  0.37397991  0.62601750  0.26277557  1  0  -0.082346  -0.094427  0  3.837811  0
C  C64  1  0.80995110  0.19005319  0.35049696  1  0  -0.0774  -0.080242  0  3.810303  0
C  C65  1  0.69005290  0.30994998  0.85049708  1  0  -0.07741  -0.080172  0  3.810319  0
C  C66  1  0.19005099  0.80994761  0.64950209  1  0  -0.077418  -0.08019  0  3.81043  0
C  C67  1  0.30994685  0.69005083  0.14950369  1  0  -0.077404  -0.080151  0  3.810304  0
C  C68  1  0.56469823  0.22788819  0.25851297  1  0  -0.083837  -0.093555  0  3.839495  0
C  C69  1  0.93530378  0.27211497  0.75851171  1  0  -0.083806  -0.093516  0  3.839425  0
C  C70  1  0.22788398  0.56469495  0.74148797  1  0  -0.083793  -0.093507  0  3.839419  0
C  C71  1  0.27210990  0.93530238  0.24148887  1  0  -0.08387  -0.093632  0  3.839486  0
C  C72  1  0.43530259  0.77211144  0.74148779  1  0  -0.083859  -0.0936  0  3.839467  0
C  C73  1  0.06469480  0.72788585  0.24148905  1  0  -0.083801  -0.093528  0  3.839429  0
C  C74  1  0.77211558  0.43530352  0.25851193  1  0  -0.083794  -0.09355  0  3.839514  0
C  C75  1  0.72788760  0.06469964  0.75851189  1  0  -0.083851  -0.093581  0  3.839508  0
I  I76  1  0.80000734  0.79999956  0.00000612  1  0  -0.223623  -0.417943  0  1.725935  0
I  I77  1  0.69999811  0.69999210  0.50000191  1  0  -0.22365  -0.417995  0  1.725957  0
I  I78  1  0.19999774  0.19999992  0.00000495  1  0  -0.223614  -0.41794  0  1.725821  0
I  I79  1  0.29999686  0.30000759  0.50000056  1  0  -0.223595  -0.417937  0  1.726006  0
N  N80  1  0.80121005  0.19879334  0.13721287  1  0  -0.359632  -0.072122  0  3.48361  0
N  N81  1  0.69879468  0.30120860  0.63720784  1  0  -0.359604  -0.072313  0  3.483758  0
N  N82  1  0.19879176  0.80120393  0.86278874  1  0  -0.359634  -0.072317  0  3.483696  0
N  N83  1  0.30120507  0.69879222  0.36278950  1  0  -0.359611  -0.072295  0  3.483875  0
N  N84  1  0.69301782  0.30698516  0.32774387  1  0  -0.356984  -0.073648  0  3.477795  0
N  N85  1  0.80698510  0.19301802  0.82774541  1  0  -0.35694  -0.073602  0  3.477701  0
N  N86  1  0.30698301  0.69301447  0.67225604  1  0  -0.356986  -0.073692  0  3.477803  0
N  N87  1  0.19301348  0.80698281  0.17225792  1  0  -0.356988  -0.073682  0  3.477811  0
