# generated using pymatgen
data_MnAg2H8(C7N3)2
_symmetry_space_group_name_H-M   'P 1'
_cell_length_a   10.46922967
_cell_length_b   10.46921720
_cell_length_c   12.19675207
_cell_angle_alpha   89.99997814
_cell_angle_beta   90.00000534
_cell_angle_gamma   112.33142442
_symmetry_Int_Tables_number   1
_chemical_formula_structural   MnAg2H8(C7N3)2
_chemical_formula_sum   'Mn2 Ag4 H16 C28 N12'
_cell_volume   1236.56102039
_cell_formula_units_Z   2
loop_
 _symmetry_equiv_pos_site_id
 _symmetry_equiv_pos_as_xyz
  1  'x, y, z'
loop_
 _atom_site_type_symbol
 _atom_site_label
 _atom_site_symmetry_multiplicity
 _atom_site_fract_x
 _atom_site_fract_y
 _atom_site_fract_z
 _atom_site_occupancy
 _atom_site_hle17_ddec_charge
 _atom_site_hle17_ddec_spin_density
 _atom_site_hle17_ddec_sum_bond_order
 _atom_site_hle17_magmom
 _atom_site_hse06_10hf_ddec_charge
 _atom_site_hse06_10hf_ddec_spin_density
 _atom_site_hse06_10hf_ddec_sum_bond_order
 _atom_site_hse06_10hf_magmom
 _atom_site_hse06_ddec_charge
 _atom_site_hse06_ddec_spin_density
 _atom_site_hse06_ddec_sum_bond_order
 _atom_site_hse06_magmom
 _atom_site_pbe_cm5_charge
 _atom_site_pbe_ddec_charge
 _atom_site_pbe_ddec_spin_density
 _atom_site_pbe_ddec_sum_bond_order
 _atom_site_pbe_magmom
Mn  Mn0  1  0.49999912  0.49999977  0.99999994  1  1.021623  4.782227  2.109061  4.654  0.851254  4.683954  2.628248  4.484  0.900346  4.737492  2.567113  4.555  0.660147  0.815439  4.630904  2.671974  4.415
Mn  Mn1  1  0.00000284  0.99999987  0.50000197  1  1.021653  -4.782148  2.10903  -4.654  0.851291  -4.683949  2.628201  -4.484  0.900338  -4.737438  2.56709  -4.555  0.660159  0.815493  -4.630906  2.67189  -4.415
Ag  Ag2  1  0.75422481  0.24577557  0.75687198  1  0.280536  -6e-05  1.777514  0.0  0.180979  -0.00012  2.141353  0.0  0.199684  -8.1e-05  2.10635  0.0  0.318593  0.168296  -0.000159  2.165593  0.0
Ag  Ag3  1  0.74577532  0.25422439  0.25686755  1  0.280592  6.1e-05  1.77756  0.0  0.181039  0.000118  2.141398  0.0  0.199743  8.3e-05  2.106395  0.0  0.318643  0.168357  0.000161  2.165638  0.0
Ag  Ag4  1  0.25422329  0.74577594  0.74313134  1  0.280544  4.5e-05  1.777515  0.0  0.180987  0.00012  2.141355  0.0  0.199691  8.5e-05  2.106352  0.0  0.318612  0.168307  0.00016  2.165591  0.0
Ag  Ag5  1  0.24577514  0.75422578  0.24312937  1  0.280512  -5.7e-05  1.777542  0.0  0.180943  -0.000122  2.141375  0.0  0.19965  -8.5e-05  2.106372  0.0  0.318588  0.168261  -0.000161  2.165618  0.0
H  H6  1  0.71137394  0.69504685  0.83147619  1  0.075557  0.000235  0.953558  0.0  0.083025  0.000772  1.020386  0.0  0.08501  0.00054  1.018879  0.0  0.117508  0.081521  0.000979  1.021689  0.001
H  H7  1  0.78862609  0.80495423  0.33147503  1  0.075578  -0.000214  0.953526  0.0  0.083025  -0.000772  1.020377  0.0  0.085008  -0.000538  1.018871  0.0  0.117503  0.081518  -0.000979  1.021679  -0.001
H  H8  1  0.80495445  0.78862755  0.66852542  1  0.07554  -0.000196  0.953548  0.0  0.083005  -0.000773  1.020384  0.0  0.084993  -0.000541  1.018876  0.0  0.117489  0.081503  -0.000979  1.021686  -0.001
H  H9  1  0.69504654  0.71137360  0.16852429  1  0.075561  0.00021  0.953552  0.0  0.083029  0.000772  1.020382  0.0  0.085015  0.00054  1.018875  0.0  0.117505  0.081524  0.000979  1.021682  0.001
H  H10  1  0.28862697  0.30495450  0.16852434  1  0.075601  0.000222  0.953494  0.0  0.083042  0.000772  1.020349  0.0  0.085028  0.000541  1.01884  0.0  0.117511  0.081542  0.000979  1.021648  0.001
H  H11  1  0.21137347  0.19504609  0.66852550  1  0.075539  -0.000206  0.953545  0.0  0.083003  -0.000773  1.020382  0.0  0.084989  -0.000541  1.018875  0.0  0.1175  0.081499  -0.000979  1.021683  -0.001
H  H12  1  0.19504741  0.21137379  0.33147511  1  0.075591  -0.000199  0.953528  0.0  0.083035  -0.000772  1.020383  0.0  0.085018  -0.000537  1.018877  0.0  0.117508  0.081531  -0.000979  1.021682  -0.001
H  H13  1  0.30495357  0.28862569  0.83147460  1  0.075592  0.000223  0.953493  0.0  0.083039  0.000772  1.020348  0.0  0.085024  0.000541  1.018842  0.0  0.117506  0.081535  0.000979  1.021646  0.001
H  H14  1  0.92334688  0.90775965  0.82251804  1  0.110638  0.000398  0.970679  0.0  0.117696  0.000395  1.03641  0.0  0.120544  0.000375  1.036162  0.0  0.10782  0.115708  0.000428  1.036682  0.0
H  H15  1  0.57665315  0.59224143  0.32251776  1  0.11062  -0.000387  0.970695  0.0  0.117675  -0.000395  1.03643  0.0  0.12052  -0.000374  1.036189  0.0  0.107816  0.115687  -0.000428  1.036697  0.0
H  H16  1  0.59224115  0.57665295  0.67748275  1  0.110626  -0.000371  0.970693  0.0  0.117685  -0.000395  1.036422  0.0  0.12053  -0.000376  1.036186  0.0  0.107815  0.115699  -0.000428  1.036694  0.0
H  H17  1  0.90775849  0.92334716  0.17748320  1  0.110674  0.000392  0.970687  0.0  0.117725  0.000395  1.036426  0.0  0.120573  0.000376  1.036185  0.0  0.107833  0.115737  0.000428  1.036695  0.0
H  H18  1  0.07665212  0.09224171  0.17748248  1  0.110633  0.000398  0.97069  0.0  0.11769  0.000395  1.036418  0.0  0.120535  0.000375  1.036181  0.0  0.107819  0.115703  0.000428  1.036684  0.0
H  H19  1  0.42334681  0.40775993  0.67748277  1  0.11063  -0.000379  0.970677  0.0  0.117683  -0.000395  1.036417  0.0  0.120533  -0.000376  1.036168  0.0  0.107813  0.115695  -0.000428  1.036687  0.0
H  H20  1  0.40775936  0.42334737  0.32251778  1  0.110743  -0.00038  0.970691  0.0  0.11781  -0.000395  1.036389  0.0  0.120657  -0.000373  1.036151  0.0  0.107864  0.115824  -0.000428  1.036659  0.0
H  H21  1  0.09224027  0.07665109  0.82251733  1  0.110625  0.000391  0.970687  0.0  0.117682  0.000395  1.036416  0.0  0.120529  0.000376  1.036173  0.0  0.107811  0.115696  0.000428  1.036686  0.0
C  C22  1  0.65057883  0.34942127  0.83190751  1  -0.036592  0.020149  3.465345  0.02  -0.01595  0.026334  3.797625  0.024  -0.012198  0.023291  3.805177  0.021  -0.026837  -0.018573  0.029742  3.792213  0.027
C  C23  1  0.84942186  0.15057762  0.33190558  1  -0.036616  -0.02016  3.465403  -0.02  -0.015967  -0.026331  3.797678  -0.024  -0.012222  -0.023264  3.805229  -0.021  -0.02684  -0.018594  -0.029736  3.792266  -0.027
C  C24  1  0.15057826  0.84942166  0.66809412  1  -0.036527  -0.020158  3.465344  -0.02  -0.015878  -0.026336  3.797622  -0.024  -0.012131  -0.023274  3.805174  -0.021  -0.026823  -0.018496  -0.029744  3.792212  -0.027
C  C25  1  0.34942169  0.65057905  0.16809220  1  -0.036565  0.020163  3.465371  0.02  -0.01591  0.026336  3.797632  0.024  -0.01216  0.023281  3.805187  0.021  -0.026812  -0.018532  0.029741  3.792218  0.027
C  C26  1  0.85726613  0.14273395  0.68022373  1  -0.031785  -0.021203  3.463936  -0.02  -0.011236  -0.02744  3.796517  -0.025  -0.007389  -0.024232  3.804228  -0.022  -0.024739  -0.013941  -0.03103  3.790974  -0.028
C  C27  1  0.64273361  0.35726502  0.18022090  1  -0.031816  0.021195  3.464015  0.02  -0.011271  0.027437  3.79661  0.025  -0.007416  0.024242  3.804316  0.022  -0.024778  -0.01398  0.031028  3.791064  0.028
C  C28  1  0.35726460  0.64273428  0.81977799  1  -0.031803  0.021163  3.463922  0.02  -0.011257  0.027443  3.796514  0.025  -0.007402  0.024246  3.804219  0.022  -0.024764  -0.013959  0.031033  3.790963  0.028
C  C29  1  0.14273494  0.85726533  0.31977680  1  -0.031781  -0.021207  3.4639  -0.02  -0.01123  -0.027443  3.796484  -0.025  -0.007379  -0.024244  3.804188  -0.022  -0.024771  -0.013937  -0.031033  3.790943  -0.028
C  C30  1  0.75876600  0.74992767  0.90603374  1  0.135776  0.001903  3.71219  0.002  0.108755  0.004113  3.957578  0.003  0.114797  0.003372  3.976916  0.003  0.056955  0.104824  0.004848  3.944325  0.004
C  C31  1  0.74123633  0.75007439  0.40603423  1  0.135787  -0.001946  3.712176  -0.002  0.108789  -0.004108  3.957572  -0.003  0.114833  -0.003367  3.976907  -0.003  0.056978  0.104864  -0.004848  3.944307  -0.004
C  C32  1  0.75007342  0.74123473  0.59396541  1  0.135819  -0.001992  3.712182  -0.002  0.108804  -0.004108  3.957581  -0.003  0.114847  -0.003371  3.976917  -0.003  0.056993  0.104875  -0.004848  3.944325  -0.004
C  C33  1  0.74992662  0.75876646  0.09396591  1  0.135752  0.001979  3.712263  0.002  0.108736  0.004112  3.957657  0.003  0.114778  0.003375  3.976994  0.003  0.056966  0.10481  0.004848  3.944392  0.004
C  C34  1  0.24123491  0.25007367  0.09396515  1  0.135755  0.001947  3.712214  0.002  0.10874  0.004111  3.957595  0.003  0.114782  0.003374  3.976931  0.003  0.056988  0.104813  0.004848  3.944341  0.004
C  C35  1  0.25876458  0.24992696  0.59396547  1  0.135835  -0.001975  3.712181  -0.002  0.108802  -0.004107  3.957554  -0.003  0.114844  -0.003377  3.976888  -0.003  0.057017  0.104879  -0.004848  3.944295  -0.004
C  C36  1  0.24992669  0.25876455  0.40603429  1  0.13576  -0.001989  3.712204  -0.002  0.108747  -0.004106  3.95758  -0.003  0.114791  -0.003375  3.976917  -0.003  0.056979  0.104821  -0.004848  3.944324  -0.004
C  C37  1  0.25007429  0.24123489  0.90603544  1  0.135766  0.00194  3.71222  0.002  0.108744  0.004111  3.957602  0.003  0.114784  0.003372  3.976942  0.003  0.056988  0.104824  0.004848  3.944341  0.004
C  C38  1  0.87784188  0.86898401  0.90204004  1  -0.15951  -0.000531  3.698528  0.0  -0.174332  -2.6e-05  3.936649  0.0  -0.182618  -0.000491  3.959462  0.0  -0.077854  -0.168858  0.000462  3.921336  0.0
C  C39  1  0.62215774  0.63101599  0.40203974  1  -0.159479  0.000506  3.698448  0.0  -0.174301  2.6e-05  3.936549  0.0  -0.182586  0.000486  3.95936  0.0  -0.077843  -0.168822  -0.000463  3.921226  0.0
C  C40  1  0.63101534  0.62215761  0.59795993  1  -0.159507  0.000465  3.698484  0.0  -0.174336  2.6e-05  3.936597  0.0  -0.182623  0.000486  3.959408  0.0  -0.077857  -0.168857  -0.000463  3.921283  0.0
C  C41  1  0.86898391  0.87784151  0.09796122  1  -0.15952  -0.000524  3.698481  0.0  -0.174349  -2.5e-05  3.936626  0.0  -0.182638  -0.000491  3.959437  0.0  -0.077855  -0.168874  0.000463  3.921305  0.0
C  C42  1  0.12215767  0.13101631  0.09795967  1  -0.159502  -0.000534  3.698477  0.0  -0.174322  -2.6e-05  3.936577  0.0  -0.182609  -0.000489  3.959387  0.0  -0.077852  -0.168842  0.000463  3.921254  0.0
C  C43  1  0.37784277  0.36898432  0.59795915  1  -0.159494  0.000492  3.698474  0.0  -0.174313  2.4e-05  3.936588  0.0  -0.182599  0.000488  3.9594  0.0  -0.077848  -0.168833  -0.000462  3.921269  0.0
C  C44  1  0.36898478  0.37784167  0.40203895  1  -0.159593  0.0005  3.698457  0.0  -0.174429  2.4e-05  3.936585  0.0  -0.18272  0.000489  3.959391  0.0  -0.077871  -0.168948  -0.000462  3.921267  0.0
C  C45  1  0.13101525  0.12215778  0.90204013  1  -0.159488  -0.000512  3.698469  0.0  -0.174307  -2.6e-05  3.936574  0.0  -0.182595  -0.000491  3.959387  0.0  -0.077844  -0.168834  0.000463  3.92126  0.0
C  C46  1  0.93651772  0.93651807  0.99999988  1  0.098345  0.001577  3.747908  0.001  0.112819  0.003017  3.970126  0.002  0.116126  0.00255  3.992891  0.002  0.016262  0.110723  0.003609  3.954528  0.003
C  C47  1  0.56348193  0.56348214  0.50000026  1  0.098338  -0.001556  3.747978  -0.001  0.112836  -0.003019  3.970164  -0.002  0.116143  -0.00255  3.992928  -0.002  0.016259  0.11073  -0.003609  3.954581  -0.003
C  C48  1  0.06348148  0.06348146  0.99999999  1  0.098348  0.001574  3.747974  0.001  0.112842  0.003018  3.97016  0.002  0.116151  0.00255  3.992918  0.002  0.016266  0.110737  0.003609  3.954572  0.003
C  C49  1  0.43651898  0.43651921  0.50000027  1  0.098333  -0.00156  3.747918  -0.001  0.112803  -0.003018  3.970136  -0.002  0.116113  -0.00255  3.992893  -0.002  0.016252  0.110698  -0.003609  3.954552  -0.003
N  N50  1  0.59110840  0.40889275  0.87698589  1  -0.420029  0.019045  3.105652  0.003  -0.362139  0.027013  3.386135  0.005  -0.382943  0.02286  3.403223  0.002  -0.355169  -0.347589  0.030591  3.374275  0.007
N  N51  1  0.90889212  0.09110819  0.37698563  1  -0.420039  -0.019024  3.105662  -0.003  -0.362162  -0.027013  3.386162  -0.005  -0.382953  -0.022885  3.403246  -0.002  -0.35519  -0.347612  -0.030592  3.374296  -0.007
N  N52  1  0.09110839  0.90889213  0.62301490  1  -0.420102  -0.019037  3.105678  -0.003  -0.362222  -0.027017  3.386181  -0.005  -0.383015  -0.022885  3.403266  -0.002  -0.355184  -0.347674  -0.030592  3.374325  -0.007
N  N53  1  0.40889116  0.59110757  0.12301382  1  -0.420031  0.01903  3.105675  0.003  -0.362145  0.027011  3.38616  0.005  -0.382949  0.022871  3.403247  0.002  -0.355168  -0.347599  0.030591  3.374301  0.007
N  N54  1  0.91570781  0.08429178  0.63250857  1  -0.424505  -0.018566  3.104703  -0.002  -0.36692  -0.02685  3.385549  -0.005  -0.387908  -0.022593  3.402733  -0.001  -0.358411  -0.352282  -0.030549  3.373687  -0.007
N  N55  1  0.58429233  0.41570824  0.13250900  1  -0.424495  0.018573  3.104724  0.002  -0.366912  0.026851  3.385577  0.005  -0.387907  0.022579  3.402758  0.001  -0.358396  -0.352261  0.03055  3.373705  0.007
N  N56  1  0.41570818  0.58429208  0.86749152  1  -0.424475  0.018607  3.104627  0.002  -0.366892  0.026847  3.385481  0.005  -0.387888  0.022578  3.402661  0.001  -0.358394  -0.35225  0.030546  3.373616  0.007
N  N57  1  0.08429135  0.91570751  0.36749113  1  -0.424491  -0.018565  3.104605  -0.002  -0.366903  -0.026847  3.38544  -0.005  -0.387891  -0.022582  3.402619  -0.001  -0.35839  -0.35226  -0.030546  3.373577  -0.007
N  N58  1  0.69472362  0.69472270  0.00000073  1  -0.301721  0.028271  3.238139  0.017  -0.23349  0.03355  3.502358  0.019  -0.251029  0.029947  3.518027  0.016  -0.308667  -0.220779  0.037171  3.491065  0.022
N  N59  1  0.80527699  0.80527749  0.50000023  1  -0.301792  -0.028258  3.238228  -0.017  -0.233582  -0.033557  3.502461  -0.019  -0.25111  -0.029973  3.518127  -0.016  -0.308681  -0.220873  -0.037173  3.491171  -0.022
N  N60  1  0.30527650  0.30527658  0.99999979  1  -0.301779  0.028265  3.238329  0.017  -0.233504  0.033553  3.502493  0.019  -0.251042  0.029947  3.518162  0.016  -0.308708  -0.22081  0.037171  3.491219  0.022
N  N61  1  0.19472488  0.19472385  0.49999948  1  -0.301784  -0.028252  3.238253  -0.017  -0.2335  -0.033556  3.5024  -0.019  -0.251028  -0.029964  3.518066  -0.016  -0.308722  -0.220804  -0.037172  3.491125  -0.022
