# generated using pymatgen
data_ZnH13C12(NO)4
_symmetry_space_group_name_H-M   'P 1'
_cell_length_a   9.79227173
_cell_length_b   12.08378166
_cell_length_c   14.42817053
_cell_angle_alpha   113.08669803
_cell_angle_beta   89.23472393
_cell_angle_gamma   104.33546588
_symmetry_Int_Tables_number   1
_chemical_formula_structural   ZnH13C12(NO)4
_chemical_formula_sum   'Zn4 H52 C48 N16 O16'
_cell_volume   1514.89052187
_cell_formula_units_Z   4
loop_
 _symmetry_equiv_pos_site_id
 _symmetry_equiv_pos_as_xyz
  1  'x, y, z'
loop_
 _atom_site_type_symbol
 _atom_site_label
 _atom_site_symmetry_multiplicity
 _atom_site_fract_x
 _atom_site_fract_y
 _atom_site_fract_z
 _atom_site_occupancy
 _atom_site_pbe_bader_charge
 _atom_site_pbe_bader_spin_density
 _atom_site_pbe_cm5_charge
 _atom_site_pbe_ddec_charge
 _atom_site_pbe_ddec_spin_density
 _atom_site_pbe_ddec_sum_bond_order
 _atom_site_pbe_magmom
Zn  Zn0  1  0.62707412  0.33224370  0.36484629  1  1.284933  0  0.681145  0.799813  0  2.382249  0
Zn  Zn1  1  0.37292207  0.66775954  0.63516339  1  1.285028  0  0.681142  0.799866  0  2.38237  0
Zn  Zn2  1  0.13167451  0.33583120  0.02512348  1  1.287878  0  0.685585  0.802458  0  2.390328  0
Zn  Zn3  1  0.86832393  0.66417196  0.97487022  1  1.287803  0  0.685598  0.802568  0  2.390374  0
H  H4  1  0.21787341  0.18626491  0.11501062  1  0.104012  0  0.101487  0.131604  0  1.030202  0
H  H5  1  0.78213213  0.81373839  0.88498935  1  0.103965  0  0.1015  0.131595  0  1.030228  0
H  H6  1  0.30531589  0.06718576  0.06910803  1  0.079547  0  0.10316  0.131274  0  0.984615  0
H  H7  1  0.69468762  0.93281377  0.93088657  1  0.079615  0  0.103156  0.131232  0  0.984635  0
H  H8  1  0.51986526  0.21720839  0.04715205  1  0.110377  0  0.121155  0.115315  0  0.983785  0
H  H9  1  0.48013624  0.78279109  0.95283907  1  0.110685  0  0.121152  0.115305  0  0.983802  0
H  H10  1  0.33666755  0.05193583  0.69862400  1  0.130486  0  0.113382  0.10635  0  1.07025  0
H  H11  1  0.66332463  0.94805984  0.30137077  1  0.130556  0  0.113335  0.106267  0  1.070184  0
H  H12  1  0.11339609  0.15842286  0.77657907  1  0.111231  0  0.120164  0.11691  0  1.00323  0
H  H13  1  0.88658600  0.84156246  0.22341447  1  0.110751  0  0.120171  0.116939  0  1.003257  0
H  H14  1  0.62619351  0.16060052  0.88641212  1  0.083258  0  0.11404  0.142276  0  0.987716  0
H  H15  1  0.37380166  0.83940535  0.11357831  1  0.083284  0  0.114035  0.142268  0  0.988006  0
H  H16  1  0.54451116  0.02654295  0.77409237  1  0.076241  0  0.117698  0.141962  0  0.970319  0
H  H17  1  0.45547500  0.97346001  0.22589852  1  0.076421  0  0.117684  0.141903  0  0.970209  0
H  H18  1  0.52366828  0.02166639  0.89476579  1  0.080969  0  0.114271  0.136856  0  0.984518  0
H  H19  1  0.47633143  0.97833026  0.10522235  1  0.081281  0  0.114239  0.136859  0  0.984475  0
H  H20  1  0.61787224  0.66292132  0.19508798  1  0.143206  0  0.114184  0.110273  0  1.059834  0
H  H21  1  0.38211467  0.33707809  0.80492187  1  0.143086  0  0.114154  0.110263  0  1.059803  0
H  H22  1  0.32626965  0.62112711  0.15371485  1  0.129219  0  0.116049  0.115247  0  1.010716  0
H  H23  1  0.67372016  0.37886763  0.84628448  1  0.129903  0  0.116027  0.115273  0  1.010602  0
H  H24  1  0.69900362  0.39180709  0.18762931  1  0.111234  0  0.108343  0.133474  0  1.032762  0
H  H25  1  0.30098413  0.60818763  0.81237070  1  0.111352  0  0.108343  0.133427  0  1.032673  0
H  H26  1  0.77811422  0.53022659  0.16776015  1  0.08464  0  0.111514  0.13928  0  1.000693  0
H  H27  1  0.22188298  0.46976548  0.83223968  1  0.08465  0  0.111519  0.139214  0  1.000746  0
H  H28  1  0.72401599  0.38314704  0.06281015  1  0.072875  0  0.105126  0.124847  0  1.000406  0
H  H29  1  0.27598018  0.61684502  0.93719038  1  0.07295  0  0.10513  0.124849  0  1.000412  0
H  H30  1  0.82906628  0.06724744  0.15556328  1  0.063336  0  0.099642  0.121007  0  1.006408  0
H  H31  1  0.17096001  0.93276083  0.84444171  1  0.063072  0  0.09965  0.121001  0  1.006387  0
H  H32  1  0.72326672  0.17378724  0.18469035  1  0.10952  0  0.098883  0.123469  0  1.035696  0
H  H33  1  0.27674851  0.82621437  0.81531182  1  0.109324  0  0.098827  0.123321  0  1.035806  0
H  H34  1  0.02733674  0.22550575  0.27481903  1  0.106219  0  0.122936  0.119012  0  0.979688  0
H  H35  1  0.97267408  0.77450982  0.72519944  1  0.106179  0  0.122952  0.118985  0  0.979689  0
H  H36  1  0.83046952  0.05463583  0.51357902  1  0.093926  0  0.121397  0.119241  0  1.023364  0
H  H37  1  0.16953709  0.94535363  0.48642480  1  0.094155  0  0.1214  0.119277  0  1.023353  0
H  H38  1  0.60234920  0.14856975  0.49756075  1  0.128248  0  0.124815  0.124699  0  0.985735  0
H  H39  1  0.39765947  0.85143091  0.50245223  1  0.128232  0  0.124797  0.124715  0  0.985818  0
H  H40  1  0.04308255  0.03131903  0.31359532  1  0.097827  0  0.115456  0.136424  0  0.981588  0
H  H41  1  0.95690677  0.96867382  0.68640063  1  0.097964  0  0.11543  0.136382  0  0.981421  0
H  H42  1  0.06637178  0.06946512  0.44654341  1  0.044477  0  0.108076  0.116599  0  1.003617  0
H  H43  1  0.93363701  0.93052802  0.55345328  1  0.044522  0  0.108081  0.116625  0  1.003553  0
H  H44  1  0.12879303  0.18554415  0.39759000  1  0.134585  0  0.117895  0.150249  0  0.994409  0
H  H45  1  0.87120914  0.81444701  0.60240190  1  0.13428  0  0.117914  0.150252  0  0.994398  0
H  H46  1  0.10547188  0.66869483  0.40162887  1  0.133132  0  0.114685  0.109583  0  1.051901  0
H  H47  1  0.89452027  0.33131469  0.59836067  1  0.133307  0  0.114637  0.109576  0  1.051987  0
H  H48  1  0.81183751  0.61840999  0.41522564  1  0.104953  0  0.117186  0.116512  0  1.013859  0
H  H49  1  0.18815676  0.38159315  0.58477292  1  0.105053  0  0.117181  0.11652  0  1.013895  0
H  H50  1  0.22095445  0.38934346  0.35498601  1  0.094811  0  0.104793  0.125732  0  1.00888  0
H  H51  1  0.77905174  0.61066910  0.64501140  1  0.094666  0  0.104806  0.12573  0  1.008874  0
H  H52  1  0.27526087  0.54307713  0.35873785  1  0.092753  0  0.110968  0.139042  0  1.000829  0
H  H53  1  0.72473758  0.45693721  0.64126431  1  0.09271  0  0.11097  0.139022  0  1.000878  0
H  H54  1  0.20588733  0.41271746  0.24164688  1  0.107752  0  0.109174  0.136081  0  1.033498  0
H  H55  1  0.79410987  0.58729592  0.75835220  1  0.107851  0  0.109152  0.136084  0  1.033453  0
C  C56  1  0.38821110  0.20560788  0.21707170  1  1.562582  0  0.199607  0.632485  0  4.176767  0
C  C57  1  0.61179314  0.79439075  0.78292469  1  1.562029  0  0.199632  0.632506  0  4.176764  0
C  C58  1  0.32312779  0.16895961  0.11016705  1  -0.058633  0  -0.163076  -0.322951  0  3.852063  0
C  C59  1  0.67687699  0.83104088  0.88982855  1  -0.057766  0  -0.163077  -0.32286  0  3.852183  0
C  C60  1  0.41499702  0.23512629  0.04897821  1  0.057901  0  -0.062441  -0.122237  0  3.929179  0
C  C61  1  0.58500036  0.76487315  0.95101499  1  0.056814  0  -0.062373  -0.122134  0  3.929295  0
C  C62  1  0.34752931  0.18594023  0.94290605  1  0.977678  0  0.223235  0.246742  0  3.917084  0
C  C63  1  0.65246419  0.81406010  0.05709022  1  0.977438  0  0.223163  0.246624  0  3.917133  0
C  C64  1  0.31385721  0.10092247  0.77545408  1  0.327207  0  -0.007355  -0.126098  0  3.968368  0
C  C65  1  0.68613212  0.89907037  0.22454047  1  0.326821  0  -0.007356  -0.12611  0  3.96832  0
C  C66  1  0.20402805  0.15192122  0.81451876  1  0.39812  0  -0.004626  -0.037213  0  4.040799  0
C  C67  1  0.79595918  0.84806790  0.18547668  1  0.398984  0  -0.004553  -0.037065  0  4.04055  0
C  C68  1  0.53253151  0.08152566  0.85314150  1  0.284076  0  -0.120727  -0.270298  0  3.845507  0
C  C69  1  0.46745818  0.91846807  0.14684641  1  0.283327  0  -0.120712  -0.270321  0  3.845652  0
C  C70  1  0.43498724  0.37417931  0.09424894  1  1.005556  0  0.222271  0.250876  0  3.885606  0
C  C71  1  0.56500526  0.62581727  0.90574265  1  1.005329  0  0.2222  0.250711  0  3.885594  0
C  C72  1  0.53370596  0.57777257  0.16152685  1  0.276387  0  -0.002004  -0.102338  0  3.936028  0
C  C73  1  0.46629049  0.42222415  0.83847587  1  0.276322  0  -0.001997  -0.102432  0  3.935903  0
C  C74  1  0.39095408  0.55646298  0.14062713  1  0.411427  0  -0.007229  -0.036663  0  4.028179  0
C  C75  1  0.60903447  0.44353079  0.85936911  1  0.410766  0  -0.00727  -0.036755  0  4.028156  0
C  C76  1  0.69862645  0.44039522  0.13785604  1  0.256959  0  -0.132335  -0.273843  0  3.841734  0
C  C77  1  0.30136742  0.55959960  0.86214677  1  0.256563  0  -0.132309  -0.273814  0  3.841466  0
C  C78  1  0.89293875  0.20400943  0.09426107  1  1.595825  0  0.200826  0.638463  0  4.173397  0
C  C79  1  0.10709111  0.79600823  0.90575387  1  1.595832  0  0.200764  0.638228  0  4.173762  0
C  C80  1  0.83279321  0.16637365  0.17895300  1  -0.082731  0  -0.164874  -0.318022  0  3.855844  0
C  C81  1  0.16722511  0.83363546  0.82105436  1  -0.082302  0  -0.164951  -0.317924  0  3.855715  0
C  C82  1  0.92067663  0.23991883  0.28346222  1  0.041998  0  -0.061435  -0.121285  0  3.921394  0
C  C83  1  0.07933240  0.76009018  0.71654998  1  0.042199  0  -0.061369  -0.121188  0  3.921235  0
C  C84  1  0.85128456  0.19183881  0.35855007  1  0.976433  0  0.224428  0.248012  0  3.927299  0
C  C85  1  0.14872085  0.80816457  0.64145963  1  0.975884  0  0.224475  0.248223  0  3.927008  0
C  C86  1  0.81032207  0.10290311  0.46801539  1  0.288894  0  -0.006911  -0.138367  0  3.978343  0
C  C87  1  0.18968023  0.89708905  0.53198724  1  0.288854  0  -0.00695  -0.138495  0  3.978074  0
C  C88  1  0.69792107  0.14857425  0.45874937  1  0.409332  0  0.001005  -0.028186  0  4.039692  0
C  C89  1  0.30209197  0.85141995  0.54125666  1  0.408919  0  0.000952  -0.028258  0  4.039434  0
C  C90  1  0.04398966  0.10298609  0.38958143  1  0.22977  0  -0.119835  -0.268985  0  3.862691  0
C  C91  1  0.95601193  0.89700322  0.61041335  1  0.229865  0  -0.119826  -0.268973  0  3.862636  0
C  C92  1  0.93439509  0.37774665  0.32456712  1  1.01384  0  0.223461  0.254728  0  3.889014  0
C  C93  1  0.06560571  0.62225852  0.67544386  1  1.015266  0  0.223507  0.254897  0  3.889122  0
C  C94  1  0.02414406  0.58217010  0.38303417  1  0.28831  0  -0.001939  -0.099607  0  3.937995  0
C  C95  1  0.97585576  0.41784141  0.61695876  1  0.288192  0  -0.001907  -0.099638  0  3.938471  0
C  C96  1  0.88060130  0.55665186  0.38944760  1  0.445809  0  -0.009552  -0.040171  0  4.02916  0
C  C97  1  0.11939275  0.44335405  0.61055117  1  0.445815  0  -0.009559  -0.040134  0  4.029111  0
C  C98  1  0.19814909  0.45233179  0.32315138  1  0.233481  0  -0.133541  -0.276298  0  3.841604  0
C  C99  1  0.80185371  0.54767982  0.67684920  1  0.233639  0  -0.1336  -0.276323  0  3.841725  0
C  C100  1  0.50497605  0.53886678  0.46713812  1  1.568548  0  0.194608  0.452116  0  4.242773  0
C  C101  1  0.49502655  0.46110872  0.53286606  1  1.603215  0  0.194395  0.451862  0  4.242661  0
C  C102  1  0.00770070  0.54141102  0.05802572  1  1.586717  0  0.193918  0.450086  0  4.251079  0
C  C103  1  0.99230713  0.45858207  0.94196610  1  1.599314  0  0.193838  0.449939  0  4.251188  0
N  N104  1  0.40377573  0.12305098  0.85745646  1  -1.241693  0  -0.241788  0.046342  0  3.75736  0
N  N105  1  0.59621673  0.87694561  0.14253722  1  -1.24139  0  -0.241717  0.046544  0  3.757432  0
N  N106  1  0.22602082  0.20403170  0.91852208  1  -1.264283  0  -0.348077  -0.336056  0  3.506766  0
N  N107  1  0.77397139  0.79596396  0.08147061  1  -1.264222  0  -0.348193  -0.336252  0  3.506516  0
N  N108  1  0.56007862  0.46225068  0.13131164  1  -1.213427  0  -0.234926  0.065883  0  3.743929  0
N  N109  1  0.43991432  0.53774780  0.86868681  1  -1.213108  0  -0.234919  0.066229  0  3.743495  0
N  N110  1  0.33096743  0.42945774  0.09838850  1  -1.249975  0  -0.358541  -0.343104  0  3.567887  0
N  N111  1  0.66903432  0.57054269  0.90160431  1  -1.24972  0  -0.358413  -0.343055  0  3.567688  0
N  N112  1  0.90716391  0.13177443  0.40471554  1  -1.232945  0  -0.244158  0.038203  0  3.776199  0
N  N113  1  0.09284017  0.86822057  0.59529077  1  -1.232524  0  -0.244111  0.038233  0  3.776288  0
N  N114  1  0.72460624  0.20324260  0.39037916  1  -1.207415  0  -0.344205  -0.340164  0  3.488925  0
N  N115  1  0.27540399  0.79675994  0.60963442  1  -1.207336  0  -0.344174  -0.340173  0  3.48877  0
N  N116  1  0.05671501  0.46881613  0.34293763  1  -1.208284  0  -0.233046  0.067606  0  3.7476  0
N  N117  1  0.94328365  0.53119545  0.65706641  1  -1.209457  0  -0.233027  0.067447  0  3.747822  0
N  N118  1  0.82614821  0.42905850  0.35330301  1  -1.261685  0  -0.35903  -0.34144  0  3.56086  0
N  N119  1  0.17385443  0.57094947  0.64670679  1  -1.262085  0  -0.359061  -0.341466  0  3.560835  0
O  O120  1  0.52589627  0.24057873  0.22840560  1  -1.182719  0  -0.339105  -0.580502  0  2.371944  0
O  O121  1  0.47410352  0.75941895  0.77159743  1  -1.182548  0  -0.339126  -0.580544  0  2.371921  0
O  O122  1  0.30988577  0.19786550  0.28433342  1  -1.203518  0  -0.344425  -0.58545  0  2.093288  0
O  O123  1  0.69010513  0.80212922  0.71566035  1  -1.203071  0  -0.34443  -0.585463  0  2.093452  0
O  O124  1  0.02872799  0.25245038  0.10764668  1  -1.183557  0  -0.33504  -0.566203  0  2.377014  0
O  O125  1  0.97129317  0.74756528  0.89236487  1  -1.183335  0  -0.335119  -0.566294  0  2.376811  0
O  O126  1  0.81199367  0.18435967  0.02034017  1  -1.192718  0  -0.343244  -0.583271  0  2.082981  0
O  O127  1  0.18802887  0.81565689  0.97966473  1  -1.192952  0  -0.343062  -0.582993  0  2.083549  0
O  O128  1  0.55991356  0.50227313  0.38496168  1  -1.167109  0  -0.303876  -0.487307  0  2.276586  0
O  O129  1  0.44007723  0.49771900  0.61505967  1  -1.166904  0  -0.303821  -0.487302  0  2.275392  0
O  O130  1  0.45544440  0.63419603  0.50106582  1  -1.167077  0  -0.321559  -0.519423  0  2.374598  0
O  O131  1  0.54454260  0.36579322  0.49894838  1  -1.167279  0  -0.321507  -0.519258  0  2.375268  0
O  O132  1  0.06918729  0.50999271  0.11591537  1  -1.168894  0  -0.305914  -0.492333  0  2.27948  0
O  O133  1  0.93081541  0.49001414  0.88406842  1  -1.168391  0  -0.305906  -0.492377  0  2.278923  0
O  O134  1  0.95530327  0.63505073  0.08637797  1  -1.175575  0  -0.321735  -0.519367  0  2.371516  0
O  O135  1  0.04469264  0.36495423  0.91361425  1  -1.175899  0  -0.32153  -0.519106  0  2.372089  0
