# generated using pymatgen
data_Zn4H20C40O29
_symmetry_space_group_name_H-M   'P 1'
_cell_length_a   23.79305395
_cell_length_b   23.79435878
_cell_length_c   23.79282417
_cell_angle_alpha   66.23340071
_cell_angle_beta   72.63830152
_cell_angle_gamma   107.37085510
_symmetry_Int_Tables_number   1
_chemical_formula_structural   Zn4H20C40O29
_chemical_formula_sum   'Zn8 H40 C80 O58'
_cell_volume   10325.44220068
_cell_formula_units_Z   2
loop_
 _symmetry_equiv_pos_site_id
 _symmetry_equiv_pos_as_xyz
  1  'x, y, z'
loop_
 _atom_site_type_symbol
 _atom_site_label
 _atom_site_symmetry_multiplicity
 _atom_site_fract_x
 _atom_site_fract_y
 _atom_site_fract_z
 _atom_site_occupancy
 _atom_site_pbe_bader_charge
 _atom_site_pbe_bader_spin_density
 _atom_site_pbe_cm5_charge
 _atom_site_pbe_ddec_charge
 _atom_site_pbe_ddec_spin_density
 _atom_site_pbe_ddec_sum_bond_order
 _atom_site_pbe_magmom
Zn  Zn0  1  0.05630039  0.95622182  0.48748581  1  1.320116  0  0.682524  0.96689  0  2.369432  0
Zn  Zn1  1  0.05630027  0.10007855  0.45622610  1  1.3181  0  0.682463  0.966672  0  2.369772  0
Zn  Zn2  1  0.94369317  0.98748001  0.45621754  1  1.320025  0  0.68246  0.966771  0  2.369347  0
Zn  Zn3  1  0.94370983  0.95622023  0.60008218  1  1.318173  0  0.682442  0.966794  0  2.369656  0
Zn  Zn4  1  0.94369916  0.54377654  0.01251494  1  1.320156  0  0.682498  0.966811  0  2.369585  0
Zn  Zn5  1  0.05630878  0.51252127  0.04378175  1  1.320121  0  0.682464  0.966792  0  2.369328  0
Zn  Zn6  1  0.94369744  0.39991944  0.04377995  1  1.318205  0  0.682474  0.966796  0  2.369602  0
Zn  Zn7  1  0.05628861  0.54377535  0.89991962  1  1.318279  0  0.682516  0.966917  0  2.369516  0
H  H8  1  0.92363430  0.79821002  0.77815082  1  0.122861  0  0.11377  0.120401  0  0.98347  0
H  H9  1  0.07636765  0.70178908  0.72184978  1  0.122785  0  0.113773  0.120427  0  0.983482  0
H  H10  1  0.92362996  0.70178366  0.87457829  1  0.12014  0  0.113787  0.12044  0  0.983647  0
H  H11  1  0.07637175  0.79821572  0.62542354  1  0.12014  0  0.113863  0.120538  0  0.983691  0
H  H12  1  0.92363104  0.12542620  0.29819762  1  0.11992  0  0.113782  0.12049  0  0.983727  0
H  H13  1  0.07637091  0.37457449  0.20180314  1  0.11987  0  0.11382  0.120548  0  0.983822  0
H  H14  1  0.92363709  0.22185531  0.20177359  1  0.122488  0  0.113839  0.120548  0  0.983838  0
H  H15  1  0.07636550  0.27814654  0.29822694  1  0.122402  0  0.113796  0.12054  0  0.983795  0
H  H16  1  0.91903519  0.62798013  0.08598862  1  0.630675  0  0.309493  0.353676  0  0.966292  0
H  H17  1  0.08096062  0.58598074  0.12801412  1  0.631468  0  0.309428  0.353609  0  0.966389  0
H  H18  1  0.08063501  0.70094495  0.24266038  1  0.598235  0  0.317925  0.335243  0  0.928875  0
H  H19  1  0.91934927  0.74261904  0.20095597  1  0.599375  0  0.317898  0.335362  0  0.928633  0
H  H20  1  0.91938299  0.79907771  0.25731630  1  0.598128  0  0.31794  0.335245  0  0.928715  0
H  H21  1  0.08057828  0.75728859  0.29913667  1  0.59943  0  0.317878  0.335223  0  0.929126  0
H  H22  1  0.08091017  0.87195064  0.41408061  1  0.630612  0  0.30939  0.353625  0  0.966852  0
H  H23  1  0.91903566  0.91401379  0.37199166  1  0.631197  0  0.309435  0.353542  0  0.966398  0
H  H24  1  0.08097482  0.49494751  0.79107270  1  0.634008  0  0.309409  0.353681  0  0.966265  0
H  H25  1  0.91904636  0.29102259  0.99499192  1  0.63451  0  0.309466  0.353594  0  0.966552  0
H  H26  1  0.91935942  0.17671050  0.87969399  1  0.581379  0  0.317912  0.33541  0  0.928609  0
H  H27  1  0.08064457  0.37966811  0.67674124  1  0.586335  0  0.317821  0.33509  0  0.928861  0
H  H28  1  0.08058432  0.32328629  0.62030860  1  0.581764  0  0.317949  0.335364  0  0.928793  0
H  H29  1  0.91938648  0.12030497  0.82328873  1  0.581721  0  0.318023  0.33541  0  0.928522  0
H  H30  1  0.91903648  0.00502570  0.70895684  1  0.634032  0  0.309452  0.353664  0  0.966259  0
H  H31  1  0.08091006  0.20896224  0.50502215  1  0.634375  0  0.309422  0.353614  0  0.966707  0
H  H32  1  0.78602245  0.49496874  0.08595867  1  0.635048  0  0.309438  0.356618  0  0.962012  0
H  H33  1  0.78601231  0.29102911  0.12802250  1  0.639563  0  0.309429  0.353924  0  0.966808  0
H  H34  1  0.55640186  0.17670786  0.24268325  1  0.570356  0  0.317984  0.335309  0  0.929068  0
H  H35  1  0.55641198  0.37969207  0.20089621  1  0.60137  0  0.317944  0.335385  0  0.929227  0
H  H36  1  0.44359577  0.32328632  0.25733990  1  0.570318  0  0.317959  0.335385  0  0.928992  0
H  H37  1  0.44359026  0.12032868  0.29901197  1  0.602016  0  0.317853  0.33513  0  0.929191  0
H  H38  1  0.21397864  0.00504659  0.41396884  1  0.634679  0  0.309403  0.356655  0  0.96158  0
H  H39  1  0.21398628  0.20896979  0.37197494  1  0.639597  0  0.309438  0.35399  0  0.966734  0
H  H40  1  0.21398673  0.58594073  0.99496525  1  0.635253  0  0.309441  0.356604  0  0.962091  0
H  H41  1  0.21397677  0.62801180  0.79101626  1  0.638996  0  0.309481  0.353987  0  0.966652  0
H  H42  1  0.44358644  0.74267963  0.67669946  1  0.570395  0  0.317962  0.335485  0  0.928879  0
H  H43  1  0.44359570  0.70088104  0.87969465  1  0.601066  0  0.317967  0.335312  0  0.92935  0
H  H44  1  0.55641631  0.75734331  0.82329391  1  0.570236  0  0.317871  0.335387  0  0.929143  0
H  H45  1  0.55640275  0.79902500  0.62032776  1  0.602011  0  0.317924  0.335301  0  0.928908  0
H  H46  1  0.78601378  0.91399148  0.50504904  1  0.635002  0  0.309509  0.356706  0  0.961601  0
H  H47  1  0.78602476  0.87198112  0.70898483  1  0.638816  0  0.309537  0.354  0  0.966625  0
C  C48  1  0.18400141  0.09200784  0.40798876  1  1.405351  0  0.223515  0.628323  0  4.123386  0
C  C49  1  0.99999543  0.13908442  0.36091389  1  1.550109  0  0.233278  0.612392  0  4.151499  0
C  C50  1  0.99998314  0.90798881  0.40801289  1  1.422131  0  0.223636  0.628336  0  4.123011  0
C  C51  1  0.81600037  0.90799081  0.59201604  1  1.406953  0  0.223697  0.628893  0  4.123071  0
C  C52  1  0.00000751  0.86091384  0.63908861  1  1.54988  0  0.233368  0.61237  0  4.151919  0
C  C53  1  0.99998739  0.09199900  0.59200406  1  1.41873  0  0.22361  0.628346  0  4.123067  0
C  C54  1  0.00000015  0.59199320  0.09200557  1  1.421546  0  0.223535  0.628247  0  4.123024  0
C  C55  1  0.00000632  0.36091553  0.13908974  1  1.549116  0  0.233318  0.612446  0  4.15129  0
C  C56  1  0.81599889  0.40799390  0.09199274  1  1.407247  0  0.223549  0.62839  0  4.12313  0
C  C57  1  0.99999725  0.40798481  0.90801173  1  1.419008  0  0.2235  0.628369  0  4.12315  0
C  C58  1  0.99999493  0.63908470  0.86091249  1  1.549968  0  0.233246  0.612126  0  4.151942  0
C  C59  1  0.18399969  0.59198860  0.90798711  1  1.407009  0  0.223768  0.628695  0  4.123066  0
C  C60  1  0.00000401  0.80357629  0.69642499  1  0.012359  0  -0.011146  -0.03384  0  3.967269  0
C  C61  1  0.99999838  0.69642324  0.80357699  1  0.012186  0  -0.011096  -0.033799  0  3.967268  0
C  C62  1  0.95679777  0.77671778  0.76648369  1  -0.067241  0  -0.072178  -0.082362  0  3.953542  0
C  C63  1  0.04320637  0.72328352  0.73351621  1  -0.066109  0  -0.072198  -0.082385  0  3.95349  0
C  C64  1  0.95679461  0.72327907  0.81992233  1  -0.046992  0  -0.072186  -0.082424  0  3.95377  0
C  C65  1  0.04320934  0.77672151  0.68007792  1  -0.047433  0  -0.072222  -0.082492  0  3.953703  0
C  C66  1  0.99999805  0.19642109  0.30357687  1  0.01206  0  -0.011261  -0.034284  0  3.967476  0
C  C67  1  0.00000502  0.30358020  0.19642373  1  0.012289  0  -0.011255  -0.03426  0  3.967492  0
C  C68  1  0.95679520  0.18007974  0.27671017  1  -0.047384  0  -0.072242  -0.082434  0  3.953547  0
C  C69  1  0.04320787  0.31992156  0.22328833  1  -0.047329  0  -0.072248  -0.082428  0  3.953608  0
C  C70  1  0.95679827  0.23352045  0.22327159  1  -0.066392  0  -0.072057  -0.08219  0  3.953588  0
C  C71  1  0.04320543  0.26648201  0.27672667  1  -0.065613  0  -0.072026  -0.082237  0  3.953497  0
C  C72  1  0.99999804  0.62853360  0.12855523  1  0.074975  0  -0.05321  -0.313165  0  4.02783  0
C  C73  1  0.95585121  0.65805980  0.13497111  1  0.532749  0  0.076964  0.209486  0  4.078041  0
C  C74  1  0.95618269  0.69300388  0.17016097  1  0.596543  0  0.065584  0.150915  0  4.062951  0
C  C75  1  0.99999113  0.69914587  0.19918072  1  0.205386  0  -0.029584  -0.087781  0  4.206321  0
C  C76  1  0.04380673  0.67014135  0.19304005  1  0.598947  0  0.065546  0.150911  0  4.062747  0
C  C77  1  0.04414504  0.63495529  0.15808611  1  0.533444  0  0.077192  0.209862  0  4.077627  0
C  C78  1  0.99999319  0.73454839  0.23458572  1  -0.158184  0  -0.041165  -0.102902  0  4.191549  0
C  C79  1  0.99998689  0.76541102  0.26545546  1  -0.369442  0  -0.0409  -0.102489  0  4.191561  0
C  C80  1  0.99997405  0.80080804  0.30086335  1  0.169865  0  -0.029745  -0.0882  0  4.206478  0
C  C81  1  0.95617477  0.82983414  0.30698408  1  0.599238  0  0.065617  0.15107  0  4.062591  0
C  C82  1  0.95583714  0.86502037  0.34193649  1  0.533561  0  0.077153  0.209536  0  4.077872  0
C  C83  1  0.99997009  0.87142642  0.37148469  1  0.074066  0  -0.053185  -0.312878  0  4.027706  0
C  C84  1  0.04410892  0.84189001  0.36508145  1  0.533706  0  0.076914  0.209557  0  4.077731  0
C  C85  1  0.04377021  0.80693815  0.32989603  1  0.631317  0  0.065621  0.151397  0  4.062392  0
C  C86  1  0.00001151  0.37143402  0.87147434  1  0.040266  0  -0.053092  -0.313244  0  4.02815  0
C  C87  1  0.04416166  0.40916090  0.79780194  1  0.5415  0  0.07692  0.209509  0  4.077586  0
C  C88  1  0.04382063  0.37364025  0.76318558  1  0.618194  0  0.065654  0.150998  0  4.06257  0
C  C89  1  0.00000635  0.30081958  0.80085418  1  0.146923  0  -0.029502  -0.087826  0  4.206287  0
C  C90  1  0.95619760  0.26315451  0.87366987  1  0.617801  0  0.065547  0.150964  0  4.06271  0
C  C91  1  0.95586213  0.29776383  0.90919954  1  0.542699  0  0.077154  0.209911  0  4.077695  0
C  C92  1  0.00000099  0.26541902  0.76544476  1  -0.154884  0  -0.041115  -0.102694  0  4.191808  0
C  C93  1  0.99999510  0.23456626  0.73457067  1  -0.365633  0  -0.040893  -0.102581  0  4.191688  0
C  C94  1  0.99997928  0.19916358  0.69916355  1  0.146628  0  -0.029793  -0.088222  0  4.206396  0
C  C95  1  0.04377469  0.23683470  0.62634104  1  0.617996  0  0.065633  0.151345  0  4.062419  0
C  C96  1  0.04411097  0.20222252  0.59081437  1  0.542479  0  0.076928  0.209515  0  4.077675  0
C  C97  1  0.99997163  0.12854823  0.62854449  1  0.039788  0  -0.05306  -0.312805  0  4.027754  0
C  C98  1  0.95583679  0.09081779  0.70222087  1  0.542834  0  0.077042  0.209452  0  4.077614  0
C  C99  1  0.95617701  0.12634131  0.73683422  1  0.617739  0  0.065795  0.151307  0  4.062409  0
C  C100  1  0.74290817  0.37144742  0.12854108  1  0.102386  0  -0.053123  -0.312995  0  4.027772  0
C  C101  1  0.70696747  0.40918100  0.13494761  1  0.667541  0  0.076956  0.209442  0  4.078369  0
C  C102  1  0.63682791  0.37365433  0.17013282  1  0.46362  0  0.065579  0.151203  0  4.062299  0
C  C103  1  0.60167443  0.30083399  0.19915367  1  0.189155  0  -0.029669  -0.087959  0  4.20638  0
C  C104  1  0.63682013  0.26315939  0.19303083  1  0.616022  0  0.065592  0.150953  0  4.062932  0
C  C105  1  0.70695996  0.29777140  0.15808252  1  0.514343  0  0.077163  0.209989  0  4.077866  0
C  C106  1  0.53086343  0.26543785  0.23455354  1  -0.096297  0  -0.041058  -0.102647  0  4.191595  0
C  C107  1  0.46913756  0.23458508  0.26540458  1  -0.411213  0  -0.041041  -0.102762  0  4.191703  0
C  C108  1  0.39832483  0.19917573  0.30080226  1  0.19001  0  -0.02957  -0.087812  0  4.20602  0
C  C109  1  0.36317471  0.23684110  0.30694608  1  0.615548  0  0.065622  0.151166  0  4.062343  0
C  C110  1  0.29303669  0.20222985  0.34189481  1  0.514196  0  0.077134  0.209842  0  4.07761  0
C  C111  1  0.25709079  0.12855884  0.37141758  1  0.104256  0  -0.053203  -0.312979  0  4.027775  0
C  C112  1  0.29303463  0.09083213  0.36499559  1  0.664129  0  0.076821  0.209253  0  4.078113  0
C  C113  1  0.36317492  0.12635796  0.32981219  1  0.46423  0  0.065638  0.151083  0  4.062392  0
C  C114  1  0.25708901  0.62852529  0.87144183  1  0.103076  0  -0.053203  -0.312802  0  4.027501  0
C  C115  1  0.29303653  0.63492985  0.90917481  1  0.666665  0  0.077011  0.209409  0  4.078061  0
C  C116  1  0.36317694  0.67011364  0.87365171  1  0.463756  0  0.065548  0.151458  0  4.06228  0
C  C117  1  0.39832430  0.69913975  0.80083005  1  0.188601  0  -0.029543  -0.088055  0  4.206398  0
C  C118  1  0.36317205  0.69301967  0.76315448  1  0.612825  0  0.065548  0.151027  0  4.063059  0
C  C119  1  0.29303320  0.65807225  0.79776315  1  0.513381  0  0.077087  0.209645  0  4.077632  0
C  C120  1  0.46913410  0.73454773  0.76543674  1  -0.417531  0  -0.041065  -0.102648  0  4.191308  0
C  C121  1  0.53086633  0.76540738  0.73458567  1  -0.090082  0  -0.041101  -0.102796  0  4.191339  0
C  C122  1  0.60167722  0.80081127  0.69918147  1  0.189893  0  -0.029562  -0.087912  0  4.20605  0
C  C123  1  0.63683218  0.80695869  0.73684657  1  0.614963  0  0.065578  0.151191  0  4.062444  0
C  C124  1  0.70696954  0.84190880  0.70223896  1  0.511245  0  0.077162  0.20981  0  4.077577  0
C  C125  1  0.74291144  0.87143462  0.62856646  1  0.103336  0  -0.053214  -0.313326  0  4.027943  0
C  C126  1  0.70696337  0.86501642  0.59083532  1  0.664873  0  0.076987  0.209487  0  4.078202  0
C  C127  1  0.63682087  0.82982267  0.62636217  1  0.463852  0  0.065611  0.151031  0  4.062429  0
O  O128  1  0.99999927  0.99999934  0.50000233  1  -1.233332  0  -0.57377  -1.024147  0  2.563358  0
O  O129  1  0.15250144  0.02547932  0.43383092  1  -1.186323  0  -0.312333  -0.557208  0  2.370916  0
O  O130  1  0.04041526  0.15713918  0.38327397  1  -1.171147  0  -0.314211  -0.549378  0  2.344187  0
O  O131  1  0.95929722  0.93383391  0.41366128  1  -1.186056  0  -0.312281  -0.556001  0  2.371134  0
O  O132  1  0.15250335  0.12703454  0.41366947  1  -1.183185  0  -0.312271  -0.556101  0  2.371302  0
O  O133  1  0.04068130  0.91365605  0.43384800  1  -1.185354  0  -0.312323  -0.556012  0  2.371236  0
O  O134  1  0.95957477  0.07631139  0.38327275  1  -1.170241  0  -0.314326  -0.549515  0  2.343922  0
O  O135  1  0.84749440  0.93382732  0.52548919  1  -1.187001  0  -0.312336  -0.557368  0  2.371097  0
O  O136  1  0.95959485  0.88327213  0.65714302  1  -1.171009  0  -0.314234  -0.549421  0  2.344419  0
O  O137  1  0.84750433  0.91366172  0.62704974  1  -1.182911  0  -0.312438  -0.556401  0  2.371143  0
O  O138  1  0.04042187  0.88327470  0.57631550  1  -1.170467  0  -0.314368  -0.549573  0  2.344153  0
O  O139  1  0.04068066  0.12703121  0.52547473  1  -1.184541  0  -0.312355  -0.556052  0  2.371073  0
O  O140  1  0.95930845  0.02546842  0.62703694  1  -1.184409  0  -0.312237  -0.555923  0  2.371287  0
O  O141  1  0.00000079  0.50000101  0.99999835  1  -1.233355  0  -0.573798  -1.024253  0  2.563365  0
O  O142  1  0.95930320  0.58632455  0.06617067  1  -1.185804  0  -0.312307  -0.555936  0  2.371178  0
O  O143  1  0.04042508  0.42368981  0.11673180  1  -1.169478  0  -0.314297  -0.549498  0  2.343649  0
O  O144  1  0.84749600  0.37296250  0.08633310  1  -1.183398  0  -0.312327  -0.556163  0  2.371118  0
O  O145  1  0.04070160  0.56616530  0.08633809  1  -1.185418  0  -0.31229  -0.55595  0  2.370914  0
O  O146  1  0.84749672  0.47452397  0.06614808  1  -1.186787  0  -0.312332  -0.557254  0  2.370938  0
O  O147  1  0.95958858  0.34286026  0.11672840  1  -1.171075  0  -0.314293  -0.549519  0  2.344321  0
O  O148  1  0.95929605  0.37295665  0.97454002  1  -1.185149  0  -0.312253  -0.555929  0  2.37112  0
O  O149  1  0.04040475  0.61672305  0.84285775  1  -1.171081  0  -0.314245  -0.549416  0  2.344318  0
O  O150  1  0.04068185  0.47451312  0.87298298  1  -1.184251  0  -0.31227  -0.555994  0  2.37123  0
O  O151  1  0.95958292  0.61672776  0.92368585  1  -1.170365  0  -0.314293  -0.549388  0  2.344107  0
O  O152  1  0.15250674  0.56615369  0.97451426  1  -1.187032  0  -0.312369  -0.55736  0  2.370968  0
O  O153  1  0.15249503  0.58633373  0.87295184  1  -1.183023  0  -0.312454  -0.556385  0  2.371152  0
O  O154  1  0.91282704  0.65438777  0.10856160  1  -1.123248  0  -0.350638  -0.407702  0  2.26831  0
O  O155  1  0.08716897  0.60855544  0.15442216  1  -1.123724  0  -0.350712  -0.407849  0  2.268568  0
O  O156  1  0.08667643  0.67504756  0.22041794  1  -1.113462  0  -0.345556  -0.392181  0  2.273086  0
O  O157  1  0.91330722  0.72037364  0.17506044  1  -1.113944  0  -0.345605  -0.392381  0  2.272565  0
O  O158  1  0.91332088  0.82494959  0.27958481  1  -1.11323  0  -0.345615  -0.392242  0  2.272777  0
O  O159  1  0.08662347  0.77954083  0.32502559  1  -1.113026  0  -0.34547  -0.392337  0  2.272889  0
O  O160  1  0.08711346  0.84553340  0.39151754  1  -1.122911  0  -0.350639  -0.407961  0  2.268842  0
O  O161  1  0.91282638  0.89143921  0.34558428  1  -1.123764  0  -0.350749  -0.407723  0  2.268428  0
O  O162  1  0.08719697  0.47858315  0.75845665  1  -1.113867  0  -0.350583  -0.407747  0  2.267972  0
O  O163  1  0.91284084  0.25840786  0.97862690  1  -1.115024  0  -0.350793  -0.407962  0  2.26865  0
O  O164  1  0.91332168  0.19290712  0.91163613  1  -1.092563  0  -0.345645  -0.392463  0  2.272485  0
O  O165  1  0.08669179  0.41160585  0.69294368  1  -1.096864  0  -0.345577  -0.392112  0  2.272746  0
O  O166  1  0.08663408  0.30708231  0.58837252  1  -1.093465  0  -0.345575  -0.39246  0  2.272536  0
O  O167  1  0.91332079  0.08836970  0.80708371  1  -1.092184  0  -0.345858  -0.392611  0  2.272473  0
O  O168  1  0.91282274  0.02138694  0.74157666  1  -1.114567  0  -0.350762  -0.407847  0  2.268084  0
O  O169  1  0.08711760  0.24158321  0.52138197  1  -1.11417  0  -0.350675  -0.407915  0  2.268756  0
O  O170  1  0.73704090  0.47860689  0.10853218  1  -1.131107  0  -0.350583  -0.409637  0  2.265737  0
O  O171  1  0.73702954  0.25841269  0.15443504  1  -1.131774  0  -0.350734  -0.408381  0  2.268842  0
O  O172  1  0.60454028  0.19291250  0.22042443  1  -1.086638  0  -0.345669  -0.392314  0  2.273108  0
O  O173  1  0.60455335  0.41162788  0.17501480  1  -1.119297  0  -0.345642  -0.392542  0  2.272759  0
O  O174  1  0.39545461  0.30708690  0.27957266  1  -1.085263  0  -0.345657  -0.39245  0  2.272844  0
O  O175  1  0.39545054  0.08839186  0.32490296  1  -1.119252  0  -0.345559  -0.392173  0  2.273091  0
O  O176  1  0.26295958  0.02141207  0.39138355  1  -1.130451  0  -0.350465  -0.409608  0  2.264886  0
O  O177  1  0.26296753  0.24158418  0.34556241  1  -1.131875  0  -0.350754  -0.408419  0  2.268896  0
O  O178  1  0.26296740  0.60850950  0.97860782  1  -1.131003  0  -0.350743  -0.409871  0  2.265308  0
O  O179  1  0.26295786  0.65442234  0.75840102  1  -1.127767  0  -0.350692  -0.408211  0  2.268573  0
O  O180  1  0.39544635  0.72041493  0.69290415  1  -1.085752  0  -0.345602  -0.39251  0  2.273099  0
O  O181  1  0.39545586  0.67499787  0.91162606  1  -1.118887  0  -0.345609  -0.392439  0  2.272979  0
O  O182  1  0.60455522  0.77957700  0.80709775  1  -1.08556  0  -0.34553  -0.392464  0  2.272951  0
O  O183  1  0.60454142  0.82491907  0.58839194  1  -1.119567  0  -0.345678  -0.392335  0  2.272667  0
O  O184  1  0.73703118  0.89141448  0.52141117  1  -1.130582  0  -0.350625  -0.409637  0  2.265009  0
O  O185  1  0.73704543  0.84557236  0.74159757  1  -1.127496  0  -0.350845  -0.408318  0  2.268582  0
