# generated using pymatgen
data_ReH7C7N(ClO)2
_symmetry_space_group_name_H-M   'P 1'
_cell_length_a   12.49306285
_cell_length_b   12.49305979
_cell_length_c   19.39053808
_cell_angle_alpha   76.95597464
_cell_angle_beta   76.95530137
_cell_angle_gamma   60.79739322
_symmetry_Int_Tables_number   1
_chemical_formula_structural   ReH7C7N(ClO)2
_chemical_formula_sum   'Re8 H56 C56 N8 Cl16 O16'
_cell_volume   2549.69944586
_cell_formula_units_Z   8
loop_
 _symmetry_equiv_pos_site_id
 _symmetry_equiv_pos_as_xyz
  1  'x, y, z'
loop_
 _atom_site_type_symbol
 _atom_site_label
 _atom_site_symmetry_multiplicity
 _atom_site_fract_x
 _atom_site_fract_y
 _atom_site_fract_z
 _atom_site_occupancy
 _atom_site_pbe_bader_charge
 _atom_site_pbe_bader_spin_density
 _atom_site_pbe_cm5_charge
 _atom_site_pbe_ddec_charge
 _atom_site_pbe_ddec_spin_density
 _atom_site_pbe_ddec_sum_bond_order
 _atom_site_pbe_magmom
Re  Re0  1  0.98530699  0.72920633  0.06612141  1  1.418111  0  0.59577  0.614549  0  5.532181  0
Re  Re1  1  0.27079212  0.01469543  0.43388051  1  1.418531  0  0.595775  0.614745  0  5.531733  0
Re  Re2  1  0.01469581  0.27079215  0.93388583  1  1.418656  0  0.595827  0.614685  0  5.531995  0
Re  Re3  1  0.72920872  0.98530881  0.56611482  1  1.418798  0  0.59581  0.614702  0  5.532056  0
Re  Re4  1  0.95638739  0.68609566  0.18374572  1  1.412281  0  0.592283  0.615066  0  5.536632  0
Re  Re5  1  0.31390651  0.04361148  0.31625561  1  1.411857  0  0.592251  0.614937  0  5.536867  0
Re  Re6  1  0.04361354  0.31390448  0.81625897  1  1.411799  0  0.592173  0.614816  0  5.536956  0
Re  Re7  1  0.68609717  0.95638655  0.68374023  1  1.411581  0  0.592176  0.614818  0  5.536942  0
H  H8  1  0.10300302  0.89650504  0.95259163  1  0.13204  0  0.100556  0.07863  0  1.063778  0
H  H9  1  0.10349113  0.89700232  0.54741265  1  0.131926  0  0.1006  0.078662  0  1.063714  0
H  H10  1  0.89699881  0.10349466  0.04740783  1  0.132029  0  0.10055  0.078607  0  1.063794  0
H  H11  1  0.89650337  0.10299576  0.45258814  1  0.132015  0  0.100637  0.078673  0  1.063718  0
H  H12  1  0.17306869  0.95286895  0.82616398  1  0.116009  0  0.090724  0.107103  0  1.077155  0
H  H13  1  0.04712903  0.82693867  0.67384175  1  0.116199  0  0.090732  0.10703  0  1.07716  0
H  H14  1  0.82693037  0.04713200  0.17383571  1  0.116024  0  0.090732  0.107114  0  1.077196  0
H  H15  1  0.95285983  0.17306853  0.32616110  1  0.116255  0  0.090737  0.107056  0  1.077144  0
H  H16  1  0.11593246  0.66648402  0.77394317  1  0.102247  0  0.098327  0.119531  0  1.023657  0
H  H17  1  0.33352089  0.88407372  0.72605467  1  0.102125  0  0.098362  0.119565  0  1.023591  0
H  H18  1  0.88407123  0.33351485  0.22605718  1  0.102262  0  0.098346  0.119533  0  1.023675  0
H  H19  1  0.66648187  0.11592556  0.27394421  1  0.10219  0  0.098351  0.119536  0  1.023617  0
H  H20  1  0.05269209  0.61922855  0.90354381  1  0.12657  0  0.103568  0.080319  0  1.033372  0
H  H21  1  0.38077426  0.94730801  0.59645426  1  0.12695  0  0.103561  0.080324  0  1.033425  0
H  H22  1  0.94730791  0.38077116  0.09645696  1  0.12659  0  0.103578  0.080298  0  1.033345  0
H  H23  1  0.61922482  0.05269045  0.40354270  1  0.126815  0  0.103588  0.080312  0  1.03339  0
H  H24  1  0.12033276  0.43355812  0.29590007  1  0.126281  0  0.105521  0.085463  0  1.052236  0
H  H25  1  0.56644137  0.87966943  0.20410026  1  0.12628  0  0.105541  0.08544  0  1.052413  0
H  H26  1  0.87966539  0.56644244  0.70410291  1  0.126222  0  0.105532  0.085481  0  1.052285  0
H  H27  1  0.43355769  0.12033153  0.79590201  1  0.126329  0  0.105493  0.085426  0  1.052343  0
H  H28  1  0.13476258  0.34785212  0.42228448  1  0.110369  0  0.095872  0.108243  0  1.06784  0
H  H29  1  0.65215054  0.86523736  0.07771430  1  0.110314  0  0.095891  0.108264  0  1.067852  0
H  H30  1  0.86523184  0.65215257  0.57771792  1  0.110287  0  0.095867  0.108225  0  1.06788  0
H  H31  1  0.34784764  0.13476071  0.92228749  1  0.110313  0  0.095879  0.108298  0  1.067805  0
H  H32  1  0.87003130  0.71611723  0.47367947  1  0.098483  0  0.088412  0.099582  0  1.101099  0
H  H33  1  0.28388400  0.12996357  0.02632457  1  0.098506  0  0.088429  0.099567  0  1.101137  0
H  H34  1  0.12996220  0.28388705  0.52632158  1  0.098521  0  0.08842  0.099596  0  1.10105  0
H  H35  1  0.71611698  0.87003160  0.97367776  1  0.098486  0  0.088421  0.099586  0  1.101041  0
H  H36  1  0.87097474  0.78602018  0.34428930  1  0.083328  0  0.104269  0.076499  0  1.031411  0
H  H37  1  0.21397970  0.12902758  0.15571616  1  0.083273  0  0.104318  0.07654  0  1.031364  0
H  H38  1  0.12902431  0.21398161  0.65571182  1  0.083358  0  0.104276  0.07648  0  1.031455  0
H  H39  1  0.78601933  0.87097669  0.84428614  1  0.083334  0  0.104276  0.076501  0  1.031417  0
H  H40  1  0.36940636  0.38501101  0.08480889  1  0.074012  0  0.113629  0.174024  0  0.953578  0
H  H41  1  0.61498502  0.63059501  0.41518837  1  0.074013  0  0.113601  0.173972  0  0.953582  0
H  H42  1  0.63059445  0.61499654  0.91518854  1  0.073779  0  0.113604  0.173986  0  0.953514  0
H  H43  1  0.38500668  0.36940597  0.58481344  1  0.073778  0  0.11359  0.173936  0  0.953582  0
H  H44  1  0.27970455  0.31298039  0.08074660  1  0.092699  0  0.103172  0.16869  0  1.005358  0
H  H45  1  0.68701741  0.72029733  0.41924936  1  0.092828  0  0.103217  0.168704  0  1.005401  0
H  H46  1  0.72030187  0.68701970  0.91925059  1  0.092715  0  0.103197  0.16872  0  1.005348  0
H  H47  1  0.31297896  0.27969826  0.58075100  1  0.092719  0  0.103212  0.168721  0  1.005367  0
H  H48  1  0.30977965  0.31721176  0.16608260  1  0.105415  0  0.097546  0.163126  0  1.02215  0
H  H49  1  0.68278753  0.69021550  0.33391558  1  0.105345  0  0.097517  0.163092  0  1.022142  0
H  H50  1  0.69023049  0.68278584  0.83391492  1  0.105387  0  0.097528  0.163118  0  1.022143  0
H  H51  1  0.31721072  0.30977678  0.66608654  1  0.105313  0  0.097488  0.163077  0  1.022124  0
H  H52  1  0.28525996  0.78831891  0.15764057  1  0.078048  0  0.1138  0.175989  0  0.951751  0
H  H53  1  0.21167862  0.71474184  0.34235617  1  0.077931  0  0.11378  0.175909  0  0.951769  0
H  H54  1  0.71474369  0.21168327  0.84236084  1  0.078109  0  0.113778  0.175945  0  0.951688  0
H  H55  1  0.78831866  0.28525416  0.65764348  1  0.077966  0  0.113786  0.175926  0  0.951731  0
H  H56  1  0.15144279  0.92345705  0.18227413  1  0.098995  0  0.107957  0.170985  0  0.983815  0
H  H57  1  0.07654217  0.84855889  0.31772442  1  0.098749  0  0.107964  0.170948  0  0.983911  0
H  H58  1  0.84855992  0.07654720  0.81772712  1  0.098704  0  0.107909  0.170921  0  0.98383  0
H  H59  1  0.92345417  0.15143835  0.68227570  1  0.098574  0  0.107907  0.17088  0  0.983955  0
H  H60  1  0.21333215  0.91273673  0.08965511  1  0.094483  0  0.098164  0.165037  0  1.016116  0
H  H61  1  0.08725966  0.78667501  0.41034278  1  0.09454  0  0.098165  0.165031  0  1.016122  0
H  H62  1  0.78666970  0.08726216  0.91034706  1  0.094462  0  0.098186  0.165058  0  1.016035  0
H  H63  1  0.91274305  0.21332841  0.58965653  1  0.094507  0  0.098181  0.165059  0  1.016081  0
C  C64  1  0.17612570  0.48811617  0.11697579  1  1.449048  0  0.234922  0.644891  0  3.982922  0
C  C65  1  0.51188062  0.82387519  0.38302100  1  1.44904  0  0.234951  0.64504  0  3.982681  0
C  C66  1  0.82387893  0.51188146  0.88302357  1  1.449043  0  0.234881  0.644891  0  3.983055  0
C  C67  1  0.48811388  0.17612372  0.61698328  1  1.44904  0  0.235011  0.645135  0  3.982508  0
C  C68  1  0.29095121  0.36823896  0.11271326  1  -0.067446  0  -0.23263  -0.517025  0  3.875536  0
C  C69  1  0.63175853  0.70904797  0.38728227  1  -0.067472  0  -0.232584  -0.516955  0  3.875449  0
C  C70  1  0.70905338  0.63176031  0.88728431  1  -0.067141  0  -0.232588  -0.517002  0  3.875413  0
C  C71  1  0.36823690  0.29094886  0.61271805  1  -0.067129  0  -0.232516  -0.516928  0  3.875388  0
C  C72  1  0.11709843  0.80596212  0.13539243  1  1.4406  0  0.232389  0.641063  0  3.99872  0
C  C73  1  0.19403834  0.88290466  0.36460335  1  1.440931  0  0.232423  0.641161  0  3.998395  0
C  C74  1  0.88290522  0.19404006  0.86460795  1  1.440416  0  0.232374  0.641092  0  3.998713  0
C  C75  1  0.80596259  0.11709381  0.63539643  1  1.440838  0  0.232504  0.64132  0  3.998185  0
C  C76  1  0.19635117  0.86149603  0.14108460  1  -0.063449  0  -0.232466  -0.521352  0  3.879598  0
C  C77  1  0.13850202  0.80365332  0.35891279  1  -0.063269  0  -0.232455  -0.521224  0  3.87964  0
C  C78  1  0.80365343  0.13850408  0.85891801  1  -0.062934  0  -0.232358  -0.521199  0  3.879349  0
C  C79  1  0.86149797  0.19634638  0.64108540  1  -0.063058  0  -0.232409  -0.521216  0  3.879515  0
C  C80  1  0.10826610  0.84675807  0.91146262  1  0.431105  0  0.03692  0.08655  0  3.952019  0
C  C81  1  0.15324097  0.89174087  0.58853925  1  0.430923  0  0.036931  0.086603  0  3.951919  0
C  C82  1  0.89173573  0.15324163  0.08853634  1  0.431154  0  0.036926  0.086602  0  3.952  0
C  C83  1  0.84675532  0.10826050  0.41145924  1  0.430916  0  0.036928  0.086645  0  3.952078  0
C  C84  1  0.14776269  0.87783195  0.84039745  1  -0.000264  0  -0.089544  -0.173557  0  3.932213  0
C  C85  1  0.12216530  0.85224390  0.65960626  1  0.000139  0  -0.089551  -0.173427  0  3.932187  0
C  C86  1  0.85223732  0.12216693  0.15960292  1  -0.000314  0  -0.089544  -0.173585  0  3.93217  0
C  C87  1  0.87782821  0.14775955  0.34039389  1  0.000182  0  -0.08953  -0.173423  0  3.932236  0
C  C88  1  0.14996031  0.81488329  0.78825046  1  -0.092948  0  0.010437  0.107658  0  3.967748  0
C  C89  1  0.18511645  0.85004366  0.71174941  1  -0.051252  0  0.01048  0.107657  0  3.967773  0
C  C90  1  0.85004153  0.18511558  0.21174758  1  -0.092938  0  0.010444  0.107684  0  3.967728  0
C  C91  1  0.81488355  0.14995522  0.28824890  1  -0.05141  0  0.010454  0.107588  0  3.967909  0
C  C92  1  0.11467026  0.72033385  0.81142562  1  -0.023678  0  -0.085149  -0.17111  0  3.931969  0
C  C93  1  0.27966855  0.88533560  0.68857388  1  -0.023683  0  -0.085215  -0.171105  0  3.93191  0
C  C94  1  0.88533158  0.27966586  0.18857436  1  -0.023714  0  -0.085142  -0.171093  0  3.931964  0
C  C95  1  0.72033422  0.11466286  0.31142461  1  -0.023773  0  -0.08522  -0.171111  0  3.931934  0
C  C96  1  0.07886697  0.69345588  0.88396805  1  0.495375  0  0.043853  0.092406  0  3.946397  0
C  C97  1  0.30654582  0.92113779  0.61603226  1  0.494911  0  0.043784  0.092244  0  3.94663  0
C  C98  1  0.92113487  0.30654383  0.11603297  1  0.495361  0  0.043834  0.092446  0  3.946311  0
C  C99  1  0.69345048  0.07886192  0.38396493  1  0.495128  0  0.04375  0.092344  0  3.946435  0
C  C100  1  0.06733391  0.49354528  0.33708710  1  0.503345  0  0.04171  0.088241  0  3.938099  0
C  C101  1  0.50645691  0.93266716  0.16291394  1  0.503405  0  0.041697  0.088276  0  3.938312  0
C  C102  1  0.93266240  0.50645611  0.66291655  1  0.503466  0  0.041768  0.088251  0  3.937978  0
C  C103  1  0.49354493  0.06733255  0.83708759  1  0.503441  0  0.041734  0.088328  0  3.938253  0
C  C104  1  0.07397095  0.44586482  0.40892001  1  -0.040419  0  -0.082553  -0.160089  0  3.922237  0
C  C105  1  0.55413947  0.92602453  0.09108030  1  -0.040531  0  -0.082551  -0.160083  0  3.922345  0
C  C106  1  0.92602070  0.55414031  0.59108274  1  -0.040593  0  -0.08256  -0.160026  0  3.92217  0
C  C107  1  0.44586150  0.07397146  0.90892139  1  -0.040344  0  -0.082529  -0.160197  0  3.922351  0
C  C108  1  0.00068917  0.52349913  0.46138085  1  -0.050264  0  0.01085  0.108379  0  3.947276  0
C  C109  1  0.47650168  0.99930420  0.03862240  1  -0.019689  0  0.010836  0.108334  0  3.947376  0
C  C110  1  0.99929882  0.47650436  0.53862216  1  -0.019796  0  0.010843  0.108372  0  3.947327  0
C  C111  1  0.52349653  0.00069222  0.96138118  1  -0.050381  0  0.01087  0.108455  0  3.947208  0
C  C112  1  0.92791941  0.64880782  0.43698190  1  -0.033112  0  -0.088353  -0.173111  0  3.951766  0
C  C113  1  0.35119245  0.07207882  0.06301925  1  -0.033197  0  -0.088338  -0.173004  0  3.951794  0
C  C114  1  0.07207318  0.35119523  0.56301895  1  -0.031648  0  -0.088332  -0.17309  0  3.951699  0
C  C115  1  0.64880662  0.92792131  0.93698056  1  -0.033129  0  -0.088332  -0.173064  0  3.951581  0
C  C116  1  0.92811061  0.68930022  0.36420768  1  0.509998  0  0.040565  0.083478  0  3.968682  0
C  C117  1  0.31070029  0.07189119  0.13579461  1  0.510055  0  0.040473  0.083346  0  3.96867  0
C  C118  1  0.07188658  0.31070323  0.63579347  1  0.508632  0  0.04051  0.083406  0  3.968857  0
C  C119  1  0.68929966  0.92811265  0.86420607  1  0.509961  0  0.040512  0.083412  0  3.968789  0
N  N120  1  0.07415794  0.75643239  0.93337025  1  -1.232607  0  -0.307592  -0.203035  0  3.436459  0
N  N121  1  0.24356538  0.92584893  0.56663058  1  -1.232665  0  -0.307567  -0.20303  0  3.436488  0
N  N122  1  0.92584300  0.24356608  0.06663159  1  -1.23259  0  -0.307596  -0.203061  0  3.436494  0
N  N123  1  0.75643277  0.07415078  0.43336737  1  -1.232614  0  -0.307545  -0.203055  0  3.436573  0
N  N124  1  0.99476228  0.61312627  0.31449893  1  -1.245727  0  -0.308963  -0.200825  0  3.439578  0
N  N125  1  0.38687547  0.00523745  0.18550191  1  -1.245638  0  -0.308955  -0.200795  0  3.439714  0
N  N126  1  0.00523496  0.38687387  0.68550321  1  -1.245682  0  -0.308937  -0.200729  0  3.439645  0
N  N127  1  0.61312637  0.99476225  0.81449910  1  -1.245681  0  -0.308967  -0.200805  0  3.43969  0
Cl  Cl128  1  0.87527735  0.65254380  0.02891433  1  -0.485063  0  -0.182479  -0.287964  0  1.51199  0
Cl  Cl129  1  0.34745967  0.12472966  0.47108321  1  -0.48516  0  -0.182503  -0.288016  0  1.511774  0
Cl  Cl130  1  0.12473003  0.34745507  0.97108702  1  -0.485156  0  -0.18251  -0.288019  0  1.511926  0
Cl  Cl131  1  0.65254763  0.87527415  0.52891279  1  -0.485077  0  -0.182481  -0.287989  0  1.511955  0
Cl  Cl132  1  0.83522179  0.93260246  0.04266207  1  -0.497638  0  -0.175104  -0.292275  0  1.532694  0
Cl  Cl133  1  0.06738876  0.16478336  0.45733307  1  -0.497702  0  -0.175124  -0.292336  0  1.532588  0
Cl  Cl134  1  0.16477821  0.06739643  0.95733779  1  -0.49768  0  -0.175089  -0.292275  0  1.532715  0
Cl  Cl135  1  0.93260282  0.83522504  0.54265889  1  -0.497665  0  -0.175109  -0.292296  0  1.532728  0
Cl  Cl136  1  0.83601795  0.58547974  0.20525482  1  -0.484991  0  -0.203783  -0.295012  0  1.418385  0
Cl  Cl137  1  0.41452439  0.16397821  0.29474050  1  -0.484861  0  -0.203736  -0.29496  0  1.418486  0
Cl  Cl138  1  0.16398390  0.41451997  0.79474825  1  -0.484993  0  -0.203773  -0.294956  0  1.418432  0
Cl  Cl139  1  0.58548026  0.83601526  0.70525328  1  -0.484981  0  -0.203774  -0.29496  0  1.41836  0
Cl  Cl140  1  0.78511068  0.86261884  0.22129055  1  -0.497644  0  -0.175303  -0.292616  0  1.538566  0
Cl  Cl141  1  0.13739206  0.21488212  0.27870292  1  -0.497555  0  -0.1753  -0.292625  0  1.538569  0
Cl  Cl142  1  0.21488927  0.13738501  0.77870962  1  -0.497585  0  -0.175297  -0.292586  0  1.538613  0
Cl  Cl143  1  0.86261903  0.78511174  0.72128934  1  -0.49761  0  -0.1753  -0.292616  0  1.538585  0
O  O144  1  0.14028457  0.56186683  0.05927088  1  -1.07557  0  -0.27699  -0.385313  0  2.4408  0
O  O145  1  0.43813192  0.85971734  0.44072278  1  -1.075525  0  -0.277024  -0.38545  0  2.440863  0
O  O146  1  0.85971819  0.43813244  0.94072594  1  -1.075663  0  -0.276931  -0.385292  0  2.440936  0
O  O147  1  0.56186530  0.14028362  0.55927821  1  -1.075353  0  -0.277063  -0.38548  0  2.440659  0
O  O148  1  0.11271063  0.51842332  0.17800170  1  -1.077481  0  -0.269095  -0.384733  0  2.470888  0
O  O149  1  0.48157735  0.88729074  0.32199273  1  -1.077603  0  -0.269123  -0.384748  0  2.470866  0
O  O150  1  0.88729399  0.48157430  0.82199612  1  -1.077479  0  -0.269138  -0.384762  0  2.470979  0
O  O151  1  0.51842266  0.11270815  0.67800919  1  -1.0777  0  -0.269153  -0.384785  0  2.470889  0
O  O152  1  0.09954905  0.80122584  0.07344620  1  -1.081744  0  -0.2729  -0.390559  0  2.449959  0
O  O153  1  0.19877328  0.90045375  0.42654782  1  -1.081894  0  -0.27291  -0.390702  0  2.44984  0
O  O154  1  0.90045646  0.19877384  0.92655170  1  -1.081713  0  -0.272882  -0.3906  0  2.450071  0
O  O155  1  0.80122854  0.09954677  0.57345050  1  -1.081954  0  -0.272948  -0.39076  0  2.449776  0
O  O156  1  0.06698433  0.76259414  0.19241537  1  -1.084873  0  -0.278356  -0.406988  0  2.437258  0
O  O157  1  0.23740454  0.93302107  0.30757985  1  -1.085078  0  -0.278356  -0.40696  0  2.437074  0
O  O158  1  0.93302027  0.23740514  0.80758427  1  -1.084944  0  -0.278373  -0.407005  0  2.437231  0
O  O159  1  0.76259639  0.06697656  0.69241851  1  -1.084949  0  -0.2784  -0.407006  0  2.437088  0
