# generated using pymatgen
data_GaP2H11C10(NO4)2
_symmetry_space_group_name_H-M   'P 1'
_cell_length_a   8.39344641
_cell_length_b   10.91483641
_cell_length_c   15.82530000
_cell_angle_alpha   90.00000000
_cell_angle_beta   90.00000000
_cell_angle_gamma   108.88869122
_symmetry_Int_Tables_number   1
_chemical_formula_structural   GaP2H11C10(NO4)2
_chemical_formula_sum   'Ga4 P8 H44 C40 N8 O32'
_cell_volume   1371.73166711
_cell_formula_units_Z   4
loop_
 _symmetry_equiv_pos_site_id
 _symmetry_equiv_pos_as_xyz
  1  'x, y, z'
loop_
 _atom_site_type_symbol
 _atom_site_label
 _atom_site_symmetry_multiplicity
 _atom_site_fract_x
 _atom_site_fract_y
 _atom_site_fract_z
 _atom_site_occupancy
 _atom_site_hle17_bader_spin_density
 _atom_site_hle17_ddec_charge
 _atom_site_hle17_ddec_spin_density
 _atom_site_hle17_ddec_sum_bond_order
 _atom_site_hle17_magmom
 _atom_site_hse06_10hf_bader_spin_density
 _atom_site_hse06_10hf_ddec_charge
 _atom_site_hse06_10hf_ddec_spin_density
 _atom_site_hse06_10hf_ddec_sum_bond_order
 _atom_site_hse06_10hf_magmom
 _atom_site_hse06_bader_spin_density
 _atom_site_hse06_ddec_charge
 _atom_site_hse06_ddec_spin_density
 _atom_site_hse06_ddec_sum_bond_order
 _atom_site_hse06_magmom
 _atom_site_pbe_bader_charge
 _atom_site_pbe_bader_spin_density
 _atom_site_pbe_cm5_charge
 _atom_site_pbe_ddec_charge
 _atom_site_pbe_ddec_spin_density
 _atom_site_pbe_ddec_sum_bond_order
 _atom_site_pbe_magmom
Ga  Ga0  1  0.54465974  0.67058843  0.38698792  1  0  1.607476  0  2.356178  0  0  1.433882  0  2.790043  0  0  1.486346  0  2.742934  0  1.948216  0  0.62221  1.39738  0  2.82195  0
Ga  Ga1  1  0.04466012  0.67058843  0.11301208  1  0  1.607459  0  2.356201  0  0  1.43384  0  2.790071  0  0  1.486295  0  2.742958  0  1.948252  0  0.622197  1.397338  0  2.821977  0
Ga  Ga2  1  0.45534179  0.32941210  0.61301208  1  0  1.607471  0  2.356201  0  0  1.433865  0  2.79007  0  0  1.486304  0  2.742963  0  1.948276  0  0.622198  1.39736  0  2.821978  0
Ga  Ga3  1  0.95533902  0.32941210  0.88698792  1  0  1.607483  0  2.356157  0  0  1.4339  0  2.790014  0  0  1.486353  0  2.742905  0  1.948255  0  0.622225  1.397396  0  2.821922  0
P  P4  1  0.62833762  0.64701833  0.58373048  1  0  1.804603  0  4.787641  0  0  1.613033  0  5.325774  0  0  1.672583  0  5.26539  0  3.678925  0  0.464607  1.571231  0  5.367442  0
P  P5  1  0.12833722  0.64701929  0.91626889  1  0  1.804629  0  4.787572  0  0  1.613078  0  5.325695  0  0  1.672637  0  5.265305  0  3.679111  0  0.46463  1.571275  0  5.367367  0
P  P6  1  0.37166231  0.35298124  0.41626889  1  0  1.804661  0  4.787607  0  0  1.61312  0  5.325715  0  0  1.67268  0  5.265327  0  3.679108  0  0.464626  1.571319  0  5.367384  0
P  P7  1  0.87166074  0.35298124  0.08373048  1  0  1.804581  0  4.787592  0  0  1.613011  0  5.325729  0  0  1.672561  0  5.265339  0  3.678921  0  0.464591  1.571207  0  5.3674  0
P  P8  1  0.31564993  0.56220720  0.21236627  1  0  1.804071  0  4.813509  0  0  1.606746  0  5.352926  0  0  1.666954  0  5.293768  0  3.675911  0  0.450327  1.564837  0  5.39319  0
P  P9  1  0.81565074  0.56220720  0.28763246  1  0  1.804148  0  4.813406  0  0  1.606865  0  5.35278  0  0  1.667025  0  5.293786  0  3.676231  0  0.450361  1.564957  0  5.393049  0
P  P10  1  0.68434802  0.43779333  0.78763373  1  0  1.804155  0  4.813463  0  0  1.606836  0  5.352866  0  0  1.667035  0  5.293704  0  3.676212  0  0.450352  1.564926  0  5.393133  0
P  P11  1  0.18434841  0.43779333  0.71236691  1  0  1.804208  0  4.813293  0  0  1.606908  0  5.352679  0  0  1.667094  0  5.293541  0  3.676219  0  0.450368  1.564996  0  5.392949  0
H  H12  1  0.43024066  0.62664564  0.68262845  1  0  0.433352  0  0.875292  0  0  0.397376  0  0.945604  0  0  0.409082  0  0.928822  0  0.660525  0  0.311681  0.3892  0  0.957287  0
H  H13  1  0.93024028  0.62664564  0.81737092  1  0  0.433331  0  0.875321  0  0  0.397346  0  0.945647  0  0  0.409053  0  0.928865  0  0.660528  0  0.311677  0.38917  0  0.957331  0
H  H14  1  0.56975927  0.37335392  0.31737092  1  0  0.433386  0  0.875236  0  0  0.397409  0  0.945549  0  0  0.409116  0  0.928766  0  0.660536  0  0.311689  0.389234  0  0.957232  0
H  H15  1  0.06975846  0.37335392  0.18262845  1  0  0.433347  0  0.875303  0  0  0.397363  0  0.945625  0  0  0.409071  0  0.928841  0  0.660532  0  0.311683  0.389187  0  0.957309  0
H  H16  1  0.80913043  0.64355848  0.68050906  1  0  0.43829  0  0.867249  0  0  0.402587  0  0.93716  0  0  0.414156  0  0.920561  0  0.66394  0  0.307908  0.394486  0  0.94874  0
H  H17  1  0.30913081  0.64355848  0.81949094  1  0  0.438271  0  0.867276  0  0  0.402575  0  0.937175  0  0  0.414141  0  0.920579  0  0.663937  0  0.307901  0.394474  0  0.948756  0
H  H18  1  0.19086831  0.35644108  0.31949157  1  0  0.438302  0  0.867237  0  0  0.402596  0  0.937151  0  0  0.414165  0  0.920551  0  0.663936  0  0.307908  0.394494  0  0.948734  0
H  H19  1  0.69086793  0.35644108  0.18050843  1  0  0.438287  0  0.867257  0  0  0.402587  0  0.937162  0  0  0.414158  0  0.920561  0  0.66394  0  0.307911  0.394486  0  0.948743  0
H  H20  1  0.51995466  0.48337550  0.19111802  1  0  0.435874  0  0.868822  0  0  0.399386  0  0.940845  0  0  0.410974  0  0.924097  0  0.667718  0  0.308197  0.391253  0  0.952574  0
H  H21  1  0.01995504  0.48337550  0.30888135  1  0  0.435917  0  0.868761  0  0  0.399411  0  0.94081  0  0  0.410999  0  0.924061  0  0.667716  0  0.308209  0.391277  0  0.95254  0
H  H22  1  0.48004449  0.51662503  0.80888135  1  0  0.43587  0  0.868832  0  0  0.399382  0  0.940852  0  0  0.41097  0  0.924104  0  0.667698  0  0.308208  0.391249  0  0.952582  0
H  H23  1  0.98004370  0.51662406  0.69111802  1  0  0.435881  0  0.868811  0  0  0.399388  0  0.940842  0  0  0.410975  0  0.924096  0  0.667714  0  0.308193  0.391256  0  0.952571  0
H  H24  1  0.87345468  0.85244456  0.31082634  1  0  0.100831  0  0.944187  0  0  0.106243  0  1.009653  0  0  0.109233  0  1.007037  0  0.170286  0  0.127609  0.104022  0  1.011536  0
H  H25  1  0.37345428  0.85244553  0.18917303  1  0  0.100811  0  0.944215  0  0  0.106257  0  1.009667  0  0  0.109247  0  1.007052  0  0.170303  0  0.127609  0.104037  0  1.011545  0
H  H26  1  0.12654607  0.14755694  0.68917303  1  0  0.100804  0  0.944217  0  0  0.106219  0  1.009687  0  0  0.109206  0  1.007075  0  0.170263  0  0.127611  0.104  0  1.011561  0
H  H27  1  0.62654528  0.14755597  0.81082570  1  0  0.10081  0  0.944213  0  0  0.106225  0  1.00968  0  0  0.109214  0  1.007066  0  0.170275  0  0.127607  0.104004  0  1.01156  0
H  H28  1  0.00376001  0.09434627  0.29042925  1  0  0.111648  0  0.966481  0  0  0.121501  0  1.024513  0  0  0.124096  0  1.024856  0  0.137107  0  0.107833  0.119565  0  1.024513  0
H  H29  1  0.50376004  0.09434724  0.20957075  1  0  0.111598  0  0.966504  0  0  0.121455  0  1.024528  0  0  0.124049  0  1.024873  0  0.137106  0  0.107805  0.11952  0  1.024527  0
H  H30  1  0.99623914  0.90565426  0.70957075  1  0  0.111607  0  0.966471  0  0  0.121464  0  1.024496  0  0  0.124057  0  1.024842  0  0.137108  0  0.107817  0.119529  0  1.024495  0
H  H31  1  0.49624030  0.90565329  0.79042862  1  0  0.111612  0  0.966487  0  0  0.121468  0  1.024513  0  0  0.124062  0  1.024859  0  0.137112  0  0.107822  0.119533  0  1.024511  0
H  H32  1  0.82919362  0.23665486  0.32642667  1  0  0.112489  0  0.930048  0  0  0.124234  0  0.984628  0  0  0.126903  0  0.982927  0  0.100674  0  0.115475  0.122315  0  0.98579  0
H  H33  1  0.32919363  0.23665680  0.17357333  1  0  0.112482  0  0.930075  0  0  0.124219  0  0.984674  0  0  0.126888  0  0.98297  0  0.100652  0  0.11548  0.122306  0  0.985818  0
H  H34  1  0.17080672  0.76334567  0.67357270  1  0  0.11249  0  0.930063  0  0  0.124234  0  0.984643  0  0  0.126903  0  0.982943  0  0.100683  0  0.115476  0.122309  0  0.985821  0
H  H35  1  0.67080831  0.76334470  0.82642730  1  0  0.112499  0  0.930044  0  0  0.124241  0  0.984632  0  0  0.126909  0  0.982932  0  0.10068  0  0.115482  0.122324  0  0.985789  0
H  H36  1  0.54190835  0.13663031  0.38089009  1  0  0.127207  0  0.98923  0  0  0.134644  0  1.05037  0  0  0.138163  0  1.048722  0  0.14181  0  0.112003  0.132017  0  1.051794  0
H  H37  1  0.04190676  0.13663128  0.11911117  1  0  0.127224  0  0.989213  0  0  0.134663  0  1.050347  0  0  0.138175  0  1.04872  0  0.141795  0  0.111996  0.132031  0  1.051778  0
H  H38  1  0.45809039  0.86336925  0.61910927  1  0  0.127216  0  0.989183  0  0  0.134644  0  1.050335  0  0  0.138165  0  1.048679  0  0.14203  0  0.111997  0.132018  0  1.051757  0
H  H39  1  0.95809279  0.86337022  0.88089073  1  0  0.127218  0  0.989151  0  0  0.134633  0  1.050323  0  0  0.138154  0  1.048667  0  0.141812  0  0.111998  0.132004  0  1.05175  0
H  H40  1  0.28867656  0.03392736  0.41153722  1  0  0.121082  0  0.943469  0  0  0.132128  0  1.000468  0  0  0.13551  0  0.999  0  0.09264  0  0.114499  0.129431  0  1.002092  0
H  H41  1  0.78867777  0.03392832  0.08846278  1  0  0.121064  0  0.943465  0  0  0.132117  0  1.000459  0  0  0.1355  0  0.998988  0  0.09261  0  0.114493  0.129419  0  1.002086  0
H  H42  1  0.71132256  0.96607027  0.58846467  1  0  0.121031  0  0.943463  0  0  0.132091  0  1.00046  0  0  0.135472  0  0.998994  0  0.092604  0  0.114493  0.129393  0  1.002085  0
H  H43  1  0.21132257  0.96607220  0.91153596  1  0  0.121073  0  0.943452  0  0  0.132118  0  1.000461  0  0  0.135499  0  0.998993  0  0.092636  0  0.114497  0.129423  0  1.002079  0
H  H44  1  0.00836646  0.89907253  0.46884798  1  0  0.098358  0  0.935269  0  0  0.110751  0  0.991936  0  0  0.113171  0  0.990652  0  0.085581  0  0.113094  0.109009  0  0.992875  0
H  H45  1  0.50836690  0.89907446  0.03115391  1  0  0.098319  0  0.935255  0  0  0.110689  0  0.991957  0  0  0.113107  0  0.990676  0  0.085538  0  0.113066  0.108951  0  0.992887  0
H  H46  1  0.99163422  0.10092316  0.53115518  1  0  0.098348  0  0.935193  0  0  0.110745  0  0.991859  0  0  0.113165  0  0.990574  0  0.085504  0  0.113108  0.108996  0  0.992816  0
H  H47  1  0.49163464  0.10092607  0.96884482  1  0  0.098372  0  0.935185  0  0  0.110745  0  0.991879  0  0  0.113165  0  0.990596  0  0.085581  0  0.113103  0.108999  0  0.992827  0
H  H48  1  0.95834227  0.66669768  0.50081705  1  0  0.121751  0  0.943751  0  0  0.130757  0  1.002346  0  0  0.133841  0  1.000947  0  0.143387  0  0.119378  0.128465  0  1.003592  0
H  H49  1  0.45833952  0.66670156  0.99918485  1  0  0.12179  0  0.943763  0  0  0.130775  0  1.002388  0  0  0.133859  0  1.000989  0  0.143381  0  0.119377  0.128482  0  1.003634  0
H  H50  1  0.04166236  0.33329607  0.49918359  1  0  0.121761  0  0.943757  0  0  0.130803  0  1.002318  0  0  0.133888  0  1.000917  0  0.14336  0  0.119399  0.128511  0  1.003564  0
H  H51  1  0.54165803  0.33329800  0.00081705  1  0  0.121783  0  0.943732  0  0  0.130774  0  1.002354  0  0  0.133859  0  1.000955  0  0.143418  0  0.119387  0.128482  0  1.0036  0
H  H52  1  0.19245549  0.57352019  0.47305896  1  0  0.100805  0  0.928497  0  0  0.110919  0  0.985908  0  0  0.113202  0  0.983849  0  0.15489  0  0.131653  0.109196  0  0.987501  0
H  H53  1  0.69245195  0.57352116  0.02694041  1  0  0.100797  0  0.92845  0  0  0.110904  0  0.985866  0  0  0.113187  0  0.983808  0  0.154829  0  0.13163  0.109181  0  0.987459  0
H  H54  1  0.80755118  0.42647840  0.52693914  1  0  0.100696  0  0.92857  0  0  0.110875  0  0.985913  0  0  0.113152  0  0.983863  0  0.154821  0  0.131615  0.109152  0  0.987507  0
H  H55  1  0.30754720  0.42647937  0.97306212  1  0  0.100801  0  0.928525  0  0  0.110913  0  0.985935  0  0  0.113197  0  0.983876  0  0.154915  0  0.131654  0.10919  0  0.987528  0
C  C56  1  0.80623826  0.92008140  0.32582510  1  0  0.139646  0  3.669513  0  0  0.104423  0  3.924299  0  0  0.111822  0  3.941252  0  0.486746  0  0.063795  0.099685  0  3.912777  0
C  C57  1  0.30623905  0.92008237  0.17417490  1  0  0.139693  0  3.669589  0  0  0.104377  0  3.924446  0  0  0.111773  0  3.9414  0  0.487345  0  0.063765  0.099639  0  3.912925  0
C  C58  1  0.19376130  0.07992010  0.67417490  1  0  0.139683  0  3.66945  0  0  0.104446  0  3.924236  0  0  0.111844  0  3.941191  0  0.48676  0  0.063799  0.099709  0  3.912714  0
C  C59  1  0.69376170  0.07991913  0.82582510  1  0  0.139631  0  3.669506  0  0  0.104417  0  3.924316  0  0  0.111815  0  3.941273  0  0.486757  0  0.063795  0.09968  0  3.912793  0
C  C60  1  0.87567081  0.05315063  0.31365219  1  0  -0.113431  0  3.708812  0  0  -0.126845  0  3.961495  0  0  -0.134057  0  3.983268  0  -0.057233  0  -0.077906  -0.122195  0  3.946904  0
C  C61  1  0.37567041  0.05315160  0.18634844  1  0  -0.113379  0  3.708833  0  0  -0.126769  0  3.961538  0  0  -0.133981  0  3.983314  0  -0.057811  0  -0.077847  -0.122121  0  3.946949  0
C  C62  1  0.12432953  0.94684990  0.68634718  1  0  -0.113387  0  3.708772  0  0  -0.126804  0  3.961469  0  0  -0.134017  0  3.983244  0  -0.057227  0  -0.077887  -0.122154  0  3.946875  0
C  C63  1  0.62432993  0.94684893  0.81365219  1  0  -0.113363  0  3.708737  0  0  -0.12677  0  3.961418  0  0  -0.133982  0  3.983193  0  -0.057215  0  -0.077878  -0.122122  0  3.946828  0
C  C64  1  0.77923830  0.13183224  0.33384201  1  0  0.020744  0  3.678459  0  0  0.001917  0  3.929371  0  0  0.005643  0  3.94726  0  -0.03383  0  -0.056345  -0.000314  0  3.917107  0
C  C65  1  0.27923790  0.13183320  0.16615862  1  0  0.020758  0  3.678536  0  0  0.001932  0  3.929432  0  0  0.005658  0  3.947321  0  -0.033266  0  -0.056348  -0.000299  0  3.917171  0
C  C66  1  0.22076085  0.86816829  0.66615736  1  0  0.020745  0  3.678461  0  0  0.001917  0  3.929379  0  0  0.005641  0  3.947268  0  -0.033828  0  -0.056328  -0.000316  0  3.917113  0
C  C67  1  0.72076285  0.86816829  0.83384328  1  0  0.02072  0  3.678444  0  0  0.001886  0  3.929363  0  0  0.005609  0  3.947252  0  -0.033827  0  -0.056349  -0.000346  0  3.9171  0
C  C68  1  0.61691154  0.07522467  0.36515074  1  0  -0.150524  0  3.702228  0  0  -0.172774  0  3.956405  0  0  -0.180222  0  3.977819  0  0.005622  0  -0.078246  -0.167846  0  3.941961  0
C  C69  1  0.11691113  0.07522564  0.13485052  1  0  -0.150581  0  3.702349  0  0  -0.172819  0  3.956506  0  0  -0.18027  0  3.977917  0  0.005625  0  -0.078245  -0.167888  0  3.942065  0
C  C70  1  0.38308840  0.92477489  0.63484863  1  0  -0.150502  0  3.702138  0  0  -0.172743  0  3.956318  0  0  -0.180189  0  3.977733  0  0.005407  0  -0.078242  -0.167815  0  3.941872  0
C  C71  1  0.88308842  0.92477586  0.86515137  1  0  -0.150545  0  3.702214  0  0  -0.17277  0  3.956376  0  0  -0.180215  0  3.977791  0  0.00561  0  -0.078252  -0.167841  0  3.941933  0
C  C72  1  0.55527649  0.94132848  0.37665763  1  0  0.175674  0  3.760826  0  0  0.168209  0  4.005306  0  0  0.175066  0  4.025324  0  0.43151  0  0.133016  0.163715  0  3.991617  0
C  C73  1  0.05527490  0.94132945  0.12334237  1  0  0.175691  0  3.760841  0  0  0.168214  0  4.005323  0  0  0.175071  0  4.02534  0  0.431512  0  0.133035  0.16372  0  3.991634  0
C  C74  1  0.44472384  0.05867205  0.62334174  1  0  0.175629  0  3.760824  0  0  0.168143  0  4.005302  0  0  0.174998  0  4.025321  0  0.431518  0  0.133003  0.163649  0  3.991614  0
C  C75  1  0.94472465  0.05867205  0.87665826  1  0  0.175668  0  3.76087  0  0  0.168223  0  4.005354  0  0  0.175079  0  4.025373  0  0.431503  0  0.133032  0.163728  0  3.991666  0
C  C76  1  0.38579962  0.87245702  0.41067342  1  0  0.177056  0  3.758477  0  0  0.168023  0  4.005253  0  0  0.174751  0  4.025522  0  0.469185  0  0.130928  0.16355  0  3.991491  0
C  C77  1  0.88579805  0.87245702  0.08932722  1  0  0.177127  0  3.758412  0  0  0.16808  0  4.00522  0  0  0.174808  0  4.025488  0  0.469184  0  0.130945  0.163608  0  3.991459  0
C  C78  1  0.61420269  0.12754254  0.58932722  1  0  0.177068  0  3.75849  0  0  0.168076  0  4.005225  0  0  0.174803  0  4.025494  0  0.469177  0  0.130945  0.163603  0  3.991463  0
C  C79  1  0.11420110  0.12754350  0.91067342  1  0  0.17701  0  3.758523  0  0  0.167976  0  4.005306  0  0  0.174704  0  4.025572  0  0.469163  0  0.130914  0.163504  0  3.991543  0
C  C80  1  0.26309808  0.93151834  0.42506303  1  0  -0.141686  0  3.683953  0  0  -0.160154  0  3.932761  0  0  -0.167006  0  3.953691  0  0.024168  0  -0.073666  -0.155614  0  3.91886  0
C  C81  1  0.76309811  0.93151931  0.07493760  1  0  -0.14172  0  3.683866  0  0  -0.160198  0  3.932699  0  0  -0.167048  0  3.953627  0  0.024153  0  -0.07367  -0.155658  0  3.918798  0
C  C82  1  0.73690025  0.06848025  0.57493886  1  0  -0.141601  0  3.683787  0  0  -0.160103  0  3.932626  0  0  -0.166954  0  3.953557  0  0.02413  0  -0.07365  -0.155562  0  3.918723  0
C  C83  1  0.23689985  0.06848122  0.92506177  1  0  -0.141688  0  3.683888  0  0  -0.160164  0  3.932708  0  0  -0.167013  0  3.953637  0  0.024153  0  -0.073671  -0.155622  0  3.918806  0
C  C84  1  0.10740315  0.85677106  0.45732340  1  0  0.009145  0  3.700618  0  0  -0.011789  0  3.954093  0  0  -0.008255  0  3.97248  0  -0.093216  0  -0.05658  -0.013926  0  3.941554  0
C  C85  1  0.60740318  0.85677203  0.04267850  1  0  0.009231  0  3.700457  0  0  -0.011664  0  3.953924  0  0  -0.008129  0  3.972311  0  -0.093216  0  -0.056574  -0.0138  0  3.941389  0
C  C86  1  0.89259835  0.14322657  0.54267913  1  0  0.009156  0  3.700435  0  0  -0.011783  0  3.953947  0  0  -0.008248  0  3.972336  0  -0.093049  0  -0.05661  -0.013922  0  3.941409  0
C  C87  1  0.39259638  0.14322947  0.95732150  1  0  0.009205  0  3.700504  0  0  -0.011697  0  3.95398  0  0  -0.008163  0  3.972368  0  -0.093202  0  -0.056573  -0.013836  0  3.941443  0
C  C88  1  0.07847998  0.72661984  0.47557076  1  0  -0.077306  0  3.663986  0  0  -0.093241  0  3.92098  0  0  -0.099265  0  3.940569  0  0.066428  0  -0.062075  -0.089522  0  3.908116  0
C  C89  1  0.57847722  0.72661984  0.02443113  1  0  -0.077343  0  3.663957  0  0  -0.093295  0  3.920981  0  0  -0.09932  0  3.940571  0  0.066209  0  -0.06204  -0.089576  0  3.908118  0
C  C90  1  0.92152271  0.27337778  0.52443113  1  0  -0.077329  0  3.663993  0  0  -0.093291  0  3.921013  0  0  -0.099318  0  3.940604  0  0.066057  0  -0.06207  -0.08957  0  3.908149  0
C  C91  1  0.42152231  0.27337875  0.97557013  1  0  -0.077382  0  3.664015  0  0  -0.093331  0  3.92103  0  0  -0.099357  0  3.940622  0  0.06636  0  -0.062103  -0.089611  0  3.908167  0
C  C92  1  0.20625845  0.67421289  0.45996916  1  0  0.174174  0  3.627926  0  0  0.136668  0  3.88455  0  0  0.144652  0  3.900538  0  0.448883  0  0.076478  0.131371  0  3.873863  0
C  C93  1  0.70625650  0.67421482  0.04003147  1  0  0.174163  0  3.628016  0  0  0.136686  0  3.884637  0  0  0.144668  0  3.900626  0  0.449172  0  0.076495  0.131388  0  3.873949  0
C  C94  1  0.79374741  0.32578377  0.54003084  1  0  0.174294  0  3.627975  0  0  0.136725  0  3.88465  0  0  0.14471  0  3.900643  0  0.449254  0  0.076513  0.131427  0  3.873962  0
C  C95  1  0.29374265  0.32578570  0.95996980  1  0  0.174137  0  3.627993  0  0  0.136651  0  3.884616  0  0  0.144633  0  3.900603  0  0.448893  0  0.076474  0.131353  0  3.873929  0
N  N96  1  0.65095074  0.86665867  0.35753256  1  0  -0.346081  0  3.293432  0  0  -0.270901  0  3.53849  0  0  -0.289382  0  3.556941  0  -1.242255  0  -0.276965  -0.25855  0  3.525864  0
N  N97  1  0.15095034  0.86665964  0.14246744  1  0  -0.346113  0  3.293459  0  0  -0.270877  0  3.538512  0  0  -0.289356  0  3.556962  0  -1.242782  0  -0.276971  -0.258526  0  3.525885  0
N  N98  1  0.34905079  0.13334186  0.64246681  1  0  -0.346089  0  3.293412  0  0  -0.270874  0  3.538438  0  0  -0.289357  0  3.556895  0  -1.242251  0  -0.276975  -0.258522  0  3.525811  0
N  N99  1  0.84904922  0.13334186  0.85753256  1  0  -0.346015  0  3.293353  0  0  -0.270896  0  3.538485  0  0  -0.289379  0  3.55694  0  -1.242249  0  -0.27697  -0.258545  0  3.525861  0
N  N100  1  0.35459454  0.74538122  0.42736188  1  0  -0.360134  0  3.28983  0  0  -0.287707  0  3.538406  0  0  -0.306606  0  3.557679  0  -1.246114  0  -0.276188  -0.27489  0  3.52526  0
N  N101  1  0.85459177  0.74538122  0.07263812  1  0  -0.360155  0  3.289967  0  0  -0.287731  0  3.538546  0  0  -0.306629  0  3.557819  0  -1.246084  0  -0.276188  -0.274915  0  3.5254  0
N  N102  1  0.64540897  0.25461834  0.57263812  1  0  -0.360188  0  3.289881  0  0  -0.287772  0  3.538469  0  0  -0.306672  0  3.557742  0  -1.246073  0  -0.276209  -0.274955  0  3.525323  0
N  N103  1  0.14540738  0.25461931  0.92736188  1  0  -0.360055  0  3.289853  0  0  -0.287631  0  3.538421  0  0  -0.306529  0  3.557691  0  -1.246092  0  -0.276161  -0.274815  0  3.525275  0
O  O104  1  0.43740795  0.65443089  0.27349497  1  0  -0.93083  0  2.031654  0  0  -0.851192  0  2.317239  0  0  -0.878059  0  2.292988  0  -1.466758  0  -0.34064  -0.832164  0  2.333397  0
O  O105  1  0.93740679  0.65443185  0.22650439  1  0  -0.930829  0  2.031741  0  0  -0.851191  0  2.317332  0  0  -0.878055  0  2.293103  0  -1.466776  0  -0.340626  -0.832157  0  2.333478  0
O  O106  1  0.56259239  0.34556964  0.72650439  1  0  -0.930839  0  2.031677  0  0  -0.851203  0  2.31727  0  0  -0.878076  0  2.29303  0  -1.466765  0  -0.340622  -0.832174  0  2.333427  0
O  O107  1  0.06259277  0.34556964  0.77349561  1  0  -0.930854  0  2.031693  0  0  -0.851199  0  2.317254  0  0  -0.87807  0  2.293016  0  -1.466762  0  -0.340621  -0.83217  0  2.333414  0
O  O108  1  0.65502774  0.71871053  0.50007646  1  0  -0.882485  0  1.983015  0  0  -0.806296  0  2.265393  0  0  -0.833663  0  2.243343  0  -1.452702  0  -0.328859  -0.786994  0  2.280407  0
O  O109  1  0.15502693  0.71871053  0.99992291  1  0  -0.882517  0  1.982991  0  0  -0.806337  0  2.265372  0  0  -0.833699  0  2.243313  0  -1.45271  0  -0.328891  -0.787036  0  2.280387  0
O  O110  1  0.34497379  0.28129000  0.49992291  1  0  -0.882515  0  1.983009  0  0  -0.806327  0  2.265372  0  0  -0.833691  0  2.243318  0  -1.452703  0  -0.328891  -0.787025  0  2.280387  0
O  O111  1  0.84497222  0.28129000  0.00007646  1  0  -0.882489  0  1.983057  0  0  -0.806289  0  2.265414  0  0  -0.833656  0  2.243364  0  -1.452728  0  -0.328856  -0.786986  0  2.280428  0
O  O112  1  0.59429420  0.50135641  0.57872584  1  0  -0.93108  0  2.104905  0  0  -0.841839  0  2.390349  0  0  -0.868588  0  2.364829  0  -1.446094  0  -0.322913  -0.822912  0  2.40726  0
O  O113  1  0.09429339  0.50135641  0.92127416  1  0  -0.931115  0  2.104926  0  0  -0.841894  0  2.390357  0  0  -0.868678  0  2.364873  0  -1.446222  0  -0.322914  -0.822965  0  2.407269  0
O  O114  1  0.40570692  0.49864315  0.42127353  1  0  -0.931124  0  2.104955  0  0  -0.841906  0  2.390393  0  0  -0.86869  0  2.364902  0  -1.44621  0  -0.322948  -0.822979  0  2.407305  0
O  O115  1  0.90570576  0.49864412  0.07872521  1  0  -0.931092  0  2.104883  0  0  -0.84182  0  2.390271  0  0  -0.868581  0  2.364783  0  -1.446055  0  -0.322913  -0.822893  0  2.407184  0
O  O116  1  0.24572303  0.63529186  0.14770083  1  0  -0.901501  0  2.051277  0  0  -0.811862  0  2.338884  0  0  -0.840126  0  2.314957  0  -1.451518  0  -0.327496  -0.792123  0  2.354826  0
O  O117  1  0.74572224  0.63529089  0.35229917  1  0  -0.901558  0  2.051199  0  0  -0.811927  0  2.3388  0  0  -0.840187  0  2.314889  0  -1.451777  0  -0.327532  -0.792189  0  2.354746  0
O  O118  1  0.75427653  0.36470964  0.85229980  1  0  -0.901556  0  2.051281  0  0  -0.811922  0  2.338887  0  0  -0.840157  0  2.314937  0  -1.451789  0  -0.32752  -0.792178  0  2.354826  0
O  O119  1  0.25427810  0.36470964  0.64770020  1  0  -0.901575  0  2.051225  0  0  -0.811956  0  2.338847  0  0  -0.840175  0  2.314892  0  -1.451791  0  -0.327527  -0.792209  0  2.354784  0
O  O120  1  0.48194347  0.68084304  0.63060605  1  0  -0.791793  0  2.025143  0  0  -0.71695  0  2.257218  0  0  -0.737651  0  2.228666  0  -1.443468  0  -0.382676  -0.702244  0  2.276742  0
O  O121  1  0.98194190  0.68084304  0.86939395  1  0  -0.791758  0  2.02516  0  0  -0.716896  0  2.257204  0  0  -0.737594  0  2.22865  0  -1.443487  0  -0.382663  -0.702188  0  2.276728  0
O  O122  1  0.51805646  0.31915652  0.36939331  1  0  -0.791826  0  2.025132  0  0  -0.71698  0  2.257192  0  0  -0.737673  0  2.228634  0  -1.443486  0  -0.382664  -0.702274  0  2.276716  0
O  O123  1  0.01805725  0.31915749  0.13060605  1  0  -0.791766  0  2.02513  0  0  -0.71693  0  2.257218  0  0  -0.737626  0  2.228666  0  -1.443463  0  -0.382668  -0.702222  0  2.276744  0
O  O124  1  0.79548147  0.70876869  0.63664575  1  0  -0.791912  0  1.952461  0  0  -0.725452  0  2.185564  0  0  -0.746244  0  2.158034  0  -1.442576  0  -0.395748  -0.710711  0  2.204615  0
O  O125  1  0.29548144  0.70876772  0.86335425  1  0  -0.791914  0  1.952482  0  0  -0.725448  0  2.185562  0  0  -0.746237  0  2.158034  0  -1.442573  0  -0.395749  -0.710708  0  2.204612  0
O  O126  1  0.20451768  0.29123184  0.36335488  1  0  -0.791896  0  1.952432  0  0  -0.725448  0  2.185542  0  0  -0.74624  0  2.15801  0  -1.442577  0  -0.395717  -0.710708  0  2.204593  0
O  O127  1  0.70451611  0.29123184  0.13664512  1  0  -0.791882  0  1.952448  0  0  -0.725432  0  2.185555  0  0  -0.746223  0  2.158024  0  -1.442583  0  -0.395723  -0.710692  0  2.204606  0
O  O128  1  0.41535464  0.48603163  0.15985226  1  0  -0.784978  0  1.948633  0  0  -0.717492  0  2.18198  0  0  -0.739364  0  2.155406  0  -1.432702  0  -0.396476  -0.701944  0  2.199967  0
O  O129  1  0.91535426  0.48603163  0.34014837  1  0  -0.785017  0  1.94854  0  0  -0.717561  0  2.181932  0  0  -0.739426  0  2.155374  0  -1.432703  0  -0.396499  -0.702011  0  2.199922  0
O  O130  1  0.58464410  0.51396793  0.84014774  1  0  -0.784992  0  1.948643  0  0  -0.717488  0  2.181971  0  0  -0.739363  0  2.155399  0  -1.432696  0  -0.396483  -0.701939  0  2.19996  0
O  O131  1  0.08464489  0.51396890  0.65985163  1  0  -0.785011  0  1.948532  0  0  -0.717532  0  2.181892  0  0  -0.739405  0  2.155325  0  -1.432704  0  -0.396477  -0.701982  0  2.199882  0
O  O132  1  0.16656098  0.45702435  0.25702009  1  0  -0.910574  0  2.013515  0  0  -0.808937  0  2.237262  0  0  -0.837635  0  2.214643  0  -1.445753  0  -0.357942  -0.788786  0  2.252454  0
O  O133  1  0.66656060  0.45702435  0.24297991  1  0  -0.910541  0  2.013469  0  0  -0.808946  0  2.237228  0  0  -0.83764  0  2.214626  0  -1.445769  0  -0.357932  -0.788796  0  2.25242  0
O  O134  1  0.83343817  0.54297617  0.74297991  1  0  -0.910531  0  2.013475  0  0  -0.808934  0  2.237246  0  0  -0.837635  0  2.214634  0  -1.445751  0  -0.357943  -0.788785  0  2.252441  0
O  O135  1  0.33344015  0.54297714  0.75702009  1  0  -0.910526  0  2.013412  0  0  -0.808947  0  2.237182  0  0  -0.837647  0  2.214573  0  -1.445761  0  -0.357943  -0.788797  0  2.252377  0
