# generated using pymatgen
data_Zn4H9C24S4(NO5)3
_symmetry_space_group_name_H-M   'P 1'
_cell_length_a   19.66641993
_cell_length_b   19.62119471
_cell_length_c   33.36385241
_cell_angle_alpha   79.37022814
_cell_angle_beta   79.23541381
_cell_angle_gamma   64.01565388
_symmetry_Int_Tables_number   1
_chemical_formula_structural   Zn4H9C24S4(NO5)3
_chemical_formula_sum   'Zn16 H36 C96 S16 N12 O60'
_cell_volume   11292.28166643
_cell_formula_units_Z   4
loop_
 _symmetry_equiv_pos_site_id
 _symmetry_equiv_pos_as_xyz
  1  'x, y, z'
loop_
 _atom_site_type_symbol
 _atom_site_label
 _atom_site_symmetry_multiplicity
 _atom_site_fract_x
 _atom_site_fract_y
 _atom_site_fract_z
 _atom_site_occupancy
 _atom_site_pbe_bader_charge
 _atom_site_pbe_bader_spin_density
 _atom_site_pbe_cm5_charge
 _atom_site_pbe_ddec_charge
 _atom_site_pbe_ddec_spin_density
 _atom_site_pbe_ddec_sum_bond_order
 _atom_site_pbe_magmom
Zn  Zn0  1  0.05701513  0.40067875  0.47814379  1  1.32185  0  0.6742  0.972861  0  2.361867  0
Zn  Zn1  1  0.98273126  0.48382578  0.55988920  1  1.308966  0  0.662945  0.945162  0  2.396126  0
Zn  Zn2  1  0.06005014  0.55988547  0.48184035  1  1.318984  0  0.673342  0.963066  0  2.378058  0
Zn  Zn3  1  0.90002219  0.55598937  0.48001833  1  1.31741  0  0.674487  0.964075  0  2.376571  0
Zn  Zn4  1  0.69426091  0.35036240  0.27106127  1  1.322597  0  0.672574  0.96895  0  2.367065  0
Zn  Zn5  1  0.69043528  0.18888833  0.26723932  1  1.316464  0  0.672966  0.968097  0  2.360786  0
Zn  Zn6  1  0.76854896  0.26773389  0.19056223  1  1.314489  0  0.672303  0.960562  0  2.377656  0
Zn  Zn7  1  0.84841765  0.19384096  0.27240870  1  1.313361  0  0.667144  0.953954  0  2.382272  0
Zn  Zn8  1  0.26707760  0.76785162  0.68966088  1  1.313978  0  0.673327  0.964707  0  2.373702  0
Zn  Zn9  1  0.34713521  0.69514644  0.77214448  1  1.309314  0  0.666782  0.955742  0  2.383549  0
Zn  Zn10  1  0.19207125  0.85052022  0.77122445  1  1.328307  0  0.679478  0.978667  0  2.353006  0
Zn  Zn11  1  0.19065195  0.68939070  0.76705179  1  1.317002  0  0.666481  0.95501  0  2.387274  0
Zn  Zn12  1  0.56089461  0.06016662  0.98290833  1  1.316027  0  0.671819  0.965461  0  2.368863  0
Zn  Zn13  1  0.40069796  0.05614956  0.97905285  1  1.319086  0  0.672102  0.961955  0  2.374894  0
Zn  Zn14  1  0.55526398  0.90138282  0.97804764  1  1.319663  0  0.671044  0.96682  0  2.369009  0
Zn  Zn15  1  0.48323505  0.98340821  0.06040098  1  1.313345  0  0.672664  0.967529  0  2.366484  0
H  H16  1  0.95194930  0.24778337  0.35287676  1  0.132918  0  0.113015  0.118894  0  0.988349  0
H  H17  1  0.74854498  0.45701883  0.34923896  1  0.129421  0  0.124196  0.142168  0  0.971606  0
H  H18  1  0.99852997  0.29740470  0.40138075  1  0.107634  0  0.117028  0.124501  0  0.981804  0
H  H19  1  0.09981959  0.59592881  0.69977766  1  0.077116  0  0.112504  0.11888  0  0.988928  0
H  H20  1  0.19811993  0.70506850  0.59731802  1  0.1443  0  0.123728  0.14234  0  0.971634  0
H  H21  1  0.05237341  0.54813600  0.65080568  1  0.084335  0  0.112645  0.118325  0  0.990595  0
H  H22  1  0.46489277  0.23873743  0.34121210  1  0.115242  0  0.119882  0.14482  0  0.970799  0
H  H23  1  0.47954144  0.70349175  0.60298094  1  0.120888  0  0.123097  0.148735  0  0.965758  0
H  H24  1  0.20153812  0.97959266  0.60099506  1  0.128047  0  0.121375  0.146968  0  0.968229  0
H  H25  1  0.94668576  0.97112495  0.35075915  1  0.118653  0  0.119728  0.144593  0  0.970373  0
H  H26  1  0.54914663  0.05180513  0.15222730  1  0.092102  0  0.115197  0.122692  0  0.98491  0
H  H27  1  0.65567024  0.15084056  0.04871718  1  0.101052  0  0.123289  0.141706  0  0.971201  0
H  H28  1  0.59839053  0.10039453  0.19987946  1  0.126992  0  0.116613  0.123912  0  0.982289  0
H  H29  1  0.54701047  0.77127934  0.14768594  1  0.119524  0  0.120963  0.14572  0  0.968757  0
H  H30  1  0.16301121  0.13962323  0.04122760  1  0.136094  0  0.121384  0.147129  0  0.966732  0
H  H31  1  0.50064354  0.79809234  0.89790810  1  0.142596  0  0.114841  0.121954  0  0.984495  0
H  H32  1  0.29317326  0.00335397  0.90085867  1  0.131307  0  0.123732  0.142643  0  0.971631  0
H  H33  1  0.45111681  0.75163710  0.84933971  1  0.084626  0  0.114527  0.120628  0  0.986082  0
H  H34  1  0.30200073  0.27827776  0.90191616  1  0.135238  0  0.121912  0.147778  0  0.966553  0
H  H35  1  0.78756435  0.00867176  0.91006389  1  0.115823  0  0.12175  0.146768  0  0.96694  0
H  H36  1  0.32225333  0.55000866  0.40325449  1  0.460234  0  0.31861  0.314545  0  0.926485  0
H  H37  1  0.23509294  0.55173871  0.42765152  1  0.497242  0  0.310329  0.3251  0  0.950976  0
H  H38  1  0.76727824  0.52038973  0.68580227  1  0.445526  0  0.311658  0.30596  0  0.938148  0
H  H39  1  0.83567215  0.51490346  0.64362121  1  0.487109  0  0.303507  0.315121  0  0.965554  0
H  H40  1  0.04573518  0.26793667  0.68546665  1  0.421335  0  0.313082  0.308056  0  0.934669  0
H  H41  1  0.02363038  0.33653651  0.64291470  1  0.507004  0  0.302739  0.313779  0  0.967012  0
H  H42  1  0.74600930  0.79890922  0.38195222  1  0.435573  0  0.317193  0.312592  0  0.927209  0
H  H43  1  0.79897096  0.71909969  0.41350020  1  0.504755  0  0.308329  0.323229  0  0.954475  0
H  H44  1  0.71300134  0.48172688  0.06357917  1  0.451163  0  0.318396  0.315075  0  0.928135  0
H  H45  1  0.73149996  0.41293473  0.10648368  1  0.517171  0  0.311382  0.327132  0  0.94932  0
H  H46  1  0.14477263  0.08488399  0.22755862  1  0.445827  0  0.315387  0.310059  0  0.933724  0
H  H47  1  0.04629144  0.11758058  0.24030121  1  0.491741  0  0.307283  0.319991  0  0.958959  0
H  H48  1  0.51482491  0.43747178  0.85482711  1  0.434365  0  0.315406  0.310094  0  0.933601  0
H  H49  1  0.45515175  0.52324644  0.82927673  1  0.492139  0  0.30746  0.320552  0  0.957468  0
H  H50  1  0.92726554  0.70085639  0.84409629  1  0.459935  0  0.315143  0.310226  0  0.933978  0
H  H51  1  0.01560169  0.69856281  0.82122854  1  0.504503  0  0.307489  0.320786  0  0.958635  0
C  C52  1  0.05946327  0.31623418  0.56217109  1  1.497928  0  0.205533  0.615709  0  4.21797  0
C  C53  1  0.06929328  0.56888168  0.56909212  1  1.587954  0  0.230742  0.612413  0  4.173741  0
C  C54  1  0.18589807  0.43838313  0.43818645  1  1.503571  0  0.204241  0.61175  0  4.22237  0
C  C55  1  0.93699815  0.68381220  0.43840857  1  1.509087  0  0.204529  0.611761  0  4.221187  0
C  C56  1  0.93016897  0.43074310  0.43201438  1  1.608883  0  0.230763  0.609599  0  4.172746  0
C  C57  1  0.81536573  0.56359915  0.56356732  1  1.512816  0  0.206383  0.614923  0  4.219909  0
C  C58  1  0.56552631  0.31179232  0.31037701  1  1.554099  0  0.217235  0.609102  0  4.217126  0
C  C59  1  0.68187312  0.18078249  0.18109287  1  1.595343  0  0.231419  0.609873  0  4.171054  0
C  C60  1  0.69044643  0.43528297  0.18768928  1  1.506603  0  0.204266  0.612814  0  4.223505  0
C  C61  1  0.93581481  0.18498462  0.18954903  1  1.510176  0  0.205402  0.613144  0  4.220121  0
C  C62  1  0.81903602  0.32011408  0.31947945  1  1.585507  0  0.230958  0.60308  0  4.167006  0
C  C63  1  0.81118105  0.06547447  0.31268844  1  1.576711  0  0.216296  0.609668  0  4.217404  0
C  C64  1  0.43421200  0.68887547  0.68963523  1  1.545757  0  0.215931  0.609081  0  4.21865  0
C  C65  1  0.31822880  0.82056919  0.81872697  1  1.604021  0  0.231869  0.612747  0  4.171739  0
C  C66  1  0.18681646  0.93463099  0.68780878  1  1.56571  0  0.217928  0.6103  0  4.219449  0
C  C67  1  0.06649751  0.80922299  0.81308315  1  1.515453  0  0.206013  0.613633  0  4.21979  0
C  C68  1  0.18048456  0.68185667  0.68035150  1  1.565139  0  0.231852  0.606396  0  4.166872  0
C  C69  1  0.31201073  0.56439753  0.81147680  1  1.500481  0  0.204571  0.613805  0  4.220179  0
C  C70  1  0.43902694  0.18397631  0.93850733  1  1.544832  0  0.217143  0.609846  0  4.218696  0
C  C71  1  0.42900153  0.93178028  0.93101600  1  1.588376  0  0.231627  0.603816  0  4.169268  0
C  C72  1  0.68400760  0.93838129  0.93796140  1  1.565681  0  0.217269  0.610652  0  4.218078  0
C  C73  1  0.56182802  0.81590362  0.06096430  1  1.546989  0  0.216692  0.609944  0  4.216764  0
C  C74  1  0.57029061  0.06980615  0.06902863  1  1.580945  0  0.231821  0.604409  0  4.165187  0
C  C75  1  0.31578967  0.06230998  0.06208152  1  1.569723  0  0.2166  0.60882  0  4.219645  0
C  C76  1  0.90110712  0.40469937  0.40201291  1  0.089254  0  -0.0017  -0.070722  0  3.918943  0
C  C77  1  0.84768041  0.34935885  0.34816715  1  -0.08092  0  -0.004442  -0.00748  0  3.952154  0
C  C78  1  0.83089716  0.44899118  0.38668650  1  0.141908  0  0.089938  0.070726  0  3.909321  0
C  C79  1  0.91830569  0.30431336  0.36267830  1  -0.024791  0  -0.072713  -0.087206  0  3.956462  0
C  C80  1  0.80351637  0.42212355  0.36046030  1  0.072186  0  -0.068637  -0.140795  0  3.920384  0
C  C81  1  0.94419047  0.33182171  0.38937212  1  -0.019242  0  -0.06924  -0.071699  0  3.952083  0
C  C82  1  0.09776579  0.59971203  0.59699767  1  0.019155  0  -0.001898  -0.071334  0  3.924607  0
C  C83  1  0.15152359  0.65337977  0.65147447  1  0.029632  0  -0.004631  -0.0075  0  3.954976  0
C  C84  1  0.13886190  0.64429473  0.58255540  1  0.172531  0  0.091056  0.072037  0  3.916264  0
C  C85  1  0.11037500  0.60922154  0.66669992  1  0.007687  0  -0.075338  -0.091371  0  3.960923  0
C  C86  1  0.16597779  0.67087284  0.60906819  1  0.003088  0  -0.069072  -0.142079  0  3.92357  0
C  C87  1  0.08415548  0.58284223  0.63964990  1  0.008405  0  -0.072687  -0.073372  0  3.962165  0
C  C88  1  0.30326550  0.45612480  0.40021212  1  0.532921  0  0.107794  0.283288  0  4.134164  0
C  C89  1  0.44701434  0.29619016  0.34872958  1  0.071209  0  -0.087691  -0.131102  0  3.962913  0
C  C90  1  0.25909248  0.41397389  0.41343844  1  -0.102467  0  -0.049886  -0.263728  0  3.95842  0
C  C91  1  0.49094802  0.33699877  0.33541476  1  -0.182143  0  -0.02616  -0.119893  0  3.987248  0
C  C92  1  0.37885232  0.33888498  0.37248645  1  -0.16541  0  -0.021723  0.007712  0  4.106431  0
C  C93  1  0.37214387  0.41168065  0.37669377  1  -0.142655  0  -0.029782  -0.125734  0  4.039916  0
C  C94  1  0.72722910  0.57665095  0.63107195  1  0.532171  0  0.10184  0.276036  0  4.131667  0
C  C95  1  0.52448910  0.67435460  0.62279689  1  0.005245  0  -0.08472  -0.127576  0  3.954698  0
C  C96  1  0.74176174  0.58854734  0.58806320  1  -0.086137  0  -0.04689  -0.261758  0  3.959331  0
C  C97  1  0.50926582  0.66373965  0.66512087  1  -0.156067  0  -0.026103  -0.117914  0  3.986378  0
C  C98  1  0.60363478  0.64301061  0.61015968  1  -0.13043  0  -0.021175  0.005844  0  4.103714  0
C  C99  1  0.64724491  0.60872828  0.64324694  1  -0.153992  0  -0.030326  -0.122411  0  4.045765  0
C  C100  1  0.07300480  0.22774697  0.62945098  1  0.51917  0  0.102713  0.2785  0  4.127949  0
C  C101  1  0.17195901  0.02467236  0.62086124  1  0.096454  0  -0.086678  -0.13072  0  3.960482  0
C  C102  1  0.08316123  0.24239124  0.58638965  1  -0.093559  0  -0.049391  -0.264173  0  3.961752  0
C  C103  1  0.16167312  0.00962753  0.66320743  1  -0.158115  0  -0.024307  -0.118211  0  3.985343  0
C  C104  1  0.13947793  0.10390142  0.60829892  1  -0.225681  0  -0.021345  0.00742  0  4.104005  0
C  C105  1  0.10546293  0.14761394  0.64149501  1  -0.155219  0  -0.030419  -0.126727  0  4.047869  0
C  C106  1  0.84317182  0.79779778  0.39695334  1  0.469818  0  0.106769  0.281842  0  4.128062  0
C  C107  1  0.90302712  0.94988982  0.35443318  1  0.062535  0  -0.087609  -0.130297  0  3.962747  0
C  C108  1  0.91211804  0.75768282  0.41434030  1  -0.082521  0  -0.047923  -0.262313  0  3.95549  0
C  C109  1  0.83533170  0.99057951  0.33740956  1  -0.193319  0  -0.02634  -0.119936  0  3.986492  0
C  C110  1  0.90619361  0.87996676  0.37626680  1  -0.128248  0  -0.021768  0.006068  0  4.108476  0
C  C111  1  0.84079498  0.86844180  0.37525346  1  -0.163638  0  -0.029738  -0.124362  0  4.039614  0
C  C112  1  0.65495842  0.15177864  0.15148591  1  0.060233  0  -0.001942  -0.07106  0  3.921495  0
C  C113  1  0.59947133  0.09836913  0.09774289  1  -0.018621  0  -0.00376  -0.006967  0  3.952544  0
C  C114  1  0.67061189  0.16516243  0.10869548  1  0.1791  0  0.090395  0.071157  0  3.913231  0
C  C115  1  0.58332243  0.08389446  0.14034123  1  -0.044592  0  -0.072871  -0.089465  0  3.956234  0
C  C116  1  0.64323154  0.13958449  0.08183063  1  0.080748  0  -0.069434  -0.142872  0  3.919929  0
C  C117  1  0.61070535  0.11057628  0.16667615  1  -0.032869  0  -0.069007  -0.070351  0  3.953309  0
C  C118  1  0.67683316  0.52261363  0.11997444  1  0.535147  0  0.10814  0.28478  0  4.13347  0
C  C119  1  0.57652681  0.72607750  0.12790247  1  0.021525  0  -0.086152  -0.126868  0  3.95838  0
C  C120  1  0.66554272  0.50868829  0.16313666  1  -0.08414  0  -0.049146  -0.264764  0  3.957011  0
C  C121  1  0.58703342  0.74091821  0.08554892  1  -0.144064  0  -0.026386  -0.121226  0  3.988266  0
C  C122  1  0.60869893  0.64690893  0.14064275  1  -0.141566  0  -0.021307  0.005722  0  4.106776  0
C  C123  1  0.64338179  0.60280637  0.10764651  1  -0.181323  0  -0.029941  -0.124076  0  4.036432  0
C  C124  1  0.08108954  0.12179852  0.17916653  1  0.496318  0  0.104462  0.280619  0  4.134432  0
C  C125  1  0.17025051  0.12357330  0.07363898  1  0.010322  0  -0.085805  -0.128385  0  3.956328  0
C  C126  1  0.00917207  0.15982694  0.16485038  1  -0.110331  0  -0.048047  -0.263694  0  3.956494  0
C  C127  1  0.24137479  0.08614553  0.08727266  1  -0.166761  0  -0.025944  -0.119565  0  3.986315  0
C  C128  1  0.11159177  0.13681442  0.10684398  1  -0.167884  0  -0.020824  0.006035  0  4.104875  0
C  C129  1  0.13939637  0.10910761  0.14524667  1  -0.163828  0  -0.029476  -0.124667  0  4.043782  0
C  C130  1  0.34468851  0.85011941  0.84826605  1  0.093992  0  -0.002255  -0.073318  0  3.923406  0
C  C131  1  0.39993487  0.90328969  0.90222410  1  0.051399  0  -0.00505  -0.007461  0  3.955225  0
C  C132  1  0.30097732  0.92091134  0.86331065  1  0.118127  0  0.090628  0.07245  0  3.917307  0
C  C133  1  0.44455513  0.83217935  0.88788001  1  -0.073698  0  -0.072939  -0.08894  0  3.954296  0
C  C134  1  0.32774372  0.94806659  0.88970038  1  0.01336  0  -0.068335  -0.142598  0  3.92567  0
C  C135  1  0.41708866  0.80642652  0.86112715  1  -0.020568  0  -0.070934  -0.071272  0  3.955653  0
C  C136  1  0.40592487  0.45050343  0.85275387  1  0.567017  0  0.104963  0.281142  0  4.134254  0
C  C137  1  0.34591559  0.29938428  0.89732457  1  0.053356  0  -0.085888  -0.13032  0  3.955929  0
C  C138  1  0.33601901  0.49138279  0.83645117  1  -0.143408  0  -0.049339  -0.263576  0  3.959538  0
C  C139  1  0.41446022  0.25862134  0.91350085  1  -0.163545  0  -0.024451  -0.11674  0  3.982782  0
C  C140  1  0.34239863  0.36917564  0.87512094  1  -0.166041  0  -0.021335  0.009168  0  4.102437  0
C  C141  1  0.40851129  0.38019480  0.87490286  1  -0.161907  0  -0.029851  -0.12522  0  4.042759  0
C  C142  1  0.94780053  0.79264283  0.84971746  1  0.469817  0  0.104654  0.279514  0  4.135617  0
C  C143  1  0.80460639  0.95196306  0.90169242  1  0.094334  0  -0.085199  -0.125967  0  3.955211  0
C  C144  1  0.99340458  0.83349559  0.83800224  1  -0.058833  0  -0.048593  -0.26411  0  3.958216  0
C  C145  1  0.75904677  0.91260699  0.91338194  1  -0.224476  0  -0.025902  -0.120255  0  3.987288  0
C  C146  1  0.87332357  0.90883595  0.87847222  1  -0.169737  0  -0.021117  0.004593  0  4.106148  0
C  C147  1  0.87872084  0.83714086  0.87298413  1  -0.134884  0  -0.030524  -0.12534  0  4.045434  0
S  S148  1  0.30120334  0.32283561  0.39728568  1  0.231799  0  0.051379  0.091395  0  2.747295  0
S  S149  1  0.44967808  0.42747229  0.35155664  1  0.244215  0  0.074794  0.124274  0  2.758683  0
S  S150  1  0.65950435  0.63766362  0.56347301  1  0.256316  0  0.067532  0.113993  0  2.743903  0
S  S151  1  0.59092789  0.61579570  0.68985645  1  0.22484  0  0.062229  0.106337  0  2.765386  0
S  S152  1  0.13127238  0.15988790  0.56158659  1  0.243898  0  0.058267  0.100922  0  2.744882  0
S  S153  1  0.11250177  0.09137820  0.68804458  1  0.254498  0  0.078862  0.130464  0  2.757886  0
S  S154  1  0.97170617  0.80543279  0.40426229  1  0.264112  0  0.059331  0.104072  0  2.748537  0
S  S155  1  0.77512125  0.94407868  0.34785483  1  0.251198  0  0.070501  0.118061  0  2.758653  0
S  S156  1  0.61575596  0.59160053  0.18752757  1  0.241206  0  0.054708  0.096817  0  2.747443  0
S  S157  1  0.63620933  0.65878213  0.06098281  1  0.244817  0  0.069914  0.117223  0  2.759438  0
S  S158  1  0.01349519  0.17854297  0.11130045  1  0.314605  0  0.064006  0.110378  0  2.741548  0
S  S159  1  0.23746202  0.06646728  0.14049063  1  0.261374  0  0.069836  0.117221  0  2.758948  0
S  S160  1  0.27539857  0.44471197  0.84838509  1  0.256292  0  0.052678  0.0929  0  2.746363  0
S  S161  1  0.47485432  0.30487131  0.90203877  1  0.259097  0  0.072556  0.12048  0  2.759912  0
S  S162  1  0.95275877  0.92331192  0.85559515  1  0.25261  0  0.066706  0.114171  0  2.740375  0
S  S163  1  0.79952571  0.82277089  0.89645300  1  0.256794  0  0.068506  0.115535  0  2.760293  0
N  N164  1  0.78212943  0.52810836  0.39650972  1  0.433093  0  0.061016  0.524653  0  4.237104  0
N  N165  1  0.15497790  0.66730100  0.53813716  1  0.405753  0  0.059538  0.522628  0  4.243233  0
N  N166  1  0.71891387  0.20583406  0.08927275  1  0.448144  0  0.060053  0.524501  0  4.239865  0
N  N167  1  0.22255518  0.97055349  0.85312887  1  0.434707  0  0.058984  0.521489  0  4.240768  0
N  N168  1  0.28263775  0.52877291  0.40762484  1  -1.265847  0  -0.576038  -0.586199  0  3.334321  0
N  N169  1  0.78161549  0.54220394  0.65728071  1  -1.244293  0  -0.585849  -0.595829  0  3.330206  0
N  N170  1  0.03539549  0.28196975  0.65577648  1  -1.254911  0  -0.585056  -0.595615  0  3.328033  0
N  N171  1  0.78657023  0.77404128  0.40121422  1  -1.241975  0  -0.576729  -0.585897  0  3.329757  0
N  N172  1  0.71541017  0.46828453  0.09415071  1  -1.289963  0  -0.575779  -0.588406  0  3.34045  0
N  N173  1  0.09306952  0.09852975  0.21926091  1  -1.264864  0  -0.581335  -0.591659  0  3.336502  0
N  N174  1  0.46172964  0.47528537  0.84902960  1  -1.243791  0  -0.58051  -0.591139  0  3.337284  0
N  N175  1  0.96769542  0.72067807  0.84116718  1  -1.285044  0  -0.582081  -0.593368  0  3.339035  0
O  O176  1  0.99998014  0.49963626  0.50016750  1  -1.232772  0  -0.571803  -1.023135  0  2.53776  0
O  O177  1  0.07249179  0.31741593  0.52298822  1  -1.162287  0  -0.326244  -0.553368  0  2.33814  0
O  O178  1  0.02763175  0.53439856  0.58635960  1  -1.163712  0  -0.313329  -0.543497  0  2.330443  0
O  O179  1  0.15692138  0.50641804  0.44911858  1  -1.172071  0  -0.32106  -0.554488  0  2.330808  0
O  O180  1  0.02696852  0.37560621  0.58204331  1  -1.176335  0  -0.325494  -0.562552  0  2.33037  0
O  O181  1  0.15497211  0.39095321  0.44755690  1  -1.179939  0  -0.329128  -0.557074  0  2.33923  0
O  O182  1  0.08960157  0.57929224  0.53088562  1  -1.161567  0  -0.303955  -0.532611  0  2.37482  0
O  O183  1  0.00189109  0.65768753  0.45194092  1  -1.177422  0  -0.327451  -0.55313  0  2.3461  0
O  O184  1  0.88309026  0.49019027  0.44841437  1  -1.168281  0  -0.306696  -0.534939  0  2.370639  0
O  O185  1  0.89216970  0.64949594  0.44447233  1  -1.170679  0  -0.320782  -0.554267  0  2.331502  0
O  O186  1  0.99903780  0.39029110  0.43876747  1  -1.174179  0  -0.30673  -0.53471  0  2.322411  0
O  O187  1  0.87473182  0.52495751  0.58286007  1  -1.183549  0  -0.323816  -0.560629  0  2.327158  0
O  O188  1  0.81626950  0.58152837  0.52461223  1  -1.187894  0  -0.324243  -0.546872  0  2.342305  0
O  O189  1  0.75017511  0.24978291  0.25069122  1  -1.226436  0  -0.570737  -1.025371  0  2.528927  0
O  O190  1  0.59711744  0.35837524  0.30304809  1  -1.153467  0  -0.320538  -0.547974  0  2.336796  0
O  O191  1  0.66999427  0.15839412  0.21902256  1  -1.159263  0  -0.308549  -0.536799  0  2.323828  0
O  O192  1  0.72745699  0.37561759  0.16834474  1  -1.179045  0  -0.320432  -0.553814  0  2.329563  0
O  O193  1  0.59210996  0.24578704  0.29821105  1  -1.169316  0  -0.318729  -0.542097  0  2.315308  0
O  O194  1  0.67412562  0.43457786  0.22686754  1  -1.171299  0  -0.329257  -0.557491  0  2.338821  0
O  O195  1  0.71338939  0.22565565  0.16576961  1  -1.167298  0  -0.305117  -0.533347  0  2.37612  0
O  O196  1  0.87658727  0.21961259  0.17047288  1  -1.178898  0  -0.326648  -0.550557  0  2.344959  0
O  O197  1  0.86283844  0.25398516  0.30887503  1  -1.174967  0  -0.312729  -0.544849  0  2.3356  0
O  O198  1  0.93539837  0.17098321  0.22906442  1  -1.165923  0  -0.322607  -0.559767  0  2.326483  0
O  O199  1  0.75371302  0.36379758  0.30824203  1  -1.167745  0  -0.308542  -0.535699  0  2.328597  0
O  O200  1  0.74491000  0.09306043  0.30088116  1  -1.171945  0  -0.321794  -0.550994  0  2.338393  0
O  O201  1  0.85811033  0.09655104  0.30509127  1  -1.182459  0  -0.320019  -0.543363  0  2.314512  0
O  O202  1  0.24957141  0.75086208  0.74980904  1  -1.231025  0  -0.571237  -1.026445  0  2.532194  0
O  O203  1  0.37623604  0.72252601  0.66987827  1  -1.163133  0  -0.316412  -0.538454  0  2.31846  0
O  O204  1  0.35942678  0.75176875  0.81148293  1  -1.174521  0  -0.311454  -0.540566  0  2.328644  0
O  O205  1  0.16763435  0.93460839  0.72663862  1  -1.168657  0  -0.317595  -0.544368  0  2.33904  0
O  O206  1  0.43384812  0.67473327  0.72875332  1  -1.156664  0  -0.324946  -0.555178  0  2.337575  0
O  O207  1  0.22538193  0.87632013  0.66833638  1  -1.174198  0  -0.318846  -0.543048  0  2.315282  0
O  O208  1  0.25781652  0.86668912  0.80317559  1  -1.170549  0  -0.303763  -0.532361  0  2.368233  0
O  O209  1  0.09928291  0.85495755  0.80582347  1  -1.178404  0  -0.324489  -0.549119  0  2.342493  0
O  O210  1  0.16440175  0.66503735  0.71861080  1  -1.165273  0  -0.312028  -0.544202  0  2.334563  0
O  O211  1  0.09326305  0.74320015  0.79980962  1  -1.177839  0  -0.323645  -0.560272  0  2.328128  0
O  O212  1  0.21872844  0.72031354  0.66400932  1  -1.16855  0  -0.310261  -0.539861  0  2.33334  0
O  O213  1  0.35925780  0.59615807  0.80321771  1  -1.18132  0  -0.322804  -0.558605  0  2.329702  0
O  O214  1  0.24592647  0.59230166  0.79918989  1  -1.180735  0  -0.329828  -0.556738  0  2.338942  0
O  O215  1  0.50006008  0.00031342  0.00008599  1  -1.226342  0  -0.570499  -1.029612  0  2.524819  0
O  O216  1  0.50539340  0.15689596  0.95013136  1  -1.171614  0  -0.321088  -0.550148  0  2.337114  0
O  O217  1  0.38515438  0.99714552  0.94253863  1  -1.17172  0  -0.309993  -0.538754  0  2.332749  0
O  O218  1  0.65190751  0.89219523  0.94506207  1  -1.158266  0  -0.321703  -0.54983  0  2.334639  0
O  O219  1  0.39209693  0.15299953  0.94640469  1  -1.164152  0  -0.31682  -0.539333  0  2.315906  0
O  O220  1  0.65751456  0.00432403  0.95012533  1  -1.171062  0  -0.317777  -0.541072  0  2.31554  0
O  O221  1  0.49499073  0.88809206  0.94144039  1  -1.174224  0  -0.309422  -0.539928  0  2.334819  0
O  O222  1  0.57717863  0.81588403  0.02189461  1  -1.14463  0  -0.322026  -0.550434  0  2.337058  0
O  O223  1  0.53148195  0.03198184  0.08546920  1  -1.171065  0  -0.31009  -0.541381  0  2.334211  0
O  O224  1  0.52695425  0.87435680  0.08059787  1  -1.170807  0  -0.318187  -0.541493  0  2.316406  0
O  O225  1  0.58689807  0.08579701  0.03070529  1  -1.166973  0  -0.310515  -0.539413  0  2.330989  0
O  O226  1  0.31542408  0.07838888  0.02317110  1  -1.166295  0  -0.317905  -0.540484  0  2.31617  0
O  O227  1  0.37454877  0.02737804  0.08141894  1  -1.175752  0  -0.321779  -0.550979  0  2.336486  0
O  O228  1  0.80284098  0.57833130  0.37892278  1  -0.446712  0  -0.13714  -0.332413  0  1.870642  0
O  O229  1  0.72257105  0.53818396  0.41968089  1  -0.430381  0  -0.130651  -0.320808  0  1.852826  0
O  O230  1  0.10464410  0.72469569  0.52241460  1  -0.425131  0  -0.127341  -0.316758  0  1.862245  0
O  O231  1  0.21908543  0.62972549  0.52110850  1  -0.414652  0  -0.136884  -0.328377  0  1.85309  0
O  O232  1  0.78853124  0.16794976  0.08680831  1  -0.430818  0  -0.12824  -0.317933  0  1.864389  0
O  O233  1  0.68551907  0.27325992  0.07508929  1  -0.454052  0  -0.139608  -0.33265  0  1.852752  0
O  O234  1  0.17123046  0.95308219  0.87218441  1  -0.425528  0  -0.128322  -0.317553  0  1.863333  0
O  O235  1  0.21455637  0.02772578  0.82815714  1  -0.431579  0  -0.135096  -0.325951  0  1.851505  0
