# generated using pymatgen
data_CdH13C20SN3O4
_symmetry_space_group_name_H-M   'P 1'
_cell_length_a   9.10048507
_cell_length_b   9.21916843
_cell_length_c   11.87388137
_cell_angle_alpha   95.02304363
_cell_angle_beta   110.33649994
_cell_angle_gamma   106.25028726
_symmetry_Int_Tables_number   1
_chemical_formula_structural   CdH13C20SN3O4
_chemical_formula_sum   'Cd2 H26 C40 S2 N6 O8'
_cell_volume   877.68922569
_cell_formula_units_Z   2
loop_
 _symmetry_equiv_pos_site_id
 _symmetry_equiv_pos_as_xyz
  1  'x, y, z'
loop_
 _atom_site_type_symbol
 _atom_site_label
 _atom_site_symmetry_multiplicity
 _atom_site_fract_x
 _atom_site_fract_y
 _atom_site_fract_z
 _atom_site_occupancy
 _atom_site_pbe_bader_spin_density
 _atom_site_pbe_cm5_charge
 _atom_site_pbe_ddec_charge
 _atom_site_pbe_ddec_spin_density
 _atom_site_pbe_ddec_sum_bond_order
 _atom_site_pbe_magmom
Cd  Cd0  1  0.92152830  0.49200583  0.31716189  1  0  0.772677  0.887494  0  2.132752  0
Cd  Cd1  1  0.07847652  0.50799223  0.68283900  1  0  0.772662  0.887437  0  2.13283  0
H  H2  1  0.92956377  0.78044384  0.51156932  1  0  0.115429  0.092588  0  1.016187  0
H  H3  1  0.07042650  0.21955289  0.48843006  1  0  0.115425  0.092538  0  1.016191  0
H  H4  1  0.80336378  0.99154067  0.50730615  1  0  0.108194  0.120418  0  0.997575  0
H  H5  1  0.19662448  0.00845373  0.49269504  1  0  0.10821  0.120445  0  0.997567  0
H  H6  1  0.63221809  0.03299092  0.30440779  1  0  0.110436  0.11635  0  1.012575  0
H  H7  1  0.36777809  0.96700933  0.69559343  1  0  0.110461  0.116411  0  1.01255  0
H  H8  1  0.50715986  0.94842051  0.07631080  1  0  0.108332  0.110554  0  1.022665  0
H  H9  1  0.49284460  0.05158329  0.92369124  1  0  0.10836  0.110587  0  1.022669  0
H  H10  1  0.48458872  0.78760586  0.88673424  1  0  0.110563  0.128977  0  1.000181  0
H  H11  1  0.51541964  0.21239911  0.11327063  1  0  0.11052  0.128918  0  1.000226  0
H  H12  1  0.57338097  0.59523740  0.79053597  1  0  0.105176  0.114009  0  1.050234  0
H  H13  1  0.42662234  0.40476984  0.20946600  1  0  0.105195  0.114001  0  1.050221  0
H  H14  1  0.73059823  0.40800761  0.81773733  1  0  0.106474  0.112256  0  1.013037  0
H  H15  1  0.26939839  0.59199383  0.18225990  1  0  0.106496  0.112276  0  1.01309  0
H  H16  1  0.86831090  0.36568136  0.03133201  1  0  0.112747  0.084433  0  1.03056  0
H  H17  1  0.13168809  0.63432011  0.96866502  1  0  0.112777  0.084513  0  1.030474  0
H  H18  1  0.90191608  0.98545570  0.08879716  1  0  0.103642  0.103354  0  1.036029  0
H  H19  1  0.09808320  0.01453655  0.91120266  1  0  0.103614  0.103324  0  1.036049  0
H  H20  1  0.04060620  0.78805113  0.06503759  1  0  0.100014  0.107  0  1.027232  0
H  H21  1  0.95939138  0.21193643  0.93496902  1  0  0.100007  0.107025  0  1.027276  0
H  H22  1  0.33653386  0.84459717  0.21024223  1  0  0.104741  0.063493  0  1.034835  0
H  H23  1  0.66346504  0.15540081  0.78975958  1  0  0.104692  0.063441  0  1.034892  0
H  H24  1  0.65468568  0.36135532  0.59164113  1  0  0.104169  0.141437  0  1.004933  0
H  H25  1  0.34530940  0.63864840  0.40835499  1  0  0.104211  0.141477  0  1.004864  0
H  H26  1  0.57420870  0.16905901  0.50261219  1  0  0.106784  0.140549  0  1.008209  0
H  H27  1  0.42579027  0.83094588  0.49738844  1  0  0.106791  0.140576  0  1.008179  0
C  C28  1  0.74950490  0.73667321  0.21287552  1  0  0.114297  0.118472  0  3.978558  0
C  C29  1  0.25050114  0.26333177  0.78712619  1  0  0.11426  0.1184  0  3.978486  0
C  C30  1  0.85626441  0.80354198  0.42508464  1  0  0.057512  0.108603  0  3.960458  0
C  C31  1  0.14373412  0.19645830  0.57491638  1  0  0.057575  0.108758  0  3.960328  0
C  C32  1  0.78448822  0.92094293  0.42179330  1  0  -0.084084  -0.131515  0  3.989162  0
C  C33  1  0.21550639  0.07905616  0.57820657  1  0  -0.084138  -0.131582  0  3.989166  0
C  C34  1  0.69069255  0.94398044  0.30992506  1  0  -0.059355  -0.055939  0  3.88554  0
C  C35  1  0.30930638  0.05602099  0.69007700  1  0  -0.059398  -0.056099  0  3.885586  0
C  C36  1  0.66925840  0.84948742  0.20105832  1  0  -0.000746  0.042841  0  4.014076  0
C  C37  1  0.33074524  0.15051406  0.79894418  1  0  -0.000696  0.043044  0  4.01393  0
C  C38  1  0.57205999  0.86480865  0.08186030  1  0  -0.080616  -0.115509  0  3.987364  0
C  C39  1  0.42794011  0.13519279  0.91814208  1  0  -0.080716  -0.115732  0  3.98752  0
C  C40  1  0.56002176  0.77742989  0.97795124  1  0  -0.080169  -0.11321  0  3.940767  0
C  C41  1  0.43998187  0.22257503  0.02205402  1  0  -0.080082  -0.11307  0  3.940772  0
C  C42  1  0.64549422  0.66740152  0.98633777  1  0  -0.001563  0.045647  0  3.979297  0
C  C43  1  0.35451339  0.33260462  0.01366445  1  0  -0.001521  0.045687  0  3.979437  0
C  C44  1  0.64310127  0.57964198  0.88155449  1  0  -0.060088  -0.058422  0  3.879966  0
C  C45  1  0.35690401  0.42036414  0.11844625  1  0  -0.060144  -0.058407  0  3.880003  0
C  C46  1  0.72738075  0.47457240  0.89664411  1  0  -0.086709  -0.131465  0  3.9812  0
C  C47  1  0.27261978  0.52543021  0.10335594  1  0  -0.086654  -0.13146  0  3.981369  0
C  C48  1  0.80875750  0.45363287  0.01534353  1  0  0.051784  0.098417  0  3.977376  0
C  C49  1  0.19125013  0.54637328  0.98465785  1  0  0.051692  0.098299  0  3.977442  0
C  C50  1  0.73715136  0.64364838  0.10341098  1  0  0.116282  0.119341  0  3.984672  0
C  C51  1  0.26285073  0.35635539  0.89659126  1  0  0.116283  0.119315  0  3.984786  0
C  C52  1  0.02883988  0.25120754  0.24475835  1  0  0.183718  0.552054  0  4.255468  0
C  C53  1  0.97116029  0.74879051  0.75523623  1  0  0.183803  0.552087  0  4.255413  0
C  C54  1  0.11730147  0.13827380  0.23668775  1  0  -0.024109  -0.127108  0  3.931972  0
C  C55  1  0.88269987  0.86172426  0.76330798  1  0  -0.02417  -0.127205  0  3.932026  0
C  C56  1  0.02996341  0.00197764  0.14775007  1  0  -0.070416  -0.039609  0  3.968406  0
C  C57  1  0.97003584  0.99801460  0.85225142  1  0  -0.070293  -0.039435  0  3.968376  0
C  C58  1  0.10608425  0.89337301  0.13537638  1  0  -0.103337  -0.155162  0  4.010743  0
C  C59  1  0.89391340  0.10661803  0.86462713  1  0  -0.103426  -0.155303  0  4.010898  0
C  C60  1  0.26992396  0.92521228  0.21571851  1  0  0.040336  0.098151  0  4.015799  0
C  C61  1  0.73007370  0.07478221  0.78428608  1  0  0.040447  0.098242  0  4.015725  0
C  C62  1  0.28460764  0.15977233  0.31409838  1  0  0.123532  0.166482  0  4.009249  0
C  C63  1  0.71539451  0.84022804  0.68589774  1  0  0.123485  0.166488  0  4.009173  0
C  C64  1  0.59639291  0.29139196  0.49804661  1  0  -0.159631  -0.359013  0  3.916969  0
C  C65  1  0.40360412  0.70861063  0.50195080  1  0  -0.159675  -0.359126  0  3.916937  0
C  C66  1  0.71749898  0.34137449  0.43547862  1  0  0.202603  0.648919  0  4.132061  0
C  C67  1  0.28250197  0.65862929  0.56452079  1  0  0.202599  0.648918  0  4.132142  0
S  S68  1  0.40203388  0.32608071  0.43047260  1  0  0.041886  0.063692  0  2.931863  0
S  S69  1  0.59796433  0.67391845  0.56952321  1  0  0.04191  0.063747  0  2.931706  0
N  N70  1  0.81441005  0.53620169  0.11536072  1  0  -0.32721  -0.287144  0  3.528129  0
N  N71  1  0.18559207  0.46380209  0.88463984  1  0  -0.327198  -0.28713  0  3.528192  0
N  N72  1  0.83999724  0.71512575  0.32399637  1  0  -0.323613  -0.267084  0  3.491342  0
N  N73  1  0.16000523  0.28487572  0.67600581  1  0  -0.323622  -0.267091  0  3.491321  0
N  N74  1  0.35722221  0.05380228  0.30275246  1  0  -0.3253  -0.308278  0  3.373769  0
N  N75  1  0.64277711  0.94619343  0.69724593  1  0  -0.325321  -0.308299  0  3.373616  0
O  O76  1  0.66730268  0.37233480  0.32948582  1  0  -0.318207  -0.545975  0  2.245848  0
O  O77  1  0.33270259  0.62767132  0.67051493  1  0  -0.318181  -0.545929  0  2.245869  0
O  O78  1  0.86817839  0.35058704  0.49381116  1  0  -0.339656  -0.585484  0  2.271698  0
O  O79  1  0.13182170  0.64941096  0.50619013  1  0  -0.339669  -0.585476  0  2.271694  0
O  O80  1  0.11696202  0.38309040  0.31916093  1  0  -0.329496  -0.554004  0  2.302195  0
O  O81  1  0.88303702  0.61690767  0.68082997  1  0  -0.329482  -0.553941  0  2.302172  0
O  O82  1  0.87590305  0.21495204  0.18121124  1  0  -0.327028  -0.550599  0  2.145742  0
O  O83  1  0.12409678  0.78504833  0.81878088  1  0  -0.32708  -0.550676  0  2.145833  0
