# generated using pymatgen
data_ErAgH8C14(NO4)2
_symmetry_space_group_name_H-M   'P 1'
_cell_length_a   9.47736892
_cell_length_b   9.60223311
_cell_length_c   11.46083406
_cell_angle_alpha   102.23527424
_cell_angle_beta   95.87232012
_cell_angle_gamma   119.35884819
_symmetry_Int_Tables_number   1
_chemical_formula_structural   ErAgH8C14(NO4)2
_chemical_formula_sum   'Er2 Ag2 H16 C28 N4 O16'
_cell_volume   861.95015670
_cell_formula_units_Z   2
loop_
 _symmetry_equiv_pos_site_id
 _symmetry_equiv_pos_as_xyz
  1  'x, y, z'
loop_
 _atom_site_type_symbol
 _atom_site_label
 _atom_site_symmetry_multiplicity
 _atom_site_fract_x
 _atom_site_fract_y
 _atom_site_fract_z
 _atom_site_occupancy
 _atom_site_pbe_bader_charge
 _atom_site_pbe_bader_spin_density
 _atom_site_pbe_cm5_charge
 _atom_site_pbe_ddec_charge
 _atom_site_pbe_ddec_spin_density
 _atom_site_pbe_ddec_sum_bond_order
 _atom_site_pbe_magmom
Er  Er0  1  0.72652220  0.35949149  0.49231665  1  2.190646  0  1.493995  2.074945  0  2.155557  0
Er  Er1  1  0.27349287  0.64052068  0.50768224  1  2.190499  0  1.493975  2.074968  0  2.155698  0
Ag  Ag2  1  0.51809223  0.81981390  0.17797175  1  0.554021  0  0.479905  0.331783  0  1.796803  0
Ag  Ag3  1  0.48189538  0.18016196  0.82202810  1  0.554066  0  0.479888  0.331808  0  1.796557  0
H  H4  1  0.19187440  0.77948806  0.22401484  1  0.138321  0  0.124456  0.103892  0  1.006181  0
H  H5  1  0.91297062  0.69818356  0.10377735  1  0.088907  0  0.106748  0.109621  0  1.015213  0
H  H6  1  0.85305133  0.60909546  0.86992240  1  0.12376  0  0.121907  0.129607  0  0.975186  0
H  H7  1  0.35809894  0.72792803  0.90477655  1  0.131548  0  0.12743  0.104706  0  0.987824  0
H  H8  1  0.68755603  0.68205495  0.32705005  1  0.135725  0  0.127053  0.11021  0  0.991864  0
H  H9  1  0.21755227  0.02744338  0.40164240  1  0.125176  0  0.1192  0.124132  0  0.989309  0
H  H10  1  0.15875667  0.18277451  0.27206949  1  0.142799  0  0.117915  0.137584  0  0.997088  0
H  H11  1  0.86124458  0.07027813  0.17055998  1  0.085573  0  0.111867  0.075095  0  1.037107  0
H  H12  1  0.80810382  0.22046778  0.77598684  1  0.137989  0  0.124445  0.103896  0  1.006147  0
H  H13  1  0.08700954  0.30177601  0.89621990  1  0.088615  0  0.106807  0.109698  0  1.015127  0
H  H14  1  0.14694707  0.39089291  0.13007618  1  0.124143  0  0.121885  0.129604  0  0.975179  0
H  H15  1  0.64190096  0.27205915  0.09522979  1  0.131638  0  0.127462  0.104763  0  0.987811  0
H  H16  1  0.31244197  0.31795094  0.67294807  1  0.135716  0  0.127066  0.110196  0  0.991846  0
H  H17  1  0.78244558  0.97258254  0.59835833  1  0.125144  0  0.119223  0.124163  0  0.989392  0
H  H18  1  0.84122564  0.81722372  0.72791027  1  0.142905  0  0.117925  0.137616  0  0.997085  0
H  H19  1  0.13873255  0.92970005  0.82941584  1  0.08568  0  0.111833  0.075119  0  1.037041  0
C  C20  1  0.16310105  0.74904647  0.12412301  1  0.399361  0  0.05388  0.097925  0  3.886157  0
C  C21  1  0.00752186  0.70122810  0.05596033  1  0.017916  0  -0.081987  -0.124864  0  3.978279  0
C  C22  1  0.97462909  0.65375301  0.92800776  1  0.016504  0  -0.054769  -0.041756  0  3.908655  0
C  C23  1  0.10263521  0.66360185  0.87242141  1  -0.049701  0  -0.010217  -0.077297  0  3.960498  0
C  C24  1  0.25687197  0.71815872  0.94682470  1  0.444679  0  0.051774  0.054301  0  3.918482  0
C  C25  1  0.07762759  0.61294650  0.73482749  1  1.640178  0  0.230291  0.637745  0  4.205414  0
C  C26  1  0.79436829  0.79118543  0.31548670  1  0.513229  0  0.054664  0.071639  0  3.869952  0
C  C27  1  0.95666125  0.84206421  0.37258289  1  -0.084954  0  -0.010825  -0.085366  0  3.936307  0
C  C28  1  0.09015225  0.98441684  0.35685059  1  -0.011265  0  -0.052069  -0.032093  0  3.899864  0
C  C29  1  0.05784723  0.06951870  0.28412296  1  -0.002538  0  -0.07349  -0.10642  0  3.921308  0
C  C30  1  0.89296540  0.00912877  0.22899735  1  0.435479  0  0.047486  0.088872  0  3.919104  0
C  C31  1  0.98577600  0.74209716  0.44690470  1  1.606058  0  0.227776  0.644732  0  4.195896  0
C  C32  1  0.48694653  0.96571747  0.43017238  1  1.560839  0  0.202663  0.483833  0  4.250766  0
C  C33  1  0.53969739  0.54739680  0.56973032  1  1.585694  0  0.203549  0.487372  0  4.27003  0
C  C34  1  0.83688480  0.25092193  0.87588324  1  0.410243  0  0.053814  0.097785  0  3.886418  0
C  C35  1  0.99247255  0.29874656  0.94404511  1  0.007717  0  -0.082053  -0.124957  0  3.978263  0
C  C36  1  0.02536433  0.34622788  0.07199433  1  0.016292  0  -0.054638  -0.041689  0  3.90861  0
C  C37  1  0.89735860  0.33639401  0.12757548  1  -0.049738  0  -0.010185  -0.077141  0  3.960319  0
C  C38  1  0.74312296  0.28183721  0.05318277  1  0.444681  0  0.051736  0.054271  0  3.918454  0
C  C39  1  0.92238372  0.38707067  0.26517196  1  1.639226  0  0.23017  0.637577  0  4.204983  0
C  C40  1  0.20562453  0.20881666  0.68450596  1  0.513323  0  0.054726  0.071661  0  3.869886  0
C  C41  1  0.04333364  0.15794791  0.62741344  1  -0.084784  0  -0.010899  -0.085522  0  3.936748  0
C  C42  1  0.90983998  0.01559021  0.64313677  1  -0.011514  0  -0.052063  -0.032035  0  3.900302  0
C  C43  1  0.94213722  0.93047956  0.71586047  1  -0.002776  0  -0.073429  -0.106388  0  3.921437  0
C  C44  1  0.10701948  0.99086828  0.77099202  1  0.434616  0  0.047441  0.088654  0  3.919068  0
C  C45  1  0.01422286  0.25791243  0.55308715  1  1.605811  0  0.227697  0.644619  0  4.196306  0
C  C46  1  0.51310330  0.03431860  0.56983884  1  1.586416  0  0.202606  0.483513  0  4.250773  0
C  C47  1  0.46029236  0.45258919  0.43028806  1  1.599651  0  0.203545  0.48724  0  4.269908  0
N  N48  1  0.28591654  0.75667858  0.07037353  1  -1.183813  0  -0.349504  -0.187416  0  3.648769  0
N  N49  1  0.76267725  0.87293094  0.24457356  1  -1.183908  0  -0.351903  -0.194834  0  3.656554  0
N  N50  1  0.71407298  0.24329483  0.92963391  1  -1.184089  0  -0.349497  -0.187452  0  3.649108  0
N  N51  1  0.23731229  0.12706488  0.75541773  1  -1.182793  0  -0.351931  -0.194709  0  3.656212  0
O  O52  1  0.41537989  0.80738021  0.38519456  1  -1.18085  0  -0.375922  -0.60781  0  2.373798  0
O  O53  1  0.20796196  0.67648527  0.69508057  1  -1.177215  0  -0.383703  -0.643963  0  2.330486  0
O  O54  1  0.92935282  0.51066056  0.67214717  1  -1.199087  0  -0.386562  -0.658333  0  2.36274  0
O  O55  1  0.13609447  0.78646141  0.48612622  1  -1.185517  0  -0.37908  -0.660757  0  2.317253  0
O  O56  1  0.85768078  0.62096891  0.46214079  1  -1.197834  0  -0.387451  -0.679976  0  2.365845  0
O  O57  1  0.49940095  0.65006670  0.61858072  1  -1.180779  0  -0.388476  -0.610512  0  2.271523  0
O  O58  1  0.63827906  0.51477218  0.62314623  1  -1.178609  0  -0.367943  -0.596133  0  2.306571  0
O  O59  1  0.53821491  0.07018445  0.37071796  1  -1.139739  0  -0.348662  -0.560424  0  2.330541  0
O  O60  1  0.58465770  0.19264460  0.61481890  1  -1.181419  0  -0.375919  -0.607584  0  2.373804  0
O  O61  1  0.79206924  0.32353948  0.30492624  1  -1.176433  0  -0.38374  -0.644012  0  2.330749  0
O  O62  1  0.07067557  0.48937914  0.32785155  1  -1.198855  0  -0.386452  -0.658232  0  2.362152  0
O  O63  1  0.86391836  0.21357082  0.51388123  1  -1.185662  0  -0.379066  -0.660718  0  2.317486  0
O  O64  1  0.14232972  0.37904065  0.53784331  1  -1.197596  0  -0.387394  -0.679776  0  2.365859  0
O  O65  1  0.50056752  0.34991306  0.38144439  1  -1.180847  0  -0.388402  -0.610361  0  2.271633  0
O  O66  1  0.36172872  0.48524631  0.37686450  1  -1.178657  0  -0.367975  -0.596187  0  2.306325  0
O  O67  1  0.46182698  0.92983033  0.62929062  1  -1.139813  0  -0.348592  -0.560424  0  2.330289  0
