# generated using pymatgen
data_CaH16C16(ClO3)2
_symmetry_space_group_name_H-M   'P 1'
_cell_length_a   6.63954315
_cell_length_b   11.39924596
_cell_length_c   13.35258782
_cell_angle_alpha   106.12726713
_cell_angle_beta   90.00010675
_cell_angle_gamma   89.99942425
_symmetry_Int_Tables_number   1
_chemical_formula_structural   CaH16C16(ClO3)2
_chemical_formula_sum   'Ca2 H32 C32 Cl4 O12'
_cell_volume   970.83098384
_cell_formula_units_Z   2
loop_
 _symmetry_equiv_pos_site_id
 _symmetry_equiv_pos_as_xyz
  1  'x, y, z'
loop_
 _atom_site_type_symbol
 _atom_site_label
 _atom_site_symmetry_multiplicity
 _atom_site_fract_x
 _atom_site_fract_y
 _atom_site_fract_z
 _atom_site_occupancy
 _atom_site_hle17_bader_spin_density
 _atom_site_hle17_ddec_charge
 _atom_site_hle17_ddec_spin_density
 _atom_site_hle17_ddec_sum_bond_order
 _atom_site_hle17_magmom
 _atom_site_hse06_10hf_bader_spin_density
 _atom_site_hse06_10hf_ddec_charge
 _atom_site_hse06_10hf_ddec_spin_density
 _atom_site_hse06_10hf_ddec_sum_bond_order
 _atom_site_hse06_10hf_magmom
 _atom_site_hse06_bader_spin_density
 _atom_site_hse06_ddec_charge
 _atom_site_hse06_ddec_spin_density
 _atom_site_hse06_ddec_sum_bond_order
 _atom_site_hse06_magmom
 _atom_site_pbe_bader_spin_density
 _atom_site_pbe_cm5_charge
 _atom_site_pbe_ddec_charge
 _atom_site_pbe_ddec_spin_density
 _atom_site_pbe_ddec_sum_bond_order
 _atom_site_pbe_magmom
Ca  Ca0  1  0.79544540  0.04480938  0.44963920  1  0  1.542814  0  1.106436  0  0  1.412335  0  1.451495  0  0  1.45805  0  1.405596  0  0  0.888423  1.37797  0  1.48405  0
Ca  Ca1  1  0.29543970  0.95518214  0.55035461  1  0  1.542787  0  1.106524  0  0  1.412255  0  1.451689  0  0  1.457987  0  1.405777  0  0  0.888404  1.378024  0  1.484005  0
H  H2  1  0.53527148  0.28940925  0.97449373  1  0  0.091349  0  0.980378  0  0  0.096784  0  1.053524  0  0  0.099724  0  1.052275  0  0  0.091486  0.094601  0  1.054669  0
H  H3  1  0.03525855  0.71058484  0.02550498  1  0  0.091401  0  0.980375  0  0  0.096838  0  1.0535  0  0  0.099782  0  1.052251  0  0  0.09152  0.094656  0  1.054648  0
H  H4  1  0.23030063  0.42007895  0.98553328  1  0  0.085719  0  0.971595  0  0  0.091157  0  1.042989  0  0  0.09336  0  1.043136  0  0  0.092095  0.089646  0  1.04288  0
H  H5  1  0.73028937  0.57992672  0.01446976  1  0  0.085664  0  0.971537  0  0  0.091111  0  1.042961  0  0  0.09331  0  1.043109  0  0  0.092085  0.089599  0  1.042854  0
H  H6  1  0.19010676  0.54666029  0.86185656  1  0  0.08369  0  0.957164  0  0  0.096271  0  1.016389  0  0  0.098727  0  1.015419  0  0  0.093822  0.094476  0  1.017248  0
H  H7  1  0.69009517  0.45334381  0.13814759  1  0  0.083693  0  0.957045  0  0  0.096258  0  1.016302  0  0  0.098713  0  1.015337  0  0  0.09383  0.094497  0  1.017123  0
H  H8  1  0.45110640  0.54131990  0.72763701  1  0  0.098023  0  0.935288  0  0  0.11087  0  0.989969  0  0  0.114269  0  0.987912  0  0  0.102264  0.108292  0  0.991816  0
H  H9  1  0.95109832  0.45868531  0.27236534  1  0  0.097909  0  0.935345  0  0  0.110779  0  0.990013  0  0  0.114176  0  0.987961  0  0  0.10226  0.108215  0  0.991844  0
H  H10  1  0.95554717  0.43168169  0.73535678  1  0  0.109634  0  0.949416  0  0  0.120337  0  1.017999  0  0  0.122435  0  1.016871  0  0  0.097435  0.118788  0  1.018999  0
H  H11  1  0.45554521  0.56831618  0.26464462  1  0  0.109552  0  0.94932  0  0  0.120275  0  1.017916  0  0  0.122379  0  1.016784  0  0  0.097397  0.118733  0  1.018924  0
H  H12  1  0.78259032  0.49156081  0.66265419  1  0  0.119633  0  0.916512  0  0  0.135951  0  0.970661  0  0  0.13841  0  0.96908  0  0  0.105988  0.13422  0  0.971843  0
H  H13  1  0.28257615  0.50844273  0.33735214  1  0  0.119567  0  0.916547  0  0  0.135862  0  0.97075  0  0  0.138323  0  0.969172  0  0  0.10596  0.134143  0  0.971931  0
H  H14  1  0.70288191  0.09850540  0.01769141  1  0  0.088215  0  0.972741  0  0  0.095181  0  1.041943  0  0  0.097127  0  1.0425  0  0  0.094775  0.093764  0  1.041693  0
H  H15  1  0.20289257  0.90149404  0.98230791  1  0  0.088168  0  0.972758  0  0  0.095118  0  1.041972  0  0  0.097068  0  1.042523  0  0  0.094756  0.093701  0  1.041725  0
H  H16  1  0.73100206  0.92448546  0.09649253  1  0  0.090819  0  0.956284  0  0  0.10231  0  1.015712  0  0  0.104839  0  1.015035  0  0  0.09855  0.100498  0  1.016327  0
H  H17  1  0.23099918  0.07551104  0.90350463  1  0  0.090821  0  0.956311  0  0  0.102283  0  1.015778  0  0  0.104812  0  1.015104  0  0  0.09851  0.100472  0  1.016391  0
H  H18  1  0.02035864  0.91185290  0.20912668  1  0  0.110367  0  0.957783  0  0  0.119284  0  1.020175  0  0  0.122218  0  1.019013  0  0  0.111093  0.116957  0  1.021471  0
H  H19  1  0.52036361  0.08814218  0.79087000  1  0  0.110422  0  0.957732  0  0  0.119332  0  1.020114  0  0  0.122266  0  1.018952  0  0  0.111109  0.116979  0  1.021443  0
H  H20  1  0.97483912  0.25552055  0.04879277  1  0  0.097659  0  0.98312  0  0  0.100903  0  1.058176  0  0  0.104035  0  1.056855  0  0  0.093471  0.09859  0  1.059361  0
H  H21  1  0.47485230  0.74447535  0.95120444  1  0  0.097714  0  0.983091  0  0  0.100989  0  1.058171  0  0  0.104116  0  1.05687  0  0  0.093511  0.098664  0  1.059358  0
H  H22  1  0.43361654  0.14940225  0.27930011  1  0  0.128017  0  0.940227  0  0  0.140032  0  1.002607  0  0  0.143276  0  1.000085  0  0  0.107354  0.13771  0  1.004511  0
H  H23  1  0.93362794  0.85060578  0.72069988  1  0  0.128056  0  0.940236  0  0  0.140073  0  1.00262  0  0  0.143319  0  1.000095  0  0  0.107363  0.137751  0  1.004524  0
H  H24  1  0.45041465  0.99474607  0.21229442  1  0  0.116702  0  0.939253  0  0  0.129247  0  1.00616  0  0  0.131096  0  1.005573  0  0  0.106019  0.127969  0  1.006595  0
H  H25  1  0.95040293  0.00526552  0.78770642  1  0  0.116739  0  0.939189  0  0  0.129308  0  1.006102  0  0  0.131155  0  1.005517  0  0  0.106043  0.128023  0  1.006545  0
H  H26  1  0.93810086  0.79364812  0.37519681  1  0  0.432708  0  0.866375  0  0  0.400476  0  0.93203  0  0  0.411628  0  0.915845  0  0  0.296965  0.392531  0  0.943529  0
H  H27  1  0.43811262  0.20633979  0.62479777  1  0  0.432722  0  0.866312  0  0  0.40051  0  0.93193  0  0  0.411662  0  0.915745  0  0  0.296987  0.392565  0  0.943429  0
H  H28  1  0.70198385  0.78133634  0.39018979  1  0  0.430721  0  0.862342  0  0  0.400015  0  0.925205  0  0  0.410105  0  0.910484  0  0  0.299939  0.392794  0  0.935735  0
H  H29  1  0.20199533  0.21865850  0.60980322  1  0  0.43072  0  0.862359  0  0  0.400005  0  0.925233  0  0  0.410096  0  0.910509  0  0  0.299961  0.392783  0  0.935765  0
H  H30  1  0.90247533  0.18904064  0.30332096  1  0  0.397696  0  0.89053  0  0  0.372668  0  0.959049  0  0  0.379273  0  0.949905  0  0  0.296965  0.367963  0  0.9656  0
H  H31  1  0.40247270  0.81096301  0.69667650  1  0  0.397736  0  0.890468  0  0  0.372713  0  0.958978  0  0  0.379316  0  0.949838  0  0  0.296986  0.368006  0  0.965533  0
H  H32  1  0.89688580  0.25475495  0.42358763  1  0  0.412909  0  0.891308  0  0  0.383476  0  0.952021  0  0  0.394369  0  0.936099  0  0  0.294639  0.375748  0  0.963304  0
H  H33  1  0.39688526  0.74524144  0.57641038  1  0  0.412959  0  0.891221  0  0  0.383523  0  0.95195  0  0  0.394417  0  0.936024  0  0  0.294629  0.375792  0  0.963238  0
C  C34  1  0.66320724  0.34576445  0.84665415  1  0  0.083738  0  3.748708  0  0  0.091025  0  4.0106  0  0  0.093268  0  4.03207  0  0  0.013147  0.089398  0  3.996147  0
C  C35  1  0.16319431  0.65423614  0.15334467  1  0  0.083651  0  3.748415  0  0  0.090967  0  4.010329  0  0  0.093211  0  4.031795  0  0  0.013145  0.08934  0  3.995875  0
C  C36  1  0.51560990  0.34529332  0.92096499  1  0  -0.141719  0  3.79493  0  0  -0.161524  0  4.046801  0  0  -0.164833  0  4.068207  0  0  -0.103927  -0.15918  0  4.032503  0
C  C37  1  0.01560417  0.65470727  0.07903297  1  0  -0.14189  0  3.79491  0  0  -0.161701  0  4.046817  0  0  -0.165013  0  4.06822  0  0  -0.103977  -0.15936  0  4.032528  0
C  C38  1  0.34484605  0.41806859  0.92658862  1  0  -0.063161  0  3.790855  0  0  -0.080596  0  4.049409  0  0  -0.081711  0  4.070893  0  0  -0.097829  -0.079796  0  4.034797  0
C  C39  1  0.84483351  0.58193363  0.07341445  1  0  -0.063008  0  3.790497  0  0  -0.080435  0  4.049004  0  0  -0.081546  0  4.070488  0  0  -0.097835  -0.079637  0  4.034401  0
C  C40  1  0.32257569  0.48882031  0.85706891  1  0  -0.071735  0  3.784811  0  0  -0.089486  0  4.042965  0  0  -0.090776  0  4.063501  0  0  -0.098818  -0.088598  0  4.029278  0
C  C41  1  0.82256315  0.51118846  0.14293716  1  0  -0.071914  0  3.784676  0  0  -0.089673  0  4.042891  0  0  -0.090963  0  4.063422  0  0  -0.098923  -0.088811  0  4.0292  0
C  C42  1  0.47003600  0.48620518  0.78207860  1  0  -0.106487  0  3.732917  0  0  -0.126353  0  3.984188  0  0  -0.128232  0  4.003893  0  0  -0.089678  -0.124868  0  3.970985  0
C  C43  1  0.97002524  0.51380630  0.21792522  1  0  -0.10623  0  3.732994  0  0  -0.126086  0  3.984275  0  0  -0.127963  0  4.003981  0  0  -0.089552  -0.124617  0  3.971076  0
C  C44  1  0.64486788  0.41537119  0.77542276  1  0  0.064263  0  3.7676  0  0  0.075071  0  4.010075  0  0  0.075299  0  4.033556  0  0  -0.016745  0.074838  0  3.993928  0
C  C45  1  0.14485042  0.58462958  0.22458657  1  0  0.064384  0  3.767309  0  0  0.075124  0  4.00994  0  0  0.075357  0  4.033424  0  0  -0.016755  0.074903  0  3.993801  0
C  C46  1  0.80714996  0.41593177  0.69752887  1  0  -0.318906  0  3.747236  0  0  -0.365949  0  3.999319  0  0  -0.370717  0  4.006392  0  0  -0.167191  -0.362496  0  3.994309  0
C  C47  1  0.30713284  0.58406520  0.30247146  1  0  -0.318735  0  3.747088  0  0  -0.365788  0  3.999266  0  0  -0.370569  0  4.006358  0  0  -0.167196  -0.362381  0  3.994307  0
C  C48  1  0.82633729  0.30033499  0.60658957  1  0  0.715521  0  3.844566  0  0  0.667823  0  4.147488  0  0  0.699787  0  4.141542  0  0  0.21721  0.646128  0  4.15062  0
C  C49  1  0.32635026  0.69966555  0.39341760  1  0  0.715394  0  3.844678  0  0  0.667677  0  4.147686  0  0  0.699645  0  4.141743  0  0  0.21717  0.645992  0  4.150829  0
C  C50  1  0.83178401  0.09166158  0.06627237  1  0  -0.054235  0  3.762878  0  0  -0.070339  0  4.017787  0  0  -0.071687  0  4.039794  0  0  -0.093544  -0.069422  0  4.00302  0
C  C51  1  0.33180790  0.90834257  0.93373489  1  0  -0.05426  0  3.763039  0  0  -0.070311  0  4.017901  0  0  -0.071659  0  4.039912  0  0  -0.093565  -0.069398  0  4.003136  0
C  C52  1  0.84717516  0.99467977  0.11093989  1  0  -0.071731  0  3.767232  0  0  -0.08832  0  4.021402  0  0  -0.089683  0  4.041483  0  0  -0.093325  -0.087427  0  4.007793  0
C  C53  1  0.34718544  0.00531511  0.88905773  1  0  -0.071823  0  3.767301  0  0  -0.088419  0  4.021483  0  0  -0.089783  0  4.041562  0  0  -0.093281  -0.087526  0  4.00787  0
C  C54  1  0.01138442  0.98712805  0.17383720  1  0  -0.123213  0  3.737394  0  0  -0.14212  0  3.98801  0  0  -0.143679  0  4.00658  0  0  -0.084499  -0.140804  0  3.975506  0
C  C55  1  0.51139232  0.01286706  0.82615574  1  0  -0.123187  0  3.737295  0  0  -0.142064  0  3.987885  0  0  -0.143622  0  4.006452  0  0  -0.084527  -0.140733  0  3.975396  0
C  C56  1  0.16639679  0.07483722  0.19311936  1  0  0.054374  0  3.760458  0  0  0.069203  0  3.995475  0  0  0.069577  0  4.017907  0  0  -0.013671  0.068953  0  3.980147  0
C  C57  1  0.66640430  0.92516060  0.80687732  1  0  0.054331  0  3.760636  0  0  0.069164  0  3.995671  0  0  0.06954  0  4.018098  0  0  -0.013631  0.068915  0  3.980335  0
C  C58  1  0.14879678  0.16969456  0.14517749  1  0  0.066538  0  3.772048  0  0  0.075467  0  4.031975  0  0  0.077278  0  4.05387  0  0  0.010887  0.074048  0  4.017496  0
C  C59  1  0.64880309  0.83030793  0.85481951  1  0  0.066579  0  3.772018  0  0  0.075505  0  4.031947  0  0  0.077316  0  4.053839  0  0  0.010859  0.074089  0  4.017462  0
C  C60  1  0.98323650  0.17965500  0.08333908  1  0  -0.144109  0  3.79607  0  0  -0.165907  0  4.050311  0  0  -0.168897  0  4.071268  0  0  -0.10339  -0.163958  0  4.036624  0
C  C61  1  0.48325577  0.82034640  0.91666914  1  0  -0.144064  0  3.795975  0  0  -0.165929  0  4.050149  0  0  -0.16893  0  4.071112  0  0  -0.103349  -0.163956  0  4.036434  0
C  C62  1  0.34591088  0.06415640  0.25807094  1  0  -0.324179  0  3.718838  0  0  -0.367234  0  3.958733  0  0  -0.373003  0  3.965464  0  0  -0.157908  -0.363188  0  3.954047  0
C  C63  1  0.84592093  0.93584764  0.74193181  1  0  -0.324204  0  3.718717  0  0  -0.367345  0  3.958673  0  0  -0.373121  0  3.965405  0  0  -0.157965  -0.363297  0  3.953989  0
C  C64  1  0.30631378  0.03080166  0.35878535  1  0  0.768052  0  3.8098  0  0  0.72209  0  4.102732  0  0  0.757288  0  4.092678  0  0  0.242176  0.697936  0  4.10881  0
C  C65  1  0.80631831  0.96919803  0.64121112  1  0  0.768039  0  3.809913  0  0  0.722178  0  4.10276  0  0  0.757388  0  4.092686  0  0  0.242338  0.698028  0  4.108832  0
Cl  Cl66  1  0.88004818  0.25896945  0.84356418  1  0  -0.077269  0  1.382988  0  0  -0.042599  0  1.617175  0  0  -0.047319  0  1.613182  0  0  0.035903  -0.039203  0  1.620181  0
Cl  Cl67  1  0.38003381  0.74102706  0.15643609  1  0  -0.077245  0  1.383042  0  0  -0.04257  0  1.617257  0  0  -0.047296  0  1.613275  0  0  0.03591  -0.039169  0  1.620258  0
Cl  Cl68  1  0.33996568  0.27768228  0.15962522  1  0  -0.077518  0  1.383061  0  0  -0.048296  0  1.610439  0  0  -0.053174  0  1.605849  0  0  0.031595  -0.044693  0  1.613863  0
Cl  Cl69  1  0.83998128  0.72231721  0.84037347  1  0  -0.077595  0  1.383005  0  0  -0.048358  0  1.610371  0  0  -0.053234  0  1.605781  0  0  0.031557  -0.044759  0  1.61379  0
O  O70  1  0.98923253  0.28654147  0.55379772  1  0  -0.683123  0  1.913075  0  0  -0.623185  0  2.120604  0  0  -0.647477  0  2.109216  0  0  -0.328193  -0.605953  0  2.127901  0
O  O71  1  0.48921990  0.71347164  0.44619451  1  0  -0.682893  0  1.913748  0  0  -0.62293  0  2.121319  0  0  -0.647221  0  2.109933  0  0  -0.327992  -0.605711  0  2.128616  0
O  O72  1  0.68109445  0.22471119  0.58409359  1  0  -0.696608  0  1.995264  0  0  -0.629368  0  2.222774  0  0  -0.657742  0  2.215286  0  0  -0.343951  -0.609224  0  2.227215  0
O  O73  1  0.18105504  0.77528476  0.41591015  1  0  -0.696763  0  1.994767  0  0  -0.629482  0  2.222316  0  0  -0.657864  0  2.21483  0  0  -0.344028  -0.609355  0  2.226754  0
O  O74  1  0.13119941  0.02895338  0.39524555  1  0  -0.732788  0  2.029041  0  0  -0.669919  0  2.279598  0  0  -0.699014  0  2.269861  0  0  -0.36893  -0.649192  0  2.285685  0
O  O75  1  0.63121279  0.97103371  0.60475010  1  0  -0.732776  0  2.029369  0  0  -0.669942  0  2.27989  0  0  -0.699039  0  2.27014  0  0  -0.368957  -0.649223  0  2.285964  0
O  O76  1  0.46135638  0.00597577  0.40575218  1  0  -0.765597  0  2.013954  0  0  -0.700128  0  2.270661  0  0  -0.731054  0  2.260152  0  0  -0.417639  -0.677896  0  2.27705  0
O  O77  1  0.96136782  0.99403024  0.59424287  1  0  -0.76557  0  2.013948  0  0  -0.700148  0  2.27065  0  0  -0.731082  0  2.260135  0  0  -0.417765  -0.67792  0  2.277035  0
O  O78  1  0.80540616  0.83063676  0.36740083  1  0  -0.890879  0  1.776435  0  0  -0.840117  0  1.953392  0  0  -0.861173  0  1.922424  0  0  -0.630363  -0.824835  0  1.975066  0
O  O79  1  0.30540050  0.16935286  0.63258880  1  0  -0.890914  0  1.776414  0  0  -0.840142  0  1.953389  0  0  -0.861202  0  1.922418  0  0  -0.63042  -0.824884  0  1.975052  0
O  O80  1  0.81182898  0.21086862  0.36313675  1  0  -0.845897  0  1.800621  0  0  -0.796499  0  1.957457  0  0  -0.815228  0  1.930704  0  0  -0.612596  -0.78307  0  1.976226  0
O  O81  1  0.31182495  0.78912926  0.63686753  1  0  -0.845943  0  1.800454  0  0  -0.796557  0  1.957296  0  0  -0.815288  0  1.930544  0  0  -0.612573  -0.78315  0  1.976059  0
