# generated using pymatgen
data_NiH8C6(N2O)4
_symmetry_space_group_name_H-M   'P 1'
_cell_length_a   5.41160502
_cell_length_b   7.72858713
_cell_length_c   8.04495685
_cell_angle_alpha   121.62118304
_cell_angle_beta   101.34126710
_cell_angle_gamma   95.69850620
_symmetry_Int_Tables_number   1
_chemical_formula_structural   NiH8C6(N2O)4
_chemical_formula_sum   'Ni1 H8 C6 N8 O4'
_cell_volume   272.54333772
_cell_formula_units_Z   1
loop_
 _symmetry_equiv_pos_site_id
 _symmetry_equiv_pos_as_xyz
  1  'x, y, z'
loop_
 _atom_site_type_symbol
 _atom_site_label
 _atom_site_symmetry_multiplicity
 _atom_site_fract_x
 _atom_site_fract_y
 _atom_site_fract_z
 _atom_site_occupancy
 _atom_site_hle17_ddec_charge
 _atom_site_hle17_ddec_spin_density
 _atom_site_hle17_ddec_sum_bond_order
 _atom_site_hle17_magmom
 _atom_site_hse06_10hf_ddec_charge
 _atom_site_hse06_10hf_ddec_spin_density
 _atom_site_hse06_10hf_ddec_sum_bond_order
 _atom_site_hse06_10hf_magmom
 _atom_site_hse06_ddec_charge
 _atom_site_hse06_ddec_spin_density
 _atom_site_hse06_ddec_sum_bond_order
 _atom_site_hse06_magmom
 _atom_site_pbe_cm5_charge
 _atom_site_pbe_ddec_charge
 _atom_site_pbe_ddec_spin_density
 _atom_site_pbe_ddec_sum_bond_order
 _atom_site_pbe_magmom
Ni  Ni0  1  0.99999676  0.00000165  0.00000771  1  0.805314  1.764075  2.100002  1.523  0.799465  1.818226  2.49768  1.633  0.8865  1.868669  2.425916  1.715  0.649657  0.734994  1.773376  2.550741  1.563
H  H1  1  0.58175370  0.30830220  0.72535236  1  0.117167  0.000336  0.941509  0.0  0.119617  0.000292  1.016593  0.0  0.123692  0.000218  1.011289  0.0  0.138147  0.116373  0.000369  1.020912  0.0
H  H2  1  0.41829986  0.69171949  0.27466017  1  0.117205  0.000335  0.941773  0.0  0.119645  0.000292  1.01682  0.0  0.123388  0.000218  1.01158  0.0  0.138186  0.116403  0.000369  1.021136  0.0
H  H3  1  0.79544040  0.19727403  0.41096225  1  0.109942  -0.000309  0.988551  0.0  0.110134  -0.000279  1.06723  0.0  0.113959  -0.000226  1.062607  0.0  0.13695  0.107008  -0.000331  1.071198  0.0
H  H4  1  0.20459299  0.80272867  0.58905429  1  0.110092  -0.000308  0.988236  0.0  0.110211  -0.000279  1.067007  0.0  0.113665  -0.000226  1.062514  0.0  0.136969  0.107093  -0.000331  1.070967  0.0
H  H5  1  0.17589863  0.31840344  0.89252121  1  0.293295  -8.2e-05  0.9495  0.0  0.280043  -5.6e-05  1.020223  0.0  0.286583  -9e-05  1.014088  0.0  0.294245  0.274994  -7e-06  1.025457  0.0
H  H6  1  0.82414986  0.68160578  0.10748949  1  0.293261  -8.3e-05  0.94933  0.0  0.279982  -5.7e-05  1.020121  0.0  0.286292  -9.1e-05  1.014029  0.0  0.294214  0.274935  -7e-06  1.025352  0.0
H  H7  1  0.15626719  0.53225621  0.88679425  1  0.291439  0.000133  0.956137  0.0  0.279394  0.000188  1.022947  0.0  0.286669  0.000109  1.015723  0.0  0.290659  0.273761  0.000286  1.029046  0.0
H  H8  1  0.84375741  0.46775505  0.11320901  1  0.291165  0.000134  0.956521  0.0  0.27917  0.000187  1.023217  0.0  0.286232  0.000109  1.016009  0.0  0.290611  0.273538  0.000286  1.029313  0.0
C  C9  1  0.47945296  0.89091502  0.98309931  1  0.5299  -0.013269  3.89068  -0.01  0.482076  -0.003991  4.209886  -0.003  0.514634  -0.003933  4.203679  -0.003  0.210225  0.458805  -0.00427  4.213228  -0.004
C  C10  1  0.52052474  0.10908983  0.01689654  1  0.529911  -0.01326  3.891183  -0.01  0.482226  -0.003986  4.210188  -0.003  0.514793  -0.00393  4.203984  -0.003  0.21024  0.458956  -0.004264  4.213537  -0.003
C  C11  1  0.40645613  0.26152450  0.60390521  1  0.116932  0.000871  3.638955  0.002  0.056697  0.000637  3.912849  0.002  0.068616  0.000372  3.922891  0.001  0.151056  0.041903  0.000934  3.901719  0.002
C  C12  1  0.59353041  0.73849300  0.39609433  1  0.116819  0.000878  3.639238  0.002  0.056615  0.000636  3.913117  0.002  0.070411  0.000371  3.922132  0.001  0.151094  0.041868  0.000933  3.90202  0.002
C  C13  1  0.00276509  0.20465448  0.44126843  1  0.136032  -0.013014  3.608765  -0.006  0.073208  -0.004961  3.879466  -0.001  0.087495  -0.005668  3.89186  -0.002  0.15486  0.056801  -0.004724  3.866676  -0.001
C  C14  1  0.99723219  0.79533701  0.55871631  1  0.135819  -0.013008  3.608212  -0.006  0.073064  -0.00496  3.878929  -0.001  0.089244  -0.005667  3.890374  -0.002  0.154792  0.056705  -0.004722  3.866159  -0.001
N  N15  1  0.13703524  0.13827122  0.30762609  1  -0.228923  0.046476  3.267646  0.074  -0.201383  0.031407  3.58686  0.051  -0.226551  0.025379  3.607362  0.043  -0.24609  -0.184774  0.036198  3.575859  0.056
N  N16  1  0.86291559  0.86170759  0.69234452  1  -0.229291  0.046473  3.267446  0.074  -0.201737  0.031403  3.586642  0.051  -0.227236  0.025373  3.606679  0.043  -0.246153  -0.185121  0.036195  3.575628  0.056
N  N17  1  0.39201121  0.17272405  0.40933289  1  -0.235957  0.000326  2.983899  0.001  -0.20858  0.000722  3.271744  0.001  -0.218208  5.4e-05  3.290048  0.0  -0.225887  -0.202699  0.001379  3.261922  0.002
N  N18  1  0.60793033  0.82727936  0.59065578  1  -0.235692  0.000321  2.983748  0.001  -0.208293  0.000724  3.271516  0.001  -0.218326  5.6e-05  3.289374  0.0  -0.225941  -0.202405  0.00138  3.261681  0.002
N  N19  1  0.16597690  0.28358880  0.62976218  1  0.074509  7.7e-05  3.605636  0.001  0.166147  3.9e-05  3.828664  0.001  0.153627  -3.2e-05  3.852159  0.001  -0.14772  0.196972  0.000135  3.780882  0.001
N  N20  1  0.83400744  0.71641148  0.37022495  1  0.074648  7.3e-05  3.605528  0.001  0.166195  4e-05  3.828587  0.001  0.150676  -3.1e-05  3.852082  0.001  -0.147682  0.196859  0.000135  3.78102  0.001
N  N21  1  0.08846855  0.37173259  0.80820324  1  -0.530522  0.001315  2.881275  0.002  -0.53811  0.000779  3.120239  0.001  -0.546898  0.000446  3.117105  0.001  -0.507394  -0.538701  0.001236  3.115623  0.002
N  N22  1  0.91158212  0.62826289  0.19180608  1  -0.530253  0.001314  2.881227  0.002  -0.537779  0.000779  3.120166  0.001  -0.544649  0.000447  3.116513  0.001  -0.50724  -0.538325  0.001235  3.115594  0.002
O  O23  1  0.25082748  0.80312314  0.95551877  1  -0.534439  0.046824  2.136431  0.079  -0.503187  0.032677  2.397642  0.056  -0.537793  0.024329  2.389799  0.044  -0.283568  -0.47743  0.04046  2.402343  0.067
O  O24  1  0.74916108  0.19684399  0.04448520  1  -0.534309  0.046809  2.136708  0.079  -0.503223  0.032671  2.398031  0.056  -0.537817  0.024325  2.390101  0.044  -0.2836  -0.477467  0.040451  2.40273  0.067
O  O25  1  0.32383533  0.18535753  0.01546495  1  -0.542055  0.048266  2.115243  0.081  -0.515825  0.033428  2.38084  0.057  -0.549511  0.024706  2.371834  0.045  -0.2903  -0.490553  0.04164  2.386191  0.068
O  O26  1  0.67613868  0.81462575  0.98453108  1  -0.542006  0.048294  2.11509  0.081  -0.515771  0.033442  2.380763  0.057  -0.549488  0.024715  2.371783  0.045  -0.290328  -0.490495  0.041661  2.386111  0.068
