# generated using pymatgen
data_AgH6C6SN(ClO2)2
_symmetry_space_group_name_H-M   'P 1'
_cell_length_a   6.91972334
_cell_length_b   7.10819741
_cell_length_c   20.12765801
_cell_angle_alpha   89.99964795
_cell_angle_beta   91.94355505
_cell_angle_gamma   89.99968117
_symmetry_Int_Tables_number   1
_chemical_formula_structural   AgH6C6SN(ClO2)2
_chemical_formula_sum   'Ag4 H24 C24 S4 N4 Cl8 O16'
_cell_volume   989.44474224
_cell_formula_units_Z   4
loop_
 _symmetry_equiv_pos_site_id
 _symmetry_equiv_pos_as_xyz
  1  'x, y, z'
loop_
 _atom_site_type_symbol
 _atom_site_label
 _atom_site_symmetry_multiplicity
 _atom_site_fract_x
 _atom_site_fract_y
 _atom_site_fract_z
 _atom_site_occupancy
 _atom_site_hle17_bader_spin_density
 _atom_site_hle17_ddec_charge
 _atom_site_hle17_ddec_spin_density
 _atom_site_hle17_ddec_sum_bond_order
 _atom_site_hle17_magmom
 _atom_site_hse06_10hf_bader_spin_density
 _atom_site_hse06_10hf_ddec_charge
 _atom_site_hse06_10hf_ddec_spin_density
 _atom_site_hse06_10hf_ddec_sum_bond_order
 _atom_site_hse06_10hf_magmom
 _atom_site_hse06_bader_spin_density
 _atom_site_hse06_ddec_charge
 _atom_site_hse06_ddec_spin_density
 _atom_site_hse06_ddec_sum_bond_order
 _atom_site_hse06_magmom
 _atom_site_pbe_bader_spin_density
 _atom_site_pbe_cm5_charge
 _atom_site_pbe_ddec_charge
 _atom_site_pbe_ddec_spin_density
 _atom_site_pbe_ddec_sum_bond_order
 _atom_site_pbe_magmom
Ag  Ag0  1  0.23861370  0.04227395  0.54850921  1  0  0.654362  0  1.226111  0  0  0.532435  0  1.637895  0  0  0.561763  0  1.587187  0  0  0.433542  0.511495  0  1.673459  0
Ag  Ag1  1  0.76138551  0.54227627  0.95148864  1  0  0.654315  0  1.226183  0  0  0.532375  0  1.637961  0  0  0.561706  0  1.587255  0  0  0.433531  0.511436  0  1.67352  0
Ag  Ag2  1  0.76139163  0.95772913  0.45149038  1  0  0.654365  0  1.226178  0  0  0.532454  0  1.637927  0  0  0.561784  0  1.587224  0  0  0.433567  0.511516  0  1.67349  0
Ag  Ag3  1  0.23861838  0.45772681  0.04850994  1  0  0.654318  0  1.226193  0  0  0.532397  0  1.637937  0  0  0.561726  0  1.58723  0  0  0.433533  0.511459  0  1.673496  0
H  H4  1  0.97407186  0.08023299  0.80376996  1  0  0.112627  0  0.986864  0  0  0.116325  0  1.060566  0  0  0.119345  0  1.058729  0  0  0.096553  0.114125  0  1.062008  0
H  H5  1  0.02592419  0.58023662  0.69622976  1  0  0.112669  0  0.986817  0  0  0.116361  0  1.060513  0  0  0.119382  0  1.058675  0  0  0.096566  0.114161  0  1.061958  0
H  H6  1  0.02592912  0.91975602  0.19622958  1  0  0.112681  0  0.986824  0  0  0.116396  0  1.060515  0  0  0.119417  0  1.058676  0  0  0.096573  0.114193  0  1.061957  0
H  H7  1  0.97407099  0.41975661  0.30377070  1  0  0.112656  0  0.986809  0  0  0.116345  0  1.060534  0  0  0.119366  0  1.058696  0  0  0.096555  0.114144  0  1.061975  0
H  H8  1  0.56335561  0.32160560  0.69998480  1  0  0.123576  0  0.978181  0  0  0.12781  0  1.048989  0  0  0.131224  0  1.047763  0  0  0.098825  0.125346  0  1.050115  0
H  H9  1  0.43663467  0.82160524  0.80001232  1  0  0.123579  0  0.978218  0  0  0.127846  0  1.048994  0  0  0.13126  0  1.04777  0  0  0.098817  0.125382  0  1.050116  0
H  H10  1  0.43664103  0.67839185  0.30001517  1  0  0.123542  0  0.978148  0  0  0.127772  0  1.048969  0  0  0.131186  0  1.047743  0  0  0.098796  0.125308  0  1.050093  0
H  H11  1  0.56336342  0.17839643  0.19998767  1  0  0.12357  0  0.978228  0  0  0.127816  0  1.049023  0  0  0.13123  0  1.047798  0  0  0.098806  0.125352  0  1.050146  0
H  H12  1  0.13572356  0.36131809  0.60019601  1  0  0.322452  0  0.899872  0  0  0.305542  0  0.963406  0  0  0.312602  0  0.958171  0  0  0.291942  0.300477  0  0.967185  0
H  H13  1  0.86427082  0.86132217  0.89980059  1  0  0.322495  0  0.899875  0  0  0.305578  0  0.96341  0  0  0.312638  0  0.958175  0  0  0.291945  0.300514  0  0.967185  0
H  H14  1  0.86427742  0.63868218  0.39980353  1  0  0.32246  0  0.899856  0  0  0.30555  0  0.963387  0  0  0.312611  0  0.958152  0  0  0.291939  0.300486  0  0.967163  0
H  H15  1  0.13572875  0.13868090  0.10019694  1  0  0.322467  0  0.899912  0  0  0.305564  0  0.963435  0  0  0.312624  0  0.958199  0  0  0.291948  0.3005  0  0.967213  0
H  H16  1  0.37945511  0.36555620  0.60145169  1  0  0.331771  0  0.907656  0  0  0.316679  0  0.965247  0  0  0.323913  0  0.959981  0  0  0.292911  0.311564  0  0.968912  0
H  H17  1  0.62053635  0.86556019  0.89854536  1  0  0.33172  0  0.907673  0  0  0.316649  0  0.965239  0  0  0.323883  0  0.959972  0  0  0.292906  0.311533  0  0.968904  0
H  H18  1  0.62054297  0.63444547  0.39854880  1  0  0.331747  0  0.907686  0  0  0.316653  0  0.965278  0  0  0.323888  0  0.960012  0  0  0.292885  0.311538  0  0.968942  0
H  H19  1  0.37946320  0.13444429  0.10145316  1  0  0.331765  0  0.907631  0  0  0.31669  0  0.965203  0  0  0.323922  0  0.959936  0  0  0.292911  0.311574  0  0.968871  0
H  H20  1  0.07853192  0.70177369  0.52654340  1  0  0.421688  0  0.885134  0  0  0.390609  0  0.949454  0  0  0.400799  0  0.934582  0  0  0.286594  0.38342  0  0.959915  0
H  H21  1  0.92147064  0.20177583  0.97345564  1  0  0.421708  0  0.885131  0  0  0.390629  0  0.949448  0  0  0.40082  0  0.934574  0  0  0.28661  0.383437  0  0.959922  0
H  H22  1  0.92146906  0.29822939  0.47345663  1  0  0.421788  0  0.885028  0  0  0.390717  0  0.949328  0  0  0.400905  0  0.934458  0  0  0.286638  0.383527  0  0.959799  0
H  H23  1  0.07853324  0.79822584  0.02654393  1  0  0.421787  0  0.885022  0  0  0.390723  0  0.949311  0  0  0.40091  0  0.934444  0  0  0.286643  0.383531  0  0.959784  0
H  H24  1  0.24377724  0.70893166  0.47261689  1  0  0.430471  0  0.863935  0  0  0.402173  0  0.922376  0  0  0.412027  0  0.908144  0  0  0.292946  0.395198  0  0.932421  0
H  H25  1  0.75622418  0.20893540  0.02738236  1  0  0.430446  0  0.863975  0  0  0.402133  0  0.922436  0  0  0.411988  0  0.908207  0  0  0.292947  0.39516  0  0.932478  0
H  H26  1  0.75622230  0.29106861  0.52738312  1  0  0.430476  0  0.863934  0  0  0.402178  0  0.922372  0  0  0.412031  0  0.908141  0  0  0.292943  0.395204  0  0.932416  0
H  H27  1  0.24377970  0.79106767  0.97261671  1  0  0.430435  0  0.863985  0  0  0.402137  0  0.922426  0  0  0.411992  0  0.908193  0  0  0.29293  0.395163  0  0.93247  0
C  C28  1  0.26385737  0.24685903  0.68323584  1  0  0.244299  0  3.811237  0  0  0.228778  0  4.064799  0  0  0.238553  0  4.085576  0  0  0.080482  0.222231  0  4.050719  0
C  C29  1  0.73613624  0.74685399  0.81676199  1  0  0.244337  0  3.811136  0  0  0.228933  0  4.064513  0  0  0.238711  0  4.085286  0  0  0.080536  0.222386  0  4.050435  0
C  C30  1  0.73614361  0.75314404  0.31676369  1  0  0.244294  0  3.811144  0  0  0.228739  0  4.06475  0  0  0.238516  0  4.085528  0  0  0.080485  0.222194  0  4.050663  0
C  C31  1  0.26386040  0.25314346  0.18323749  1  0  0.244418  0  3.81107  0  0  0.22895  0  4.064534  0  0  0.238724  0  4.085308  0  0  0.080548  0.222401  0  4.050456  0
C  C32  1  0.10005323  0.17300925  0.71368821  1  0  0.019047  0  3.791779  0  0  0.029596  0  4.064481  0  0  0.027882  0  4.085474  0  0  -0.001639  0.03034  0  4.050486  0
C  C33  1  0.89993645  0.67300528  0.78631271  1  0  0.01895  0  3.791774  0  0  0.029483  0  4.064435  0  0  0.027766  0  4.085431  0  0  -0.001662  0.030235  0  4.050427  0
C  C34  1  0.89994486  0.82698679  0.28631129  1  0  0.019112  0  3.791842  0  0  0.029663  0  4.064572  0  0  0.027949  0  4.085566  0  0  -0.001611  0.030412  0  4.050565  0
C  C35  1  0.10005582  0.32698936  0.21368969  1  0  0.018997  0  3.791823  0  0  0.02956  0  4.064485  0  0  0.027845  0  4.085481  0  0  -0.001635  0.030308  0  4.050484  0
C  C36  1  0.10345655  0.13344870  0.78127095  1  0  -0.104159  0  3.799394  0  0  -0.144895  0  4.064101  0  0  -0.142779  0  4.083688  0  0  -0.099588  -0.146164  0  4.051028  0
C  C37  1  0.89653774  0.63345014  0.71872863  1  0  -0.104189  0  3.799537  0  0  -0.144932  0  4.06422  0  0  -0.142816  0  4.083809  0  0  -0.099614  -0.146203  0  4.051147  0
C  C38  1  0.89654443  0.86654594  0.21872909  1  0  -0.10433  0  3.799483  0  0  -0.14507  0  4.064155  0  0  -0.142957  0  4.083746  0  0  -0.099676  -0.146335  0  4.051076  0
C  C39  1  0.10346035  0.36654450  0.28127136  1  0  -0.104245  0  3.799672  0  0  -0.145006  0  4.064327  0  0  -0.142895  0  4.083921  0  0  -0.099655  -0.14627  0  4.051249  0
C  C40  1  0.27019233  0.16289842  0.82079280  1  0  -0.196897  0  3.759764  0  0  -0.176176  0  4.01253  0  0  -0.184942  0  4.033269  0  0  -0.038433  -0.170426  0  3.998628  0
C  C41  1  0.72981045  0.66289862  0.67920682  1  0  -0.196782  0  3.759903  0  0  -0.176046  0  4.012612  0  0  -0.184808  0  4.033351  0  0  -0.038385  -0.170297  0  3.998714  0
C  C42  1  0.72980576  0.83709903  0.17920670  1  0  -0.196739  0  3.759666  0  0  -0.176023  0  4.012447  0  0  -0.184789  0  4.033189  0  0  -0.038344  -0.170273  0  3.998545  0
C  C43  1  0.27019341  0.33710305  0.32079374  1  0  -0.196696  0  3.759903  0  0  -0.175902  0  4.012569  0  0  -0.184669  0  4.033306  0  0  -0.038332  -0.170155  0  3.998669  0
C  C44  1  0.43640951  0.22870255  0.79017813  1  0  0.151667  0  3.791374  0  0  0.151152  0  4.060741  0  0  0.157779  0  4.08111  0  0  0.011923  0.146641  0  4.047071  0
C  C45  1  0.56358566  0.72870028  0.70981976  1  0  0.151543  0  3.791662  0  0  0.151072  0  4.060953  0  0  0.157697  0  4.081325  0  0  0.011879  0.14656  0  4.047285  0
C  C46  1  0.56359146  0.77129771  0.20982190  1  0  0.151605  0  3.791539  0  0  0.151079  0  4.060918  0  0  0.157708  0  4.081285  0  0  0.011881  0.146567  0  4.04725  0
C  C47  1  0.43641387  0.27130561  0.29018075  1  0  0.151485  0  3.791789  0  0  0.150965  0  4.061119  0  0  0.157605  0  4.081472  0  0  0.011804  0.146455  0  4.047449  0
C  C48  1  0.43289115  0.27027206  0.72254667  1  0  -0.215281  0  3.696468  0  0  -0.240379  0  3.952902  0  0  -0.247096  0  3.972699  0  0  -0.105697  -0.236196  0  3.940053  0
C  C49  1  0.56710233  0.77027140  0.77745061  1  0  -0.215195  0  3.696469  0  0  -0.2404  0  3.952874  0  0  -0.247116  0  3.97267  0  0  -0.105661  -0.236217  0  3.940025  0
C  C50  1  0.56710984  0.72972821  0.27745237  1  0  -0.215255  0  3.696452  0  0  -0.240317  0  3.952853  0  0  -0.247034  0  3.972648  0  0  -0.105672  -0.236137  0  3.940004  0
C  C51  1  0.43289576  0.22973167  0.22254889  1  0  -0.215308  0  3.69654  0  0  -0.240471  0  3.952999  0  0  -0.247193  0  3.972795  0  0  -0.105684  -0.236286  0  3.940148  0
S  S52  1  0.25960197  0.12021738  0.90814361  1  0  1.320559  0  5.617884  0  0  1.217019  0  6.136702  0  0  1.265289  0  6.113984  0  0  0.509566  1.183874  0  6.151222  0
S  S53  1  0.74039963  0.62021764  0.59185510  1  0  1.320636  0  5.617823  0  0  1.217066  0  6.136625  0  0  1.265335  0  6.113912  0  0  0.509605  1.183918  0  6.151149  0
S  S54  1  0.74039902  0.87978147  0.09185493  1  0  1.320612  0  5.617892  0  0  1.21706  0  6.136715  0  0  1.265333  0  6.113995  0  0  0.509603  1.183914  0  6.151237  0
S  S55  1  0.25959989  0.37978966  0.40814541  1  0  1.320457  0  5.617893  0  0  1.216864  0  6.136715  0  0  1.265135  0  6.114003  0  0  0.509496  1.183728  0  6.151228  0
N  N56  1  0.25961114  0.28927968  0.61455586  1  0  -0.658363  0  3.228354  0  0  -0.590687  0  3.478431  0  0  -0.613565  0  3.475  0  0  -0.616671  -0.574574  0  3.480411  0
N  N57  1  0.74038364  0.78928186  0.88544338  1  0  -0.658378  0  3.228334  0  0  -0.590744  0  3.478352  0  0  -0.613626  0  3.474921  0  0  -0.616693  -0.574631  0  3.48033  0
N  N58  1  0.74038984  0.71072340  0.38544417  1  0  -0.658341  0  3.228402  0  0  -0.590658  0  3.47849  0  0  -0.613546  0  3.475068  0  0  -0.616641  -0.574545  0  3.480467  0
N  N59  1  0.25961588  0.21072263  0.11455713  1  0  -0.658345  0  3.228316  0  0  -0.590706  0  3.478347  0  0  -0.613578  0  3.474908  0  0  -0.616657  -0.574591  0  3.480326  0
Cl  Cl60  1  0.65165454  0.26024686  0.83486694  1  0  -0.059019  0  1.507331  0  0  -0.041279  0  1.790693  0  0  -0.043711  0  1.781748  0  0  0.036578  -0.039451  0  1.797164  0
Cl  Cl61  1  0.34834189  0.76023948  0.66513040  1  0  -0.059013  0  1.507465  0  0  -0.041301  0  1.79081  0  0  -0.043732  0  1.781864  0  0  0.036573  -0.039472  0  1.797281  0
Cl  Cl62  1  0.34834789  0.73975059  0.16513212  1  0  -0.05902  0  1.507356  0  0  -0.041279  0  1.790711  0  0  -0.04371  0  1.781764  0  0  0.03657  -0.039448  0  1.797179  0
Cl  Cl63  1  0.65165475  0.23975235  0.33486957  1  0  -0.058954  0  1.507456  0  0  -0.041225  0  1.790817  0  0  -0.043661  0  1.781865  0  0  0.036609  -0.039396  0  1.797287  0
Cl  Cl64  1  0.89545508  0.12416677  0.66567234  1  0  -0.026191  0  1.464171  0  0  -0.006123  0  1.724119  0  0  -0.009988  0  1.719764  0  0  0.042763  -0.003284  0  1.727407  0
Cl  Cl65  1  0.10454358  0.62417321  0.83432880  1  0  -0.026176  0  1.464103  0  0  -0.006116  0  1.724045  0  0  -0.009977  0  1.719686  0  0  0.042756  -0.003279  0  1.727329  0
Cl  Cl66  1  0.10454879  0.87582505  0.33432773  1  0  -0.026225  0  1.464142  0  0  -0.006154  0  1.724082  0  0  -0.010016  0  1.719721  0  0  0.042749  -0.003319  0  1.727368  0
Cl  Cl67  1  0.89545162  0.37582143  0.16567116  1  0  -0.026216  0  1.464097  0  0  -0.006159  0  1.724028  0  0  -0.010018  0  1.719666  0  0  0.042743  -0.003323  0  1.727315  0
O  O68  1  0.37859953  0.95120962  0.92264841  1  0  -0.67074  0  1.988567  0  0  -0.610913  0  2.226806  0  0  -0.632728  0  2.212732  0  0  -0.334246  -0.595655  0  2.236096  0
O  O69  1  0.62140005  0.45121180  0.57735055  1  0  -0.670843  0  1.988566  0  0  -0.610991  0  2.226788  0  0  -0.632805  0  2.212711  0  0  -0.334293  -0.595735  0  2.236082  0
O  O70  1  0.62140001  0.04879064  0.07735111  1  0  -0.670786  0  1.988551  0  0  -0.610947  0  2.226786  0  0  -0.63276  0  2.212708  0  0  -0.334273  -0.595691  0  2.23608  0
O  O71  1  0.37860093  0.54879549  0.42264898  1  0  -0.670705  0  1.988538  0  0  -0.610844  0  2.226767  0  0  -0.632661  0  2.212699  0  0  -0.334199  -0.595595  0  2.236061  0
O  O72  1  0.05295389  0.08091954  0.91913208  1  0  -0.680759  0  2.013606  0  0  -0.613342  0  2.253104  0  0  -0.635238  0  2.23919  0  0  -0.337376  -0.597973  0  2.262291  0
O  O73  1  0.94704505  0.58091609  0.58086817  1  0  -0.680761  0  2.013764  0  0  -0.613298  0  2.253225  0  0  -0.635198  0  2.239319  0  0  -0.33731  -0.597926  0  2.262409  0
O  O74  1  0.94704707  0.91907931  0.08086945  1  0  -0.680795  0  2.013715  0  0  -0.613369  0  2.253202  0  0  -0.635268  0  2.239293  0  0  -0.337357  -0.598  0  2.262387  0
O  O75  1  0.05295160  0.41908558  0.41913131  1  0  -0.680792  0  2.013756  0  0  -0.61334  0  2.25323  0  0  -0.635237  0  2.239317  0  0  -0.337331  -0.597973  0  2.262414  0
O  O76  1  0.33129160  0.29038944  0.94131828  1  0  -0.673423  0  2.027945  0  0  -0.622727  0  2.31361  0  0  -0.644619  0  2.29401  0  0  -0.346157  -0.607192  0  2.326603  0
O  O77  1  0.66870320  0.79039207  0.55867947  1  0  -0.673467  0  2.027782  0  0  -0.6228  0  2.313508  0  0  -0.644691  0  2.293908  0  0  -0.346232  -0.607267  0  2.326504  0
O  O78  1  0.66871084  0.70960801  0.05868028  1  0  -0.673463  0  2.027947  0  0  -0.622768  0  2.313619  0  0  -0.64466  0  2.294018  0  0  -0.346196  -0.607233  0  2.326611  0
O  O79  1  0.33129486  0.20961664  0.44132251  1  0  -0.673399  0  2.027841  0  0  -0.622737  0  2.3136  0  0  -0.644619  0  2.293976  0  0  -0.346176  -0.607201  0  2.32659  0
O  O80  1  0.14996575  0.78658007  0.49665859  1  0  -0.847641  0  2.019413  0  0  -0.771574  0  2.249366  0  0  -0.79649  0  2.213077  0  0  -0.594822  -0.75377  0  2.274481  0
O  O81  1  0.85003665  0.28658374  0.00334002  1  0  -0.847618  0  2.019416  0  0  -0.771533  0  2.249394  0  0  -0.796455  0  2.213102  0  0  -0.594822  -0.753735  0  2.274493  0
O  O82  1  0.85003668  0.21342160  0.50334147  1  0  -0.847755  0  2.019404  0  0  -0.77168  0  2.249357  0  0  -0.796598  0  2.213066  0  0  -0.594868  -0.753882  0  2.27446  0
O  O83  1  0.14996434  0.71342215  0.99665852  1  0  -0.847688  0  2.019393  0  0  -0.771605  0  2.249313  0  0  -0.796522  0  2.213025  0  0  -0.594848  -0.753808  0  2.274416  0
