# generated using pymatgen
data_MnHC3N3Cl
_symmetry_space_group_name_H-M   'P 1'
_cell_length_a   8.31307430
_cell_length_b   14.91761751
_cell_length_c   14.91760243
_cell_angle_alpha   116.62976837
_cell_angle_beta   100.71066251
_cell_angle_gamma   100.71050706
_symmetry_Int_Tables_number   1
_chemical_formula_structural   MnHC3N3Cl
_chemical_formula_sum   'Mn6 H6 C18 N18 Cl6'
_cell_volume   1546.73325489
_cell_formula_units_Z   6
loop_
 _symmetry_equiv_pos_site_id
 _symmetry_equiv_pos_as_xyz
  1  'x, y, z'
loop_
 _atom_site_type_symbol
 _atom_site_label
 _atom_site_symmetry_multiplicity
 _atom_site_fract_x
 _atom_site_fract_y
 _atom_site_fract_z
 _atom_site_occupancy
 _atom_site_pbe_bader_charge
 _atom_site_pbe_bader_spin_density
 _atom_site_pbe_cm5_charge
 _atom_site_pbe_ddec_charge
 _atom_site_pbe_ddec_spin_density
 _atom_site_pbe_ddec_sum_bond_order
 _atom_site_pbe_magmom
Mn  Mn0  1  0.28823704  0.57650808  0.28823151  1  1.358148  4.535422  0.554942  0.653734  4.681718  2.594473  4.387
Mn  Mn1  1  0.00000282  0.71174611  0.28824991  1  1.357609  4.535845  0.555497  0.65594  4.679195  2.591719  4.387
Mn  Mn2  1  0.71177360  0.71177156  0.42349336  1  1.358161  4.53543  0.554933  0.653708  4.6817  2.594478  4.387
Mn  Mn3  1  0.71176405  0.42349349  0.71176977  1  1.358213  4.535433  0.554929  0.65371  4.681746  2.594423  4.387
Mn  Mn4  1  0.99999709  0.28825310  0.71174952  1  1.357609  4.53586  0.55546  0.655942  4.679209  2.591623  4.387
Mn  Mn5  1  0.28822671  0.28822844  0.57650646  1  1.3582  4.535434  0.554944  0.653751  4.681711  2.594408  4.387
H  H6  1  0.19840721  0.41997638  0.99997088  1  0.141373  0.003271  0.108467  0.14151  0.002254  1.007471  0.0
H  H7  1  0.19840501  0.99996401  0.41997317  1  0.142528  0.003268  0.108463  0.141567  0.002254  1.007515  0.0
H  H8  1  0.77843759  0.57994631  0.57994207  1  0.14067  0.003265  0.108901  0.141477  0.002248  1.006811  0.0
H  H9  1  0.80159221  0.58002676  0.00003295  1  0.141306  0.003271  0.108448  0.141497  0.002254  1.007514  0.0
H  H10  1  0.22156474  0.42005526  0.42005665  1  0.140731  0.003264  0.108907  0.14149  0.002248  1.006805  0.0
H  H11  1  0.80159293  0.00003126  0.58002496  1  0.141282  0.003271  0.108475  0.141536  0.002254  1.0075  0.0
C  C12  1  0.46193874  0.52296113  0.09211388  1  0.360864  0.013393  0.101237  0.137056  0.009966  4.037785  0.009
C  C13  1  0.36982044  0.90787135  0.43086217  1  0.431863  0.013188  0.102567  0.13973  0.009953  4.033997  0.009
C  C14  1  0.93895198  0.56911849  0.47698704  1  0.391032  0.013302  0.101509  0.139398  0.009951  4.035411  0.009
C  C15  1  0.63018016  0.56913826  0.09212498  1  0.431937  0.013186  0.102472  0.139707  0.009952  4.03402  0.009
C  C16  1  0.06105186  0.52301279  0.43088265  1  0.355199  0.013382  0.101532  0.139446  0.009951  4.035299  0.009
C  C17  1  0.53806344  0.90788870  0.47704133  1  0.360984  0.013393  0.101192  0.137064  0.009966  4.037917  0.009
C  C18  1  0.53806152  0.47704122  0.90788834  1  0.360862  0.013392  0.101184  0.136956  0.009966  4.037993  0.009
C  C19  1  0.63018073  0.09212549  0.56913968  1  0.431778  0.013188  0.102518  0.139676  0.009953  4.033972  0.009
C  C20  1  0.06104828  0.43088387  0.52301384  1  0.352392  0.013388  0.101548  0.139461  0.009951  4.035268  0.009
C  C21  1  0.36981844  0.43086567  0.90787777  1  0.432057  0.013187  0.102517  0.139721  0.009952  4.034075  0.009
C  C22  1  0.93895169  0.47698878  0.56911688  1  0.393641  0.013298  0.101548  0.139462  0.009951  4.035316  0.009
C  C23  1  0.46193485  0.09210972  0.52295824  1  0.361027  0.013391  0.101233  0.137184  0.009965  4.037738  0.009
C  C24  1  0.32670999  0.45267104  0.99997888  1  0.028911  0.011047  -0.082453  -0.209641  0.008692  3.915658  0.006
C  C25  1  0.32670551  0.99997594  0.45266692  1  0.027754  0.011052  -0.082539  -0.209895  0.008695  3.915597  0.006
C  C26  1  0.87398072  0.54722889  0.54722556  1  0.068545  0.010971  -0.083685  -0.211958  0.008688  3.917651  0.006
C  C27  1  0.67328861  0.54733289  0.00002454  1  0.029006  0.011047  -0.082417  -0.209672  0.008693  3.915614  0.006
C  C28  1  0.12602161  0.45277268  0.45277317  1  0.06847  0.010971  -0.08374  -0.212042  0.008688  3.917607  0.006
C  C29  1  0.67329117  0.00002169  0.54733214  1  0.029013  0.011046  -0.082489  -0.209746  0.008693  3.915614  0.006
N  N30  1  0.46835747  0.56187411  0.19597570  1  -0.682934  0.070257  -0.221227  -0.215134  0.043287  3.407388  0.026
N  N31  1  0.27238230  0.80399585  0.36588411  1  -0.725223  0.070481  -0.221166  -0.214928  0.043311  3.407201  0.026
N  N32  1  0.90647688  0.63408692  0.43809454  1  -0.685541  0.070295  -0.219753  -0.213223  0.04326  3.402277  0.026
N  N33  1  0.72761696  0.63411401  0.19600086  1  -0.725244  0.070477  -0.221196  -0.215102  0.043314  3.407337  0.026
N  N34  1  0.09353042  0.56190388  0.36591317  1  -0.685664  0.070296  -0.219703  -0.213199  0.043259  3.402326  0.026
N  N35  1  0.53164861  0.80402542  0.43812643  1  -0.682965  0.070255  -0.221174  -0.2151  0.043287  3.407201  0.026
N  N36  1  0.53164117  0.43812746  0.80402667  1  -0.682839  0.070258  -0.221221  -0.21509  0.043284  3.407508  0.026
N  N37  1  0.72761643  0.19600099  0.63411548  1  -0.725215  0.070475  -0.221174  -0.215002  0.043308  3.407302  0.026
N  N38  1  0.09352343  0.36591308  0.56190395  1  -0.685515  0.070297  -0.219728  -0.213227  0.043258  3.402271  0.026
N  N39  1  0.27238251  0.36588677  0.80400124  1  -0.724776  0.070471  -0.221254  -0.215245  0.043313  3.407306  0.026
N  N40  1  0.90647191  0.43809769  0.63408623  1  -0.685584  0.070296  -0.21975  -0.213244  0.04326  3.402419  0.026
N  N41  1  0.46835135  0.19597142  0.56187262  1  -0.682858  0.070253  -0.221206  -0.215187  0.043286  3.407238  0.026
N  N42  1  0.62675587  0.62677405  0.25352775  1  -0.230222  0.080548  -0.104214  -0.000263  0.051634  3.526013  0.041
N  N43  1  0.37325014  0.74647138  0.37322556  1  -0.230204  0.080549  -0.104286  -0.000432  0.051638  3.525979  0.041
N  N44  1  0.00000319  0.62676456  0.37323340  1  -0.257695  0.080589  -0.106214  -0.003962  0.051693  3.523226  0.041
N  N45  1  0.37324482  0.37322673  0.74647447  1  -0.230791  0.080549  -0.104195  -0.000195  0.051633  3.526012  0.041
N  N46  1  0.62674981  0.25352546  0.62677281  1  -0.230226  0.080548  -0.104256  -0.000343  0.051634  3.525892  0.041
N  N47  1  0.99999629  0.37323622  0.62676535  1  -0.25765  0.080587  -0.106205  -0.003962  0.051691  3.523245  0.041
Cl  Cl48  1  0.50000471  0.57446057  0.42554313  1  -0.687173  0.202664  -0.238388  -0.432656  0.150107  1.389031  0.097
Cl  Cl49  1  0.07440564  0.57442676  0.14886090  1  -0.684579  0.20229  -0.237868  -0.43243  0.15001  1.387924  0.097
Cl  Cl50  1  0.92559866  0.85113876  0.42556741  1  -0.684682  0.202311  -0.237834  -0.432388  0.150004  1.387936  0.097
Cl  Cl51  1  0.49999559  0.42553942  0.57445736  1  -0.682812  0.202367  -0.238396  -0.432667  0.150104  1.389007  0.097
Cl  Cl52  1  0.92559305  0.42557245  0.85113773  1  -0.680353  0.202012  -0.237853  -0.432393  0.150006  1.38794  0.097
Cl  Cl53  1  0.07440287  0.14886123  0.57443120  1  -0.680415  0.202021  -0.237841  -0.432398  0.150004  1.387931  0.097
