# generated using pymatgen
data_ZnCuH15C23N3O5
_symmetry_space_group_name_H-M   'P 1'
_cell_length_a   14.87321341
_cell_length_b   15.34554735
_cell_length_c   15.34553489
_cell_angle_alpha   83.77861868
_cell_angle_beta   61.19044045
_cell_angle_gamma   61.19071816
_symmetry_Int_Tables_number   1
_chemical_formula_structural   ZnCuH15C23N3O5
_chemical_formula_sum   'Zn4 Cu4 H60 C92 N12 O20'
_cell_volume   2653.85536708
_cell_formula_units_Z   4
loop_
 _symmetry_equiv_pos_site_id
 _symmetry_equiv_pos_as_xyz
  1  'x, y, z'
loop_
 _atom_site_type_symbol
 _atom_site_label
 _atom_site_symmetry_multiplicity
 _atom_site_fract_x
 _atom_site_fract_y
 _atom_site_fract_z
 _atom_site_occupancy
 _atom_site_pbe_bader_charge
 _atom_site_pbe_bader_spin_density
 _atom_site_pbe_cm5_charge
 _atom_site_pbe_ddec_charge
 _atom_site_pbe_ddec_spin_density
 _atom_site_pbe_ddec_sum_bond_order
 _atom_site_pbe_magmom
Zn  Zn0  1  0.37694271  0.25074038  0.64299743  1  1.295265  2.9e-05  0.669096  0.834387  2.5e-05  2.364855  0.0
Zn  Zn1  1  0.12306099  0.35700020  0.74926053  1  1.288094  -2.9e-05  0.669068  0.834356  -2.5e-05  2.364979  0.0
Zn  Zn2  1  0.62305350  0.74928288  0.35700131  1  1.295171  -2.9e-05  0.669149  0.83444  -2.6e-05  2.364597  0.0
Zn  Zn3  1  0.87694352  0.64299908  0.25071729  1  1.287883  2.9e-05  0.669128  0.834424  2.6e-05  2.364649  0.0
Cu  Cu4  1  0.00890732  0.89938283  0.50049336  1  0.878733  0.193679  0.707356  0.577547  0.305584  2.457617  0.195
Cu  Cu5  1  0.49109246  0.49950452  0.10061987  1  0.878747  -0.19369  0.707375  0.577525  -0.305599  2.457624  -0.195
Cu  Cu6  1  0.99106307  0.10068037  0.49951782  1  0.878756  -0.193359  0.707292  0.577338  -0.305107  2.457383  -0.195
Cu  Cu7  1  0.50894150  0.50047140  0.89932060  1  0.878846  0.193352  0.707339  0.577397  0.305097  2.457342  0.195
H  H8  1  0.44662884  0.93837845  0.63232338  1  0.07063  1.9e-05  0.102278  0.104452  1.6e-05  1.018485  0.0
H  H9  1  0.05338473  0.36766441  0.06161633  1  0.070762  -1.9e-05  0.102305  0.10443  -1.6e-05  1.018488  0.0
H  H10  1  0.55336178  0.06165464  0.36766978  1  0.070576  -1.8e-05  0.102242  0.10435  -1.6e-05  1.01865  0.0
H  H11  1  0.94661925  0.63234392  0.93835167  1  0.070866  1.8e-05  0.102283  0.104386  1.6e-05  1.018534  0.0
H  H12  1  0.44392587  0.77897436  0.63063554  1  0.094372  4e-06  0.100101  0.10277  -1.4e-05  1.034918  0.0
H  H13  1  0.05608658  0.36935421  0.22102164  1  0.09423  -4e-06  0.100089  0.102829  1.4e-05  1.034928  0.0
H  H14  1  0.55606616  0.22105484  0.36938343  1  0.093802  -5e-06  0.100062  0.102785  1.4e-05  1.034933  0.0
H  H15  1  0.94391735  0.63062861  0.77895036  1  0.093895  5e-06  0.100043  0.102734  -1.4e-05  1.03498  0.0
H  H16  1  0.06727168  0.94828444  0.74684025  1  0.061889  -1.2e-05  0.101217  0.101178  -9e-06  1.003199  0.0
H  H17  1  0.43273875  0.25315802  0.05171044  1  0.061708  1.2e-05  0.101178  0.101153  9e-06  1.003264  0.0
H  H18  1  0.93271363  0.05173497  0.25320178  1  0.075567  1.2e-05  0.101213  0.10111  9e-06  1.0034  0.0
H  H19  1  0.56727054  0.74679919  0.94827216  1  0.075572  -1.2e-05  0.101165  0.101056  -9e-06  1.003601  0.0
H  H20  1  0.07229875  0.10709475  0.75069854  1  0.106291  8e-06  0.104529  0.112916  -9e-06  0.993633  0.0
H  H21  1  0.42771243  0.24929823  0.89289905  1  0.106078  -8e-06  0.104501  0.112854  9e-06  0.993676  0.0
H  H22  1  0.92769302  0.89292554  0.24930389  1  0.106459  -8e-06  0.104538  0.112936  9e-06  0.993575  0.0
H  H23  1  0.57229004  0.75069655  0.10708280  1  0.106207  8e-06  0.104512  0.112939  -9e-06  0.993561  0.0
H  H24  1  0.42975987  0.67252161  0.56323522  1  0.094302  -0.000114  0.102881  0.10604  -0.000137  1.024508  0.0
H  H25  1  0.07024582  0.43676512  0.32747075  1  0.094361  0.000115  0.102916  0.106071  0.000137  1.024445  0.0
H  H26  1  0.57024397  0.32749083  0.43681518  1  0.091582  0.000115  0.102955  0.106082  0.000137  1.024437  0.0
H  H27  1  0.92974582  0.56319075  0.67251631  1  0.093873  -0.000115  0.102963  0.106074  -0.000137  1.024408  0.0
H  H28  1  0.42053028  0.51630594  0.55821443  1  0.097589  -8e-06  0.102057  0.103252  5e-05  1.027695  0.0
H  H29  1  0.07946734  0.44179060  0.48369091  1  0.097622  8e-06  0.102073  0.103298  -5e-05  1.027575  0.0
H  H30  1  0.57948968  0.48370107  0.44184140  1  0.09634  9e-06  0.102042  0.103211  -5e-05  1.027599  0.0
H  H31  1  0.92050803  0.55816016  0.51630231  1  0.096441  -9e-06  0.102047  0.103205  5e-05  1.027592  0.0
H  H32  1  0.06837716  0.65720126  0.80790697  1  0.095839  3.6e-05  0.100457  0.100835  3.7e-05  1.051604  0.0
H  H33  1  0.43161794  0.19209745  0.34280436  1  0.095882  -3.6e-05  0.10047  0.100852  -3.7e-05  1.05162  0.0
H  H34  1  0.93162941  0.34279697  0.19212866  1  0.095487  -3.6e-05  0.100367  0.100781  -3.7e-05  1.05157  0.0
H  H35  1  0.56836719  0.80787115  0.65719939  1  0.095397  3.7e-05  0.100367  0.100818  3.7e-05  1.051497  0.0
H  H36  1  0.07353677  0.81476175  0.81343487  1  0.057723  2.3e-05  0.102734  0.103108  1.3e-05  1.002434  0.0
H  H37  1  0.42646608  0.18656349  0.18524059  1  0.057727  -2.3e-05  0.102767  0.103203  -1.3e-05  1.002443  0.0
H  H38  1  0.92645875  0.18524107  0.18660478  1  0.057993  -2.3e-05  0.102698  0.103043  -1.3e-05  1.002477  0.0
H  H39  1  0.57353063  0.81339827  0.81475913  1  0.058285  2.3e-05  0.102697  0.103101  1.3e-05  1.002475  0.0
H  H40  1  0.54779271  0.31403761  0.60159145  1  0.084049  -0.001522  0.117584  0.088294  -0.00142  1.033804  0.0
H  H41  1  0.95221665  0.39839903  0.68596356  1  0.083936  0.001522  0.117584  0.088263  0.001419  1.033862  0.0
H  H42  1  0.45218972  0.68600443  0.39842805  1  0.084577  0.001525  0.117569  0.088266  0.001421  1.03356  0.0
H  H43  1  0.04780226  0.60157768  0.31399948  1  0.084479  -0.001524  0.117604  0.088338  -0.001421  1.033567  0.0
H  H44  1  0.57509647  0.03560380  0.57720943  1  0.10566  0.00018  0.124017  0.10116  0.000154  0.995524  0.0
H  H45  1  0.92490863  0.42278796  0.96439684  1  0.105698  -0.00018  0.123999  0.101108  -0.000153  0.995552  0.0
H  H46  1  0.42489032  0.96443595  0.42281023  1  0.105672  -0.000178  0.123982  0.100998  -0.000152  0.995808  0.0
H  H47  1  0.07511097  0.57719025  0.03556507  1  0.105715  0.000178  0.123975  0.101002  0.000152  0.995777  0.0
H  H48  1  0.75200275  0.88070163  0.52034069  1  0.103439  0.005007  0.119694  0.090603  0.003134  0.979804  0.002
H  H49  1  0.74799832  0.47965919  0.11930113  1  0.103368  -0.005007  0.119695  0.090616  -0.003134  0.979831  -0.002
H  H50  1  0.24793915  0.11936171  0.47970135  1  0.103426  -0.004994  0.119667  0.090493  -0.003124  0.979898  -0.002
H  H51  1  0.25206334  0.52029771  0.88063884  1  0.103598  0.004993  0.119666  0.090479  0.003125  0.979856  0.002
H  H52  1  0.03042339  0.73569937  0.37226790  1  0.049828  -0.000112  0.108449  0.092113  -0.00045  0.983123  0.001
H  H53  1  0.46957946  0.62773247  0.26429885  1  0.049784  0.000113  0.108457  0.092151  0.00045  0.983083  -0.001
H  H54  1  0.96951790  0.26430843  0.62778543  1  0.049596  0.00012  0.108501  0.092237  0.000455  0.983367  -0.001
H  H55  1  0.53048230  0.37221069  0.73569399  1  0.049518  -0.000119  0.108499  0.092301  -0.000454  0.983304  0.001
H  H56  1  0.92671165  0.71463113  0.48169085  1  0.069999  0.002867  0.10344  0.090912  0.001735  1.027466  0.002
H  H57  1  0.57328684  0.51830908  0.28537154  1  0.070028  -0.002867  0.103431  0.09089  -0.001735  1.02738  -0.002
H  H58  1  0.07322698  0.28541632  0.51838891  1  0.070074  -0.002859  0.103478  0.090842  -0.001731  1.027594  -0.002
H  H59  1  0.42677515  0.48160949  0.71458661  1  0.070077  0.002859  0.103504  0.090892  0.001731  1.027553  0.002
H  H60  1  0.03531565  0.68855223  0.56901535  1  0.054459  -0.000663  0.105611  0.095771  -0.000379  0.95971  0.0
H  H61  1  0.46467981  0.43098815  0.31144919  1  0.054523  0.000663  0.105614  0.095786  0.000379  0.959721  0.0
H  H62  1  0.96463794  0.31149596  0.43103390  1  0.054518  0.000663  0.105688  0.095728  0.000379  0.959374  0.0
H  H63  1  0.53536843  0.56896130  0.68851019  1  0.054695  -0.000663  0.105697  0.095682  -0.000379  0.959384  0.0
H  H64  1  0.14595637  0.62518728  0.44084205  1  0.131224  0.001333  0.091618  0.065137  -0.002315  1.062626  0.002
H  H65  1  0.35404141  0.55916265  0.37481468  1  0.130885  -0.00133  0.091618  0.065152  0.002316  1.062657  -0.002
H  H66  1  0.85399425  0.37485934  0.55922634  1  0.129997  -0.001332  0.091597  0.064944  0.002319  1.062712  -0.002
H  H67  1  0.64600745  0.44076955  0.62514165  1  0.129709  0.001328  0.09161  0.064934  -0.00232  1.06268  0.002
C  C68  1  0.26145967  0.12938643  0.69382653  1  1.569134  -1.5e-05  0.21027  0.586374  -1e-06  4.186936  0.0
C  C69  1  0.23855100  0.30617072  0.87060873  1  1.568861  1.5e-05  0.210358  0.586494  1e-06  4.186911  0.0
C  C70  1  0.73852215  0.87063921  0.30617346  1  1.564729  1.5e-05  0.210015  0.585919  0.0  4.187348  0.0
C  C71  1  0.76146499  0.69382997  0.12936490  1  1.564613  -1.5e-05  0.210204  0.586261  -0.0  4.187115  0.0
C  C72  1  0.25943492  0.03275367  0.69324626  1  -0.042577  -4.2e-05  -0.021932  -0.0429  -2.6e-05  3.978276  0.0
C  C73  1  0.24057953  0.30674563  0.96723958  1  -0.042759  4.2e-05  -0.021993  -0.04285  2.6e-05  3.977865  0.0
C  C74  1  0.74055504  0.96727114  0.30675589  1  -0.039211  4.2e-05  -0.021988  -0.042931  2.6e-05  3.978358  0.0
C  C75  1  0.75942910  0.69324913  0.03273419  1  -0.040216  -4.2e-05  -0.021969  -0.042923  -2.6e-05  3.978213  0.0
C  C76  1  0.36351077  0.93960540  0.65909995  1  -0.079663  -1.5e-05  -0.086987  -0.089658  1e-06  3.98041  0.0
C  C77  1  0.13650378  0.34089048  0.06039034  1  -0.079615  1.5e-05  -0.087027  -0.089669  -1e-06  3.980215  0.0
C  C78  1  0.63648219  0.06042088  0.34090326  1  -0.08002  1.4e-05  -0.086951  -0.089431  -2e-06  3.980619  0.0
C  C79  1  0.86349971  0.65910657  0.93958559  1  -0.079242  -1.5e-05  -0.086979  -0.089499  2e-06  3.980614  0.0
C  C80  1  0.36128535  0.85015563  0.65801452  1  -0.018545  3e-06  -0.091238  -0.132738  -2.1e-05  3.970802  0.0
C  C81  1  0.13872666  0.34197731  0.14983991  1  -0.018269  -3e-06  -0.091223  -0.132832  2.1e-05  3.970825  0.0
C  C82  1  0.63870463  0.14986909  0.34200587  1  -0.018673  -0.0  -0.091225  -0.132719  2.3e-05  3.971183  0.0
C  C83  1  0.86127933  0.65800321  0.85013593  1  -0.01827  0.0  -0.091285  -0.132776  -2.3e-05  3.971157  0.0
C  C84  1  0.25467866  0.85102283  0.69079814  1  -0.041407  -8.7e-05  -0.006211  0.067748  -0.000118  3.993426  0.0
C  C85  1  0.24533344  0.30919730  0.14897136  1  -0.040806  8.7e-05  -0.006197  0.067742  0.000118  3.993287  0.0
C  C86  1  0.74531102  0.14899430  0.30924013  1  -0.041096  8.7e-05  -0.006106  0.067465  0.000117  3.993513  0.0
C  C87  1  0.75467275  0.69076669  0.85101328  1  -0.041737  -8.7e-05  -0.00607  0.067589  -0.000117  3.993138  0.0
C  C88  1  0.15054858  0.94512187  0.72421489  1  -0.061788  -0.000302  -0.093303  -0.131229  -0.000246  3.981211  0.0
C  C89  1  0.34946422  0.27578049  0.05487298  1  -0.062109  0.000302  -0.093255  -0.131163  0.000246  3.981172  0.0
C  C90  1  0.84944151  0.05489455  0.27581479  1  -0.075139  0.000301  -0.093343  -0.131113  0.000245  3.981344  0.0
C  C91  1  0.65054325  0.72418798  0.94511190  1  -0.074861  -0.000301  -0.093229  -0.131019  -0.000245  3.981489  0.0
C  C92  1  0.15279850  0.03442843  0.72562976  1  -0.02258  6e-06  -0.087124  -0.089798  1.3e-05  3.990401  0.0
C  C93  1  0.34721528  0.27436507  0.96556514  1  -0.022593  -6e-06  -0.087031  -0.089715  -1.3e-05  3.990216  0.0
C  C94  1  0.84719139  0.96559109  0.27438080  1  -0.022007  -5e-06  -0.087145  -0.089836  -1.2e-05  3.990212  0.0
C  C95  1  0.65279422  0.72562140  0.03441430  1  -0.021816  5e-06  -0.087101  -0.089799  1.3e-05  3.99015  0.0
C  C96  1  0.25184840  0.75642982  0.68855204  1  -0.017622  0.000147  -0.003851  0.074935  2e-05  3.984803  0.0
C  C97  1  0.24815851  0.31144770  0.24356709  1  -0.01792  -0.000147  -0.0039  0.074891  -2e-05  3.984771  0.0
C  C98  1  0.74815400  0.24358109  0.31150701  1  -0.017196  -0.000147  -0.003983  0.075223  -2e-05  3.984411  0.0
C  C99  1  0.75183374  0.68849766  0.75642078  1  -0.016763  0.000147  -0.004122  0.075032  2e-05  3.984342  0.0
C  C100  1  0.34983343  0.67027608  0.61758729  1  -0.043598  0.000344  -0.090243  -0.134767  0.000299  3.974873  0.0
C  C101  1  0.15017131  0.38241583  0.32971892  1  -0.043371  -0.000344  -0.090262  -0.13466  -0.000299  3.974697  0.0
C  C102  1  0.65017720  0.32973250  0.38247404  1  -0.04179  -0.000342  -0.09055  -0.135382  -0.000298  3.975116  0.0
C  C103  1  0.84981392  0.61753109  0.67027140  1  -0.04393  0.000342  -0.090507  -0.135281  0.000298  3.974921  0.0
C  C104  1  0.34537519  0.58243418  0.61399680  1  -0.081314  0.000447  -0.087146  -0.095056  0.000664  4.007534  0.0
C  C105  1  0.15462643  0.38600708  0.41756235  1  -0.081557  -0.000446  -0.087193  -0.095148  -0.000664  4.007367  0.0
C  C106  1  0.65464779  0.41756750  0.38606796  1  -0.079393  -0.000444  -0.086916  -0.094471  -0.000661  4.007135  0.0
C  C107  1  0.84534707  0.61393617  0.58243513  1  -0.07946  0.000444  -0.08688  -0.094444  0.000661  4.007071  0.0
C  C108  1  0.24474003  0.57598459  0.68292378  1  -0.065031  0.002119  -0.023726  -0.047188  0.001749  3.983984  0.001
C  C109  1  0.25526074  0.31708079  0.42401586  1  -0.064795  -0.002119  -0.0238  -0.047421  -0.00175  3.984014  -0.001
C  C110  1  0.75528287  0.42401187  0.31713570  1  -0.065711  -0.002123  -0.0239  -0.047525  -0.001753  3.9839  -0.001
C  C111  1  0.74471328  0.68286692  0.57598938  1  -0.065877  0.002122  -0.023977  -0.047552  0.001752  3.984026  0.001
C  C112  1  0.14677822  0.66142302  0.75366755  1  -0.035076  9.3e-05  -0.089364  -0.096729  9.2e-05  3.996767  0.0
C  C113  1  0.35322193  0.24633601  0.33857880  1  -0.03538  -9.3e-05  -0.089391  -0.096675  -9.2e-05  3.99673  0.0
C  C114  1  0.85323901  0.33857128  0.24638633  1  -0.034594  -9.3e-05  -0.089321  -0.096802  -9.2e-05  3.996882  0.0
C  C115  1  0.64675654  0.75361465  0.66142797  1  -0.034463  9.3e-05  -0.089362  -0.096988  9.2e-05  3.996927  0.0
C  C116  1  0.15013195  0.75011628  0.75617747  1  -0.039688  0.000656  -0.090611  -0.128525  0.000471  3.97199  0.0
C  C117  1  0.34987233  0.24382370  0.24988396  1  -0.039472  -0.000656  -0.090604  -0.12867  -0.000471  3.972129  0.0
C  C118  1  0.84987713  0.24988560  0.24387485  1  -0.039609  -0.000659  -0.090299  -0.128208  -0.000473  3.972152  0.0
C  C119  1  0.65011299  0.75612843  0.75011555  1  -0.040157  0.000658  -0.090213  -0.128108  0.000473  3.972231  0.0
C  C120  1  0.24579490  0.47752776  0.68503354  1  1.578512  0.000299  0.209954  0.579501  0.000238  4.189931  0.0
C  C121  1  0.25420173  0.31497196  0.52247346  1  1.578531  -0.000299  0.210061  0.579786  -0.000238  4.189703  0.0
C  C122  1  0.75422966  0.52246584  0.31499353  1  1.576853  -0.0003  0.209753  0.579419  -0.000239  4.189701  0.0
C  C123  1  0.74577012  0.68500651  0.47753350  1  1.576848  0.0003  0.209768  0.579445  0.000238  4.189805  0.0
C  C124  1  0.60597374  0.23276738  0.58166280  1  0.486775  0.010399  0.053205  0.073525  0.008051  3.93704  0.007
C  C125  1  0.89403634  0.41832702  0.76723113  1  0.487053  -0.010398  0.053162  0.073507  -0.008051  3.936873  -0.007
C  C126  1  0.39400371  0.76728073  0.41835318  1  0.486061  -0.010349  0.053278  0.073472  -0.008007  3.935698  -0.007
C  C127  1  0.10599019  0.58165116  0.23272365  1  0.486915  0.010356  0.053293  0.073432  0.008014  3.93574  0.007
C  C128  1  0.72545548  0.19304811  0.54893888  1  0.021678  -0.022632  -0.032018  -0.095738  -0.016715  4.05582  -0.017
C  C129  1  0.77455435  0.45104609  0.80694974  1  0.021342  0.022627  -0.031955  -0.095495  0.01671  4.055675  0.017
C  C130  1  0.27450585  0.80701214  0.45108269  1  0.02224  0.022636  -0.032157  -0.095811  0.016729  4.054793  0.017
C  C131  1  0.22549017  0.54892072  0.19299262  1  0.02224  -0.022634  -0.032212  -0.095888  -0.016728  4.054914  -0.017
C  C132  1  0.79765764  0.08510142  0.51989996  1  0.659859  -0.001264  0.113325  0.314008  -0.000648  3.997491  0.0
C  C133  1  0.70235292  0.48008477  0.91489805  1  0.6594  0.001263  0.113176  0.313714  0.000648  3.997804  0.0
C  C134  1  0.20231528  0.91497085  0.48009085  1  0.658738  0.001278  0.113471  0.314044  0.000659  3.997274  0.0
C  C135  1  0.29768384  0.51990917  0.08503272  1  0.658975  -0.001276  0.113513  0.314064  -0.000658  3.99719  0.0
C  C136  1  0.74242400  0.02528179  0.53367471  1  -0.027398  -0.002895  -0.028406  -0.120866  -0.002529  4.015581  -0.004
C  C137  1  0.75758202  0.46631720  0.97471976  1  -0.027133  0.002894  -0.028425  -0.120851  0.002527  4.015814  0.004
C  C138  1  0.25756301  0.97478053  0.46632881  1  -0.027034  0.00291  -0.028472  -0.121047  0.002545  4.015921  0.004
C  C139  1  0.24243856  0.53367011  0.02521989  1  -0.02727  -0.00291  -0.028464  -0.120996  -0.002545  4.015882  -0.004
C  C140  1  0.62141752  0.07673438  0.56722668  1  0.579504  0.002571  0.06347  0.087294  0.002599  3.91356  0.002
C  C141  1  0.87858816  0.43276714  0.92326649  1  0.579341  -0.00257  0.063485  0.087391  -0.002597  3.913504  -0.002
C  C142  1  0.37857286  0.92330988  0.43278237  1  0.580111  -0.002545  0.063388  0.087394  -0.002575  3.913562  -0.002
C  C143  1  0.12142560  0.56721864  0.07669279  1  0.580141  0.00255  0.06336  0.087319  0.00258  3.913556  0.002
C  C144  1  0.76537285  0.26453488  0.54690508  1  0.552671  -0.169133  0.02824  -0.070442  -0.136899  3.536425  -0.089
C  C145  1  0.73463751  0.45307795  0.73546517  1  0.552414  0.169119  0.028313  -0.070473  0.136887  3.536802  0.089
C  C146  1  0.23456402  0.73551573  0.45314389  1  0.552022  0.16934  0.027787  -0.070846  0.13705  3.535908  0.089
C  C147  1  0.26543139  0.54686082  0.26448830  1  0.551848  -0.169327  0.027766  -0.070847  -0.137034  3.53586  -0.089
C  C148  1  0.80474298  0.91537483  0.51269195  1  0.597103  0.010104  0.078473  0.108281  0.00897  3.908187  0.005
C  C149  1  0.69525996  0.48730383  0.08462592  1  0.597103  -0.010102  0.078513  0.108273  -0.008969  3.908427  -0.005
C  C150  1  0.19522984  0.08467330  0.48732879  1  0.603649  -0.010042  0.078609  0.108673  -0.00891  3.908652  -0.005
C  C151  1  0.30477189  0.51266903  0.91533084  1  0.603838  0.010048  0.07862  0.108711  0.008914  3.908608  0.005
C  C152  1  0.98315108  0.74920741  0.45539763  1  0.317466  -0.001673  -0.067664  -0.058712  -0.001834  3.896333  -0.002
C  C153  1  0.51684892  0.54460263  0.25079245  1  0.317142  0.001672  -0.067665  -0.058719  0.001834  3.896171  0.002
C  C154  1  0.01680047  0.25082276  0.54466031  1  0.31588  0.00167  -0.067571  -0.058722  0.001834  3.896758  0.002
C  C155  1  0.48319987  0.45533774  0.74918001  1  0.316077  -0.00167  -0.067641  -0.05899  -0.001834  3.896799  -0.002
C  C156  1  0.07641311  0.69908459  0.48976378  1  0.236562  0.002817  -0.069804  -0.052071  0.00427  3.893687  0.003
C  C157  1  0.42358300  0.51023971  0.30091789  1  0.236872  -0.002816  -0.069809  -0.052116  -0.004269  3.893666  -0.003
C  C158  1  0.92354330  0.30096806  0.51028760  1  0.239877  -0.002778  -0.069873  -0.051794  -0.00424  3.892687  -0.003
C  C159  1  0.57646242  0.48970529  0.69903415  1  0.239508  0.002781  -0.069899  -0.051633  0.004238  3.892575  0.003
N  N160  1  0.55493157  0.17769090  0.58919364  1  -1.291681  0.000494  -0.343834  -0.239121  -2.4e-05  3.569294  -0.001
N  N161  1  0.94507471  0.41080000  0.82230936  1  -1.291257  -0.000493  -0.343821  -0.239187  2.3e-05  3.569305  0.001
N  N162  1  0.44505846  0.82235264  0.41081174  1  -1.291173  -0.000493  -0.34364  -0.238754  2e-05  3.568365  0.001
N  N163  1  0.05493802  0.58919029  0.17764929  1  -1.292004  0.000494  -0.343678  -0.238769  -2.1e-05  3.568471  -0.001
N  N164  1  0.91543078  0.85840995  0.48622857  1  -1.167585  0.053753  -0.397699  -0.240258  0.042997  3.662419  0.044
N  N165  1  0.58457200  0.51376861  0.14159029  1  -1.167514  -0.053754  -0.397664  -0.240186  -0.042998  3.662486  -0.044
N  N166  1  0.08454085  0.14163218  0.51379530  1  -1.174337  -0.05363  -0.398159  -0.240697  -0.042913  3.663045  -0.044
N  N167  1  0.41546234  0.48620120  0.85837214  1  -1.174467  0.053631  -0.398123  -0.240606  0.042914  3.663019  0.044
N  N168  1  0.87312527  0.23658245  0.51700553  1  -1.199232  -0.101426  -0.385922  -0.223391  -0.07469  3.797724  -0.081
N  N169  1  0.62688255  0.48298178  0.76342048  1  -1.199001  0.101418  -0.386037  -0.223512  0.074691  3.798106  0.081
N  N170  1  0.12679014  0.76350586  0.48304430  1  -1.198892  0.101457  -0.385737  -0.223325  0.074721  3.798709  0.081
N  N171  1  0.37320652  0.51696072  0.23649453  1  -1.198877  -0.101448  -0.385744  -0.223317  -0.074713  3.798536  -0.081
O  O172  1  0.35872993  0.12368665  0.67172904  1  -1.165263  0.0  -0.319228  -0.54761  -1.8e-05  2.310632  0.0
O  O173  1  0.14127889  0.32826618  0.87631043  1  -1.164999  -0.0  -0.319373  -0.547834  1.8e-05  2.310643  0.0
O  O174  1  0.64124041  0.87635102  0.32828874  1  -1.164738  0.0  -0.31911  -0.547531  1.8e-05  2.310867  0.0
O  O175  1  0.85874867  0.67171420  0.12365210  1  -1.164695  -0.0  -0.319209  -0.547697  -1.8e-05  2.310733  0.0
O  O176  1  0.16525126  0.21065766  0.71583629  1  -1.175222  -1e-05  -0.319074  -0.55462  -5.5e-05  2.339871  0.0
O  O177  1  0.33475969  0.28416074  0.78933650  1  -1.175161  1e-05  -0.318993  -0.554523  5.5e-05  2.339968  0.0
O  O178  1  0.83473114  0.78935757  0.28414367  1  -1.174741  1e-05  -0.318877  -0.554291  5.5e-05  2.339662  0.0
O  O179  1  0.66525759  0.71585788  0.21064835  1  -1.174989  -1e-05  -0.318994  -0.554498  -5.5e-05  2.339708  0.0
O  O180  1  0.34405883  0.40004803  0.62870387  1  -1.182086  0.00014  -0.318065  -0.551523  0.000162  2.319372  0.0
O  O181  1  0.15593800  0.37129956  0.59995442  1  -1.182243  -0.00014  -0.318038  -0.551588  -0.000162  2.3194  0.0
O  O182  1  0.65597043  0.59995754  0.37131976  1  -1.18099  -0.00014  -0.317999  -0.551515  -0.000162  2.319201  0.0
O  O183  1  0.84402980  0.62868200  0.40004172  1  -1.180944  0.00014  -0.318018  -0.551548  0.000162  2.319255  0.0
O  O184  1  0.14899197  0.47851857  0.74546528  1  -1.170605  0.00016  -0.31534  -0.544283  9.6e-05  2.337149  0.0
O  O185  1  0.35100389  0.25453984  0.52148286  1  -1.170541  -0.00016  -0.31539  -0.544364  -9.6e-05  2.33698  0.0
O  O186  1  0.85103031  0.52147372  0.25452584  1  -1.170092  -0.00016  -0.315207  -0.544217  -9.7e-05  2.336947  0.0
O  O187  1  0.64897024  0.74547235  0.47852538  1  -1.170109  0.00016  -0.31518  -0.544183  9.7e-05  2.337052  0.0
O  O188  1  0.91137625  0.04078827  0.48304120  1  -1.119177  -0.017253  -0.351016  -0.47459  -0.014057  2.707179  -0.018
O  O189  1  0.58863386  0.51694036  0.95921180  1  -1.119043  0.017252  -0.350895  -0.474427  0.014056  2.707198  0.018
O  O190  1  0.08860057  0.95928260  0.51692056  1  -1.119204  0.017324  -0.351022  -0.474519  0.014109  2.707946  0.018
O  O191  1  0.41139765  0.48307760  0.04072347  1  -1.119397  -0.017324  -0.351069  -0.474544  -0.01411  2.707843  -0.018
