# generated using pymatgen
data_KVH9C7N3O8
_symmetry_space_group_name_H-M   'P 1'
_cell_length_a   6.65309051
_cell_length_b   9.47078218
_cell_length_c   10.82935413
_cell_angle_alpha   115.29651217
_cell_angle_beta   90.82106463
_cell_angle_gamma   105.79406594
_symmetry_Int_Tables_number   1
_chemical_formula_structural   KVH9C7N3O8
_chemical_formula_sum   'K2 V2 H18 C14 N6 O16'
_cell_volume   586.90322307
_cell_formula_units_Z   2
loop_
 _symmetry_equiv_pos_site_id
 _symmetry_equiv_pos_as_xyz
  1  'x, y, z'
loop_
 _atom_site_type_symbol
 _atom_site_label
 _atom_site_symmetry_multiplicity
 _atom_site_fract_x
 _atom_site_fract_y
 _atom_site_fract_z
 _atom_site_occupancy
 _atom_site_hle17_bader_spin_density
 _atom_site_hle17_ddec_charge
 _atom_site_hle17_ddec_spin_density
 _atom_site_hle17_ddec_sum_bond_order
 _atom_site_hle17_magmom
 _atom_site_hse06_10hf_bader_spin_density
 _atom_site_hse06_10hf_ddec_charge
 _atom_site_hse06_10hf_ddec_spin_density
 _atom_site_hse06_10hf_ddec_sum_bond_order
 _atom_site_hse06_10hf_magmom
 _atom_site_hse06_bader_spin_density
 _atom_site_hse06_ddec_charge
 _atom_site_hse06_ddec_spin_density
 _atom_site_hse06_ddec_sum_bond_order
 _atom_site_hse06_magmom
 _atom_site_pbe_bader_spin_density
 _atom_site_pbe_cm5_charge
 _atom_site_pbe_ddec_charge
 _atom_site_pbe_ddec_spin_density
 _atom_site_pbe_ddec_sum_bond_order
 _atom_site_pbe_magmom
K  K0  1  0.31811332  0.61185473  0.48621845  1  0  0.936718  0  0.492946  0  0  0.887281  0  0.690372  0  0  0.903269  0  0.666411  0  0  0.848313  0.875008  0  0.707765  0
K  K1  1  0.68188733  0.38814743  0.51378080  1  0  0.936703  0  0.492962  0  0  0.887267  0  0.690381  0  0  0.90326  0  0.666415  0  0  0.8483  0.874996  0  0.707772  0
V  V2  1  0.28729486  0.05392263  0.20294496  1  0  1.612153  0  3.033441  0  0  1.624604  0  3.437898  0  0  1.704391  0  3.429936  0  0  1.556214  1.568348  0  3.449388  0
V  V3  1  0.71270625  0.94608074  0.79705936  1  0  1.612269  0  3.033467  0  0  1.624664  0  3.438005  0  0  1.704462  0  3.430014  0  0  1.556283  1.568338  0  3.449686  0
H  H4  1  0.64426799  0.39311584  0.03201656  1  0  0.106545  0  0.922352  0  0  0.121853  0  0.974427  0  0  0.12457  0  0.97332  0  0  0.116752  0.119786  0  0.975492  0
H  H5  1  0.35573915  0.60688382  0.96798735  1  0  0.106535  0  0.922285  0  0  0.121808  0  0.97441  0  0  0.124522  0  0.973304  0  0  0.116767  0.119741  0  0.975474  0
H  H6  1  0.70540679  0.51373815  0.86347618  1  0  0.121334  0  0.934006  0  0  0.130833  0  0.992956  0  0  0.134891  0  0.990906  0  0  0.122081  0.127689  0  0.994939  0
H  H7  1  0.29459296  0.48625050  0.13651981  1  0  0.12132  0  0.9341  0  0  0.130859  0  0.993003  0  0  0.134915  0  0.990956  0  0  0.122102  0.127714  0  0.994984  0
H  H8  1  0.97671582  0.78985292  0.94114424  1  0  0.099024  0  0.956194  0  0  0.107186  0  1.018261  0  0  0.111404  0  1.012988  0  0  0.126836  0.103898  0  1.022535  0
H  H9  1  0.02328138  0.21014064  0.05885358  1  0  0.099011  0  0.95617  0  0  0.107161  0  1.018265  0  0  0.111379  0  1.012991  0  0  0.126812  0.103874  0  1.022538  0
H  H10  1  0.55213861  0.89618292  0.23637880  1  0  0.336273  0  0.901927  0  0  0.317336  0  0.964843  0  0  0.326542  0  0.957212  0  0  0.300558  0.310989  0  0.970035  0
H  H11  1  0.44786701  0.10382415  0.76362234  1  0  0.336274  0  0.902034  0  0  0.317325  0  0.964951  0  0  0.326532  0  0.957317  0  0  0.300555  0.310976  0  0.970139  0
H  H12  1  0.59227371  0.92395490  0.08561833  1  0  0.321281  0  0.898729  0  0  0.309754  0  0.956163  0  0  0.319706  0  0.947373  0  0  0.303408  0.302989  0  0.962045  0
H  H13  1  0.40772194  0.07604605  0.91438041  1  0  0.321262  0  0.898762  0  0  0.309732  0  0.956198  0  0  0.319685  0  0.947408  0  0  0.303398  0.302964  0  0.962083  0
H  H14  1  0.98337048  0.21723286  0.25888316  1  0  0.331422  0  0.865929  0  0  0.316553  0  0.926346  0  0  0.325808  0  0.917944  0  0  0.318459  0.31  0  0.93242  0
H  H15  1  0.01662814  0.78277176  0.74111884  1  0  0.331461  0  0.865894  0  0  0.316588  0  0.926313  0  0  0.325839  0  0.917922  0  0  0.318462  0.310036  0  0.93238  0
H  H16  1  0.03181486  0.16633533  0.38745865  1  0  0.336226  0  0.88835  0  0  0.31745  0  0.953379  0  0  0.326369  0  0.945516  0  0  0.316413  0.311024  0  0.959045  0
H  H17  1  0.96818176  0.83366806  0.61254287  1  0  0.336271  0  0.888293  0  0  0.31749  0  0.95333  0  0  0.326409  0  0.945464  0  0  0.31642  0.311065  0  0.95899  0
H  H18  1  0.61193579  0.88068162  0.43448736  1  0  0.417269  0  0.879421  0  0  0.388409  0  0.944908  0  0  0.400215  0  0.927315  0  0  0.290478  0.379913  0  0.95759  0
H  H19  1  0.38806486  0.11932055  0.56551097  1  0  0.417296  0  0.879372  0  0  0.388403  0  0.944929  0  0  0.400219  0  0.927321  0  0  0.290458  0.379895  0  0.957615  0
H  H20  1  0.60751500  0.70277442  0.33399306  1  0  0.391341  0  0.93522  0  0  0.358777  0  1.005031  0  0  0.369265  0  0.990054  0  0  0.271667  0.351521  0  1.015378  0
H  H21  1  0.39248963  0.29723019  0.66600807  1  0  0.391299  0  0.935289  0  0  0.358735  0  1.005106  0  0  0.369223  0  0.990129  0  0  0.271649  0.351478  0  1.015455  0
C  C22  1  0.01986897  0.75542721  0.22910911  1  0  0.08183  0  3.709725  0  0  0.077046  0  3.957894  0  0  0.080731  0  3.974865  0  0  0.11534  0.074761  0  3.946522  0
C  C23  1  0.98013269  0.24457002  0.77089198  1  0  0.081764  0  3.709818  0  0  0.077073  0  3.957892  0  0  0.080753  0  3.974865  0  0  0.115362  0.074791  0  3.946515  0
C  C24  1  0.87646503  0.60081272  0.19405731  1  0  -0.074954  0  3.685414  0  0  -0.053746  0  3.910817  0  0  -0.059299  0  3.928402  0  0  0.01025  -0.050727  0  3.899714  0
C  C25  1  0.12353364  0.39918452  0.80594284  1  0  -0.075004  0  3.685444  0  0  -0.053841  0  3.910855  0  0  -0.059398  0  3.928449  0  0  0.010214  -0.050823  0  3.899751  0
C  C26  1  0.75953987  0.51288593  0.06091618  1  0  -0.02296  0  3.678795  0  0  -0.051671  0  3.929055  0  0  -0.048639  0  3.946147  0  0  -0.059563  -0.053952  0  3.918113  0
C  C27  1  0.24046379  0.48711253  0.93908447  1  0  -0.022785  0  3.678491  0  0  -0.051459  0  3.928746  0  0  -0.048426  0  3.945838  0  0  -0.059513  -0.053741  0  3.917806  0
C  C28  1  0.79198275  0.57919344  0.96795778  1  0  -0.095743  0  3.697037  0  0  -0.111242  0  3.956143  0  0  -0.11605  0  3.972421  0  0  -0.070124  -0.108078  0  3.945661  0
C  C29  1  0.20801948  0.42079766  0.03203916  1  0  -0.09589  0  3.697293  0  0  -0.111422  0  3.956383  0  0  -0.116231  0  3.972663  0  0  -0.070201  -0.108256  0  3.945899  0
C  C30  1  0.94234730  0.73234490  0.00926349  1  0  0.157621  0  3.663625  0  0  0.126873  0  3.925421  0  0  0.138683  0  3.936531  0  0  0.055401  0.11867  0  3.917971  0
C  C31  1  0.05764638  0.26765113  0.99073522  1  0  0.157677  0  3.663831  0  0  0.126919  0  3.925637  0  0  0.138729  0  3.936749  0  0  0.055444  0.118718  0  3.918184  0
C  C32  1  0.14299155  0.86846765  0.37101729  1  0  0.645226  0  3.905089  0  0  0.593887  0  4.210227  0  0  0.628695  0  4.198958  0  0  0.218628  0.570337  0  4.217202  0
C  C33  1  0.85700661  0.13153206  0.62898193  1  0  0.645291  0  3.904997  0  0  0.593878  0  4.210191  0  0  0.628696  0  4.198909  0  0  0.218626  0.570331  0  4.217161  0
C  C34  1  0.83237945  0.52917190  0.29552408  1  0  0.675153  0  3.97199  0  0  0.623118  0  4.277856  0  0  0.657313  0  4.267972  0  0  0.196271  0.599779  0  4.283693  0
C  C35  1  0.16761872  0.47082412  0.70447560  1  0  0.675116  0  3.972033  0  0  0.62308  0  4.277905  0  0  0.657275  0  4.268023  0  0  0.196234  0.599741  0  4.283743  0
N  N36  1  0.05281254  0.81779888  0.13696051  1  0  -0.386741  0  3.374998  0  0  -0.35253  0  3.65906  0  0  -0.37628  0  3.689623  0  0  -0.367435  -0.336289  0  3.638447  0
N  N37  1  0.94718564  0.18219714  0.86303824  1  0  -0.386722  0  3.375067  0  0  -0.35252  0  3.659089  0  0  -0.376267  0  3.689651  0  0  -0.367474  -0.336278  0  3.638493  0
N  N38  1  0.52672267  0.95351948  0.17615720  1  0  -0.465516  0  3.088753  0  0  -0.451918  0  3.358442  0  0  -0.468783  0  3.359309  0  0  -0.591942  -0.440289  0  3.357158  0
N  N39  1  0.47327945  0.04648637  0.82384436  1  0  -0.465537  0  3.088838  0  0  -0.451913  0  3.358532  0  0  -0.468781  0  3.359394  0  0  -0.591911  -0.440272  0  3.357247  0
N  N40  1  0.08000982  0.17410748  0.29947428  1  0  -0.458347  0  3.088408  0  0  -0.447377  0  3.368421  0  0  -0.462643  0  3.368677  0  0  -0.593556  -0.436775  0  3.368365  0
N  N41  1  0.91998929  0.82589837  0.70052818  1  0  -0.458466  0  3.088517  0  0  -0.447489  0  3.368537  0  0  -0.462755  0  3.368785  0  0  -0.593555  -0.43688  0  3.368477  0
O  O42  1  0.27021481  0.00418990  0.38129890  1  0  -0.66185  0  2.093567  0  0  -0.617147  0  2.341421  0  0  -0.647631  0  2.335963  0  0  -0.332783  -0.595663  0  2.344674  0
O  O43  1  0.72977835  0.99580860  0.61869981  1  0  -0.661937  0  2.093492  0  0  -0.617213  0  2.341382  0  0  -0.647696  0  2.335916  0  0  -0.332815  -0.595716  0  2.34463  0
O  O44  1  0.11705780  0.82971732  0.46767719  1  0  -0.608844  0  1.973555  0  0  -0.563867  0  2.20296  0  0  -0.584776  0  2.191975  0  0  -0.347073  -0.549025  0  2.210226  0
O  O45  1  0.88294286  0.17028114  0.53232343  1  0  -0.60881  0  1.97357  0  0  -0.563837  0  2.203037  0  0  -0.584736  0  2.192022  0  0  -0.347038  -0.548998  0  2.210305  0
O  O46  1  0.67065037  0.55035892  0.35311519  1  0  -0.685154  0  1.992526  0  0  -0.630872  0  2.222933  0  0  -0.65709  0  2.213454  0  0  -0.41319  -0.612149  0  2.228634  0
O  O47  1  0.32935323  0.44964690  0.64688915  1  0  -0.68515  0  1.992569  0  0  -0.630864  0  2.222974  0  0  -0.657079  0  2.213496  0  0  -0.413172  -0.612139  0  2.228675  0
O  O48  1  0.94777585  0.44984774  0.30982775  1  0  -0.691899  0  1.951481  0  0  -0.649318  0  2.190999  0  0  -0.674153  0  2.18101  0  0  -0.419097  -0.631275  0  2.197341  0
O  O49  1  0.05222481  0.55015072  0.69017380  1  0  -0.691842  0  1.951443  0  0  -0.649259  0  2.190965  0  0  -0.674093  0  2.18098  0  0  -0.419043  -0.631213  0  2.197302  0
O  O50  1  0.25234645  0.04202272  0.04944876  1  0  -0.690587  0  1.431092  0  0  -0.705841  0  1.70016  0  0  -0.736298  0  1.699314  0  0  -0.571284  -0.685269  0  1.70166  0
O  O51  1  0.74764524  0.95797209  0.95054855  1  0  -0.690642  0  1.431187  0  0  -0.705868  0  1.700245  0  0  -0.736346  0  1.699431  0  0  -0.571336  -0.685279  0  1.701804  0
O  O52  1  0.58452112  0.12441385  0.25105739  1  0  -0.422759  0  1.835658  0  0  -0.414173  0  2.103631  0  0  -0.431388  0  2.106243  0  0  -0.378613  -0.401171  0  2.101005  0
O  O53  1  0.41548201  0.87559076  0.74894372  1  0  -0.422727  0  1.835542  0  0  -0.414151  0  2.103537  0  0  -0.431365  0  2.106147  0  0  -0.378648  -0.401145  0  2.10092  0
O  O54  1  0.29118209  0.27020159  0.32421807  1  0  -0.453035  0  1.873523  0  0  -0.446496  0  2.149991  0  0  -0.464712  0  2.154097  0  0  -0.39604  -0.432877  0  2.14666  0
O  O55  1  0.70881904  0.72980180  0.67578257  1  0  -0.453037  0  1.873645  0  0  -0.446495  0  2.150123  0  0  -0.46471  0  2.154225  0  0  -0.396054  -0.432868  0  2.1468  0
O  O56  1  0.55171627  0.79310740  0.33987081  1  0  -0.851021  0  1.833674  0  0  -0.804724  0  2.001483  0  0  -0.824076  0  1.971438  0  0  -0.626371  -0.79114  0  2.022478  0
O  O57  1  0.44828689  0.20689354  0.66012800  1  0  -0.851008  0  1.83369  0  0  -0.804689  0  2.001507  0  0  -0.82405  0  1.971449  0  0  -0.626325  -0.791083  0  2.022551  0
