# generated using pymatgen
data_ErH14C24(NO3)2
_symmetry_space_group_name_H-M   'P 1'
_cell_length_a   9.93847735
_cell_length_b   11.06067897
_cell_length_c   12.83443833
_cell_angle_alpha   98.16784951
_cell_angle_beta   107.83344115
_cell_angle_gamma   111.13639212
_symmetry_Int_Tables_number   1
_chemical_formula_structural   ErH14C24(NO3)2
_chemical_formula_sum   'Er2 H28 C48 N4 O12'
_cell_volume   1200.97600182
_cell_formula_units_Z   2
loop_
 _symmetry_equiv_pos_site_id
 _symmetry_equiv_pos_as_xyz
  1  'x, y, z'
loop_
 _atom_site_type_symbol
 _atom_site_label
 _atom_site_symmetry_multiplicity
 _atom_site_fract_x
 _atom_site_fract_y
 _atom_site_fract_z
 _atom_site_occupancy
 _atom_site_hle17_bader_spin_density
 _atom_site_hle17_ddec_charge
 _atom_site_hle17_ddec_spin_density
 _atom_site_hle17_ddec_sum_bond_order
 _atom_site_hle17_magmom
 _atom_site_hse06_10hf_bader_spin_density
 _atom_site_hse06_10hf_ddec_charge
 _atom_site_hse06_10hf_ddec_spin_density
 _atom_site_hse06_10hf_ddec_sum_bond_order
 _atom_site_hse06_10hf_magmom
 _atom_site_hse06_bader_spin_density
 _atom_site_hse06_ddec_charge
 _atom_site_hse06_ddec_spin_density
 _atom_site_hse06_ddec_sum_bond_order
 _atom_site_hse06_magmom
 _atom_site_pbe_bader_spin_density
 _atom_site_pbe_cm5_charge
 _atom_site_pbe_ddec_charge
 _atom_site_pbe_ddec_spin_density
 _atom_site_pbe_ddec_sum_bond_order
 _atom_site_pbe_magmom
Er  Er0  1  0.15700386  0.70408941  0.19816976  1  0  2.136752  0  1.741892  0  0  1.967892  0  2.252332  0  0  2.02297  0  2.20682  0  0  1.544482  1.926797  0  2.287659  0
Er  Er1  1  0.84298601  0.29590880  0.80182829  1  0  2.13673  0  1.742018  0  0  1.967817  0  2.252483  0  0  2.022973  0  2.206966  0  0  1.544552  1.926763  0  2.287815  0
H  H2  1  0.74004974  0.62295309  0.17777339  1  0  0.107794  0  0.951105  0  0  0.116066  0  1.012031  0  0  0.119781  0  1.009656  0  0  0.109025  0.113234  0  1.013929  0
H  H3  1  0.25992756  0.37703811  0.82221045  1  0  0.107752  0  0.951224  0  0  0.11605  0  1.012126  0  0  0.119761  0  1.009754  0  0  0.109002  0.113205  0  1.01404  0
H  H4  1  0.50869212  0.35662270  0.83603307  1  0  0.113038  0  0.952507  0  0  0.120366  0  1.01485  0  0  0.124306  0  1.012264  0  0  0.1092  0.117495  0  1.01673  0
H  H5  1  0.49128253  0.64336118  0.16395928  1  0  0.113041  0  0.952243  0  0  0.120385  0  1.014602  0  0  0.124317  0  1.012026  0  0  0.109178  0.117515  0  1.01648  0
H  H6  1  0.82647110  0.90756865  0.29379109  1  0  0.103413  0  0.941408  0  0  0.115113  0  0.997579  0  0  0.118656  0  0.995618  0  0  0.108624  0.112632  0  0.998923  0
H  H7  1  0.17353539  0.09244066  0.70622271  1  0  0.103452  0  0.941426  0  0  0.115084  0  0.997701  0  0  0.118623  0  0.995733  0  0  0.108626  0.112613  0  0.99903  0
H  H8  1  0.23292042  0.95258135  0.57126128  1  0  0.101113  0  0.960145  0  0  0.110216  0  1.022915  0  0  0.113506  0  1.021271  0  0  0.104665  0.107854  0  1.024172  0
H  H9  1  0.76708634  0.04743713  0.42874756  1  0  0.10118  0  0.960005  0  0  0.110261  0  1.022803  0  0  0.113548  0  1.021159  0  0  0.104676  0.107897  0  1.024062  0
H  H10  1  0.20958179  0.40154906  0.42713680  1  0  0.108401  0  0.935345  0  0  0.119517  0  0.990565  0  0  0.123549  0  0.987802  0  0  0.109754  0.116546  0  0.992729  0
H  H11  1  0.79041633  0.59846019  0.57287022  1  0  0.108398  0  0.935225  0  0  0.119464  0  0.990508  0  0  0.12351  0  0.987724  0  0  0.109701  0.116488  0  0.992684  0
H  H12  1  0.64200740  0.68893434  0.43342952  1  0  0.104156  0  0.943736  0  0  0.113071  0  1.004237  0  0  0.116432  0  1.002899  0  0  0.103911  0.110478  0  1.005536  0
H  H13  1  0.35798275  0.31107165  0.56657897  1  0  0.104125  0  0.943621  0  0  0.113057  0  1.004116  0  0  0.116417  0  1.002781  0  0  0.103888  0.110458  0  1.005418  0
H  H14  1  0.95564343  0.62262380  0.91116831  1  0  0.08525  0  0.966167  0  0  0.087858  0  1.03794  0  0  0.090937  0  1.034413  0  0  0.125619  0.085365  0  1.041011  0
H  H15  1  0.04434294  0.37737554  0.08882122  1  0  0.085264  0  0.966231  0  0  0.087896  0  1.037968  0  0  0.090976  0  1.034438  0  0  0.125611  0.085398  0  1.041048  0
H  H16  1  0.88928332  0.72585504  0.75579414  1  0  0.108111  0  0.963744  0  0  0.116635  0  1.025103  0  0  0.119441  0  1.024673  0  0  0.107483  0.114548  0  1.025688  0
H  H17  1  0.11072183  0.27415477  0.24419835  1  0  0.108086  0  0.963787  0  0  0.116612  0  1.025155  0  0  0.119399  0  1.024732  0  0  0.107472  0.11452  0  1.025739  0
H  H18  1  0.01914353  0.98145354  0.79823916  1  0  0.11024  0  0.967408  0  0  0.119525  0  1.030579  0  0  0.122659  0  1.028355  0  0  0.108557  0.117171  0  1.032211  0
H  H19  1  0.98087355  0.01855733  0.20176424  1  0  0.110295  0  0.96735  0  0  0.119572  0  1.030535  0  0  0.122727  0  1.028282  0  0  0.108562  0.117221  0  1.032164  0
H  H20  1  0.21195793  0.20289551  0.93872987  1  0  0.11104  0  0.961927  0  0  0.120252  0  1.026117  0  0  0.1227  0  1.025688  0  0  0.107064  0.118184  0  1.027061  0
H  H21  1  0.78805722  0.79710923  0.06127537  1  0  0.111034  0  0.961922  0  0  0.120251  0  1.026116  0  0  0.122703  0  1.025683  0  0  0.107074  0.118181  0  1.02706  0
H  H22  1  0.41282686  0.33476542  0.13357840  1  0  0.094687  0  0.968566  0  0  0.105156  0  1.031081  0  0  0.106595  0  1.032887  0  0  0.100794  0.103991  0  1.03013  0
H  H23  1  0.58718891  0.66523420  0.86643177  1  0  0.094633  0  0.968687  0  0  0.105163  0  1.031124  0  0  0.106626  0  1.032901  0  0  0.100808  0.103998  0  1.030173  0
H  H24  1  0.56632401  0.33812663  0.33221570  1  0  0.09931  0  0.936758  0  0  0.111934  0  0.992741  0  0  0.114003  0  0.992301  0  0  0.110927  0.110527  0  0.992866  0
H  H25  1  0.43368555  0.66185984  0.66779119  1  0  0.099282  0  0.936935  0  0  0.111944  0  0.992868  0  0  0.114028  0  0.992412  0  0  0.110934  0.110539  0  0.992984  0
H  H26  1  0.62863006  0.20475646  0.46880668  1  0  0.128935  0  0.962755  0  0  0.136406  0  1.023965  0  0  0.140126  0  1.02234  0  0  0.112803  0.133642  0  1.025416  0
H  H27  1  0.37136814  0.79522381  0.53119499  1  0  0.12882  0  0.962908  0  0  0.136374  0  1.024034  0  0  0.140094  0  1.022401  0  0  0.112826  0.133604  0  1.025481  0
H  H28  1  0.47638277  0.95303069  0.40459747  1  0  0.085253  0  0.946661  0  0  0.091879  0  1.0149  0  0  0.094436  0  1.012186  0  0  0.123605  0.090075  0  1.016699  0
H  H29  1  0.52361592  0.04694785  0.59539396  1  0  0.085195  0  0.946672  0  0  0.09185  0  1.014876  0  0  0.094396  0  1.012182  0  0  0.123565  0.090042  0  1.016672  0
C  C30  1  0.78680609  0.47933297  0.01472457  1  0  0.74081  0  3.837588  0  0  0.696672  0  4.119643  0  0  0.732776  0  4.107234  0  0  0.246186  0.671695  0  4.127934  0
C  C31  1  0.21317528  0.52066026  0.98526289  1  0  0.740955  0  3.837904  0  0  0.696834  0  4.119894  0  0  0.732873  0  4.107556  0  0  0.246226  0.671842  0  4.128187  0
C  C32  1  0.63778635  0.48804200  0.00822812  1  0  -0.064066  0  3.727082  0  0  -0.043274  0  3.955834  0  0  -0.049612  0  3.977066  0  0  -0.010499  -0.03898  0  3.941618  0
C  C33  1  0.36219527  0.51194517  0.99176095  1  0  -0.06407  0  3.727496  0  0  -0.043161  0  3.956062  0  0  -0.049491  0  3.977303  0  0  -0.010424  -0.038861  0  3.941834  0
C  C34  1  0.63377195  0.56893498  0.10082073  1  0  -0.073749  0  3.733555  0  0  -0.096211  0  3.984228  0  0  -0.096673  0  4.002841  0  0  -0.080462  -0.095712  0  3.971877  0
C  C35  1  0.36621231  0.43106017  0.89917317  1  0  -0.073674  0  3.733874  0  0  -0.096224  0  3.984552  0  0  -0.096675  0  4.003158  0  0  -0.080424  -0.095717  0  3.97221  0
C  C36  1  0.50326432  0.41882746  0.90724319  1  0  -0.074448  0  3.718591  0  0  -0.096258  0  3.966659  0  0  -0.097028  0  3.985638  0  0  -0.079458  -0.095632  0  3.953961  0
C  C37  1  0.49671039  0.58115372  0.09273713  1  0  -0.074464  0  3.718735  0  0  -0.096341  0  3.966777  0  0  -0.097099  0  3.985752  0  0  -0.079443  -0.095707  0  3.954065  0
C  C38  1  0.07327941  0.84290905  0.34400654  1  0  0.627389  0  3.94853  0  0  0.585651  0  4.235697  0  0  0.619569  0  4.227268  0  0  0.189391  0.562804  0  4.240154  0
C  C39  1  0.92673637  0.15710372  0.65599990  1  0  0.627337  0  3.947686  0  0  0.585586  0  4.234792  0  0  0.619522  0  4.226363  0  0  0.18941  0.562759  0  4.23924  0
C  C40  1  0.03409095  0.92252815  0.42451275  1  0  -0.045567  0  3.746078  0  0  -0.023053  0  3.974204  0  0  -0.029312  0  3.996361  0  0  -0.013569  -0.018983  0  3.959152  0
C  C41  1  0.96591468  0.07749027  0.57549736  1  0  -0.045697  0  3.746526  0  0  -0.023008  0  3.974392  0  0  -0.029265  0  3.99654  0  0  -0.01353  -0.018965  0  3.959371  0
C  C42  1  0.90239416  0.94890333  0.38413684  1  0  -0.077455  0  3.734953  0  0  -0.099342  0  3.982344  0  0  -0.100436  0  4.00204  0  0  -0.081688  -0.098404  0  3.968734  0
C  C43  1  0.09761088  0.05110709  0.61587128  1  0  -0.077537  0  3.735242  0  0  -0.099436  0  3.982618  0  0  -0.100504  0  4.002287  0  0  -0.081802  -0.098493  0  3.969018  0
C  C44  1  0.13120359  0.97383877  0.54094546  1  0  -0.066482  0  3.722291  0  0  -0.088596  0  3.967469  0  0  -0.089204  0  3.987024  0  0  -0.079717  -0.088022  0  3.954201  0
C  C45  1  0.86880799  0.02617671  0.45906809  1  0  -0.06656  0  3.722279  0  0  -0.08872  0  3.967436  0  0  -0.089309  0  3.986991  0  0  -0.079797  -0.088126  0  3.954164  0
C  C46  1  0.32752986  0.60197156  0.33798966  1  0  0.633458  0  3.92749  0  0  0.591287  0  4.215305  0  0  0.625219  0  4.207238  0  0  0.189315  0.56827  0  4.220006  0
C  C47  1  0.67246678  0.39802980  0.66201050  1  0  0.633406  0  3.927622  0  0  0.591216  0  4.215431  0  0  0.625187  0  4.207344  0  0  0.189233  0.568202  0  4.220151  0
C  C48  1  0.41703997  0.54903016  0.42102895  1  0  -0.046602  0  3.738824  0  0  -0.026659  0  3.974434  0  0  -0.032784  0  3.996717  0  0  -0.013384  -0.022666  0  3.959378  0
C  C49  1  0.58295417  0.45097505  0.57897498  1  0  -0.046597  0  3.739066  0  0  -0.026578  0  3.974545  0  0  -0.032738  0  3.996876  0  0  -0.013356  -0.022582  0  3.959492  0
C  C50  1  0.33682336  0.44309168  0.45897610  1  0  -0.083411  0  3.732787  0  0  -0.106321  0  3.984323  0  0  -0.107095  0  4.003343  0  0  -0.082638  -0.105616  0  3.971391  0
C  C51  1  0.66316546  0.55690927  0.54103140  1  0  -0.083419  0  3.732847  0  0  -0.106284  0  3.984345  0  0  -0.107063  0  4.003372  0  0  -0.082592  -0.105575  0  3.971417  0
C  C52  1  0.58100329  0.60599285  0.46281626  1  0  -0.073171  0  3.7324  0  0  -0.095563  0  3.983158  0  0  -0.096651  0  4.003427  0  0  -0.079116  -0.094708  0  3.9695  0
C  C53  1  0.41899532  0.39401950  0.53718817  1  0  -0.073177  0  3.732441  0  0  -0.095573  0  3.983191  0  0  -0.096656  0  4.003474  0  0  -0.079129  -0.094717  0  3.969536  0
C  C54  1  0.01159051  0.73192029  0.92800061  1  0  0.175907  0  3.666307  0  0  0.146553  0  3.921723  0  0  0.155703  0  3.936355  0  0  0.068768  0.140737  0  3.911658  0
C  C55  1  0.98841064  0.26808340  0.07199163  1  0  0.175784  0  3.666332  0  0  0.14641  0  3.921736  0  0  0.155566  0  3.936362  0  0  0.068739  0.140614  0  3.911669  0
C  C56  1  0.97514725  0.79133890  0.83970539  1  0  -0.109696  0  3.719163  0  0  -0.120376  0  3.968674  0  0  -0.127236  0  3.989807  0  0  -0.080312  -0.115997  0  3.954476  0
C  C57  1  0.02486443  0.20866699  0.16029056  1  0  -0.109485  0  3.719016  0  0  -0.120152  0  3.968488  0  0  -0.126986  0  3.989625  0  0  -0.080255  -0.115768  0  3.954287  0
C  C58  1  0.04727600  0.93002650  0.86251647  1  0  -0.048219  0  3.676141  0  0  -0.073753  0  3.922957  0  0  -0.071683  0  3.941062  0  0  -0.063606  -0.074689  0  3.910612  0
C  C59  1  0.95273832  0.06997839  0.13748234  1  0  -0.048401  0  3.676052  0  0  -0.073913  0  3.922877  0  0  -0.071871  0  3.940995  0  0  -0.063653  -0.074855  0  3.910537  0
C  C60  1  0.15970121  0.00868625  0.97329137  1  0  0.025667  0  3.78288  0  0  0.042785  0  4.013789  0  0  0.040297  0  4.037966  0  0  -0.002482  0.044147  0  3.997546  0
C  C61  1  0.84031261  0.99131760  0.02670796  1  0  0.025768  0  3.782918  0  0  0.042804  0  4.013967  0  0  0.040314  0  4.038156  0  0  -0.002352  0.044185  0  3.997696  0
C  C62  1  0.24137381  0.15274113  0.00356761  1  0  -0.091905  0  3.727047  0  0  -0.116825  0  3.981845  0  0  -0.119617  0  4.005384  0  0  -0.081152  -0.114853  0  3.966355  0
C  C63  1  0.75863983  0.84726260  0.99643633  1  0  -0.091953  0  3.727114  0  0  -0.116852  0  3.981967  0  0  -0.119648  0  4.005503  0  0  -0.081209  -0.114876  0  3.966455  0
C  C64  1  0.35114694  0.22494892  0.11099479  1  0  -0.106346  0  3.75227  0  0  -0.127673  0  4.004929  0  0  -0.131762  0  4.029774  0  0  -0.087877  -0.124685  0  3.988343  0
C  C65  1  0.64886518  0.77505172  0.88901070  1  0  -0.106322  0  3.752499  0  0  -0.127684  0  4.005145  0  0  -0.131784  0  4.029969  0  0  -0.087896  -0.124692  0  3.988551  0
C  C66  1  0.38858925  0.15852807  0.19613137  1  0  0.02813  0  3.789012  0  0  0.045098  0  4.01686  0  0  0.04267  0  4.040905  0  0  0.001324  0.046426  0  4.000774  0
C  C67  1  0.61142164  0.84146760  0.80387082  1  0  0.028214  0  3.789078  0  0  0.045121  0  4.016988  0  0  0.042698  0  4.041036  0  0  0.001319  0.046439  0  4.000915  0
C  C68  1  0.50412253  0.22805875  0.30743722  1  0  -0.037466  0  3.6831  0  0  -0.059017  0  3.924141  0  0  -0.056585  0  3.943406  0  0  -0.058472  -0.060338  0  3.910868  0
C  C69  1  0.49588967  0.77193088  0.69256685  1  0  -0.03751  0  3.683165  0  0  -0.059101  0  3.924266  0  0  -0.05669  0  3.943535  0  0  -0.058512  -0.06042  0  3.910984  0
C  C70  1  0.53763138  0.15587206  0.38332346  1  0  -0.121924  0  3.711955  0  0  -0.135478  0  3.965941  0  0  -0.14323  0  3.987228  0  0  -0.081363  -0.130504  0  3.951786  0
C  C71  1  0.46237239  0.84410849  0.61667340  1  0  -0.121694  0  3.71183  0  0  -0.135351  0  3.965828  0  0  -0.143094  0  3.987107  0  0  -0.081325  -0.130365  0  3.951655  0
C  C72  1  0.45304719  0.01438331  0.34817522  1  0  0.159907  0  3.696466  0  0  0.130173  0  3.953912  0  0  0.138687  0  3.969807  0  0  0.061899  0.124761  0  3.942677  0
C  C73  1  0.54695339  0.98559926  0.65181799  1  0  0.159912  0  3.696392  0  0  0.130191  0  3.953817  0  0  0.138706  0  3.969714  0  0  0.06193  0.124796  0  3.94257  0
C  C74  1  0.30813581  0.01558233  0.16893923  1  0  0.147332  0  3.751447  0  0  0.143519  0  3.987558  0  0  0.148355  0  4.007952  0  0  0.121798  0.140325  0  3.973619  0
C  C75  1  0.69186637  0.98440821  0.83105777  1  0  0.147313  0  3.751247  0  0  0.143564  0  3.987326  0  0  0.148402  0  4.007731  0  0  0.121746  0.140374  0  3.973394  0
C  C76  1  0.19031568  0.93987509  0.05651390  1  0  0.147363  0  3.75531  0  0  0.14238  0  3.993056  0  0  0.1468  0  4.013507  0  0  0.123003  0.139525  0  3.979035  0
C  C77  1  0.80969088  0.06012253  0.94348591  1  0  0.147363  0  3.755377  0  0  0.142355  0  3.993203  0  0  0.146776  0  4.013661  0  0  0.123003  0.139492  0  3.979193  0
N  N78  1  0.11397794  0.80342481  0.03389825  1  0  -0.44331  0  3.249301  0  0  -0.390983  0  3.515922  0  0  -0.407332  0  3.534081  0  0  -0.382884  -0.379564  0  3.503088  0
N  N79  1  0.88601868  0.19657170  0.96609503  1  0  -0.443328  0  3.24938  0  0  -0.390983  0  3.51603  0  0  -0.407351  0  3.534194  0  0  -0.382908  -0.379589  0  3.503224  0
N  N80  1  0.34030967  0.94578275  0.24494901  1  0  -0.448017  0  3.260534  0  0  -0.393917  0  3.523048  0  0  -0.410338  0  3.541523  0  0  -0.387718  -0.382516  0  3.510006  0
N  N81  1  0.65968936  0.05420776  0.75504564  1  0  -0.448058  0  3.260357  0  0  -0.393961  0  3.522877  0  0  -0.410403  0  3.541372  0  0  -0.387699  -0.382572  0  3.509839  0
O  O82  1  0.90954260  0.55027196  0.10417395  1  0  -0.742822  0  2.055466  0  0  -0.687806  0  2.315053  0  0  -0.713759  0  2.302097  0  0  -0.412883  -0.669229  0  2.324034  0
O  O83  1  0.09044158  0.44972938  0.89581373  1  0  -0.742841  0  2.055798  0  0  -0.68782  0  2.315369  0  0  -0.713797  0  2.302444  0  0  -0.412922  -0.66925  0  2.324346  0
O  O84  1  0.78280062  0.40322843  0.92899465  1  0  -0.752048  0  2.119626  0  0  -0.699404  0  2.385778  0  0  -0.725808  0  2.374111  0  0  -0.410099  -0.680682  0  2.39428  0
O  O85  1  0.21718597  0.59676275  0.07100009  1  0  -0.752087  0  2.119661  0  0  -0.699482  0  2.385784  0  0  -0.725806  0  2.374133  0  0  -0.410058  -0.680749  0  2.394297  0
O  O86  1  0.01269537  0.82796507  0.23675163  1  0  -0.695632  0  2.004187  0  0  -0.653942  0  2.253254  0  0  -0.678622  0  2.245656  0  0  -0.371844  -0.636251  0  2.257921  0
O  O87  1  0.98728956  0.17202360  0.76326107  1  0  -0.695525  0  2.003772  0  0  -0.653841  0  2.252798  0  0  -0.678523  0  2.245192  0  0  -0.371861  -0.636166  0  2.257459  0
O  O88  1  0.16880592  0.79219405  0.38263681  1  0  -0.697125  0  1.989262  0  0  -0.648714  0  2.223398  0  0  -0.673839  0  2.215462  0  0  -0.381447  -0.630726  0  2.228029  0
O  O89  1  0.83123219  0.20785438  0.61737290  1  0  -0.697197  0  1.988712  0  0  -0.648752  0  2.222822  0  0  -0.673881  0  2.214889  0  0  -0.381535  -0.630774  0  2.227458  0
O  O90  1  0.17937442  0.53393422  0.28540901  1  0  -0.684913  0  1.957714  0  0  -0.636882  0  2.189071  0  0  -0.661132  0  2.17984  0  0  -0.381755  -0.619818  0  2.194851  0
O  O91  1  0.82061300  0.46606580  0.71459411  1  0  -0.684725  0  1.95792  0  0  -0.636709  0  2.189264  0  0  -0.660989  0  2.180026  0  0  -0.381639  -0.619657  0  2.195062  0
O  O92  1  0.39944109  0.71501772  0.32159874  1  0  -0.698978  0  1.964319  0  0  -0.655885  0  2.206876  0  0  -0.680393  0  2.197496  0  0  -0.383729  -0.638599  0  2.212687  0
O  O93  1  0.60055107  0.28497374  0.67839119  1  0  -0.699122  0  1.964253  0  0  -0.656009  0  2.206832  0  0  -0.680559  0  2.197453  0  0  -0.383805  -0.638724  0  2.212651  0
