# generated using pymatgen
data_ZnH18C28(NO3)4
_symmetry_space_group_name_H-M   'P 1'
_cell_length_a   9.84322893
_cell_length_b   12.30796339
_cell_length_c   12.81000000
_cell_angle_alpha   114.65569749
_cell_angle_beta   95.46201020
_cell_angle_gamma   107.37581041
_symmetry_Int_Tables_number   1
_chemical_formula_structural   ZnH18C28(NO3)4
_chemical_formula_sum   'Zn2 H36 C56 N8 O24'
_cell_volume   1302.15596003
_cell_formula_units_Z   2
loop_
 _symmetry_equiv_pos_site_id
 _symmetry_equiv_pos_as_xyz
  1  'x, y, z'
loop_
 _atom_site_type_symbol
 _atom_site_label
 _atom_site_symmetry_multiplicity
 _atom_site_fract_x
 _atom_site_fract_y
 _atom_site_fract_z
 _atom_site_occupancy
 _atom_site_hle17_bader_spin_density
 _atom_site_hle17_ddec_charge
 _atom_site_hle17_ddec_spin_density
 _atom_site_hle17_ddec_sum_bond_order
 _atom_site_hle17_magmom
 _atom_site_hse06_10hf_bader_spin_density
 _atom_site_hse06_10hf_ddec_charge
 _atom_site_hse06_10hf_ddec_spin_density
 _atom_site_hse06_10hf_ddec_sum_bond_order
 _atom_site_hse06_10hf_magmom
 _atom_site_hse06_bader_spin_density
 _atom_site_hse06_ddec_charge
 _atom_site_hse06_ddec_spin_density
 _atom_site_hse06_ddec_sum_bond_order
 _atom_site_hse06_magmom
 _atom_site_pbe_bader_charge
 _atom_site_pbe_bader_spin_density
 _atom_site_pbe_cm5_charge
 _atom_site_pbe_ddec_charge
 _atom_site_pbe_ddec_spin_density
 _atom_site_pbe_ddec_sum_bond_order
 _atom_site_pbe_magmom
Zn  Zn0  1  0.64589189  0.47546047  0.59805811  1  0  1.06804  0  1.806423  0  0  0.8743  0  2.282786  0  0  0.926746  0  2.221412  0  1.3236  0  0.697115  0.837429  0  2.325231  0
Zn  Zn1  1  0.35410781  0.52453917  0.40194095  1  0  1.068002  0  1.806448  0  0  0.874274  0  2.282808  0  0  0.926718  0  2.221431  0  1.323635  0  0.697095  0.837402  0  2.325252  0
H  H2  1  0.56299765  0.16562411  0.66841140  1  0  0.404933  0  0.869912  0  0  0.375933  0  0.943299  0  0  0.388743  0  0.929723  0  0.65344  0  0.310714  0.367374  0  0.952403  0
H  H3  1  0.43700246  0.83437649  0.33158885  1  0  0.404921  0  0.869939  0  0  0.375916  0  0.94333  0  0  0.388726  0  0.929755  0  0.653433  0  0.310706  0.367355  0  0.952439  0
H  H4  1  0.50862851  0.31757000  0.81855797  1  0  0.405276  0  0.888627  0  0  0.376056  0  0.960807  0  0  0.389109  0  0.945171  0  0.660871  0  0.308563  0.367669  0  0.969738  0
H  H5  1  0.49137202  0.68243157  0.18144192  1  0  0.405266  0  0.88865  0  0  0.376031  0  0.960848  0  0  0.389085  0  0.945207  0  0.660868  0  0.308559  0.367645  0  0.969779  0
H  H6  1  0.19928042  0.35633364  0.00084062  1  0  0.126482  0  0.930162  0  0  0.13295  0  0.992012  0  0  0.137004  0  0.989215  0  0.140548  0  0.118155  0.13004  0  0.994053  0
H  H7  1  0.80071806  0.64366792  0.99915990  1  0  0.126459  0  0.93016  0  0  0.132933  0  0.992042  0  0  0.136988  0  0.989244  0  0.140531  0  0.118153  0.130023  0  0.994083  0
H  H8  1  0.33165733  0.49841849  0.91983401  1  0  0.106935  0  0.935837  0  0  0.118524  0  0.989829  0  0  0.121958  0  0.987336  0  0.08965  0  0.111331  0.116227  0  0.99111  0
H  H9  1  0.66834074  0.50158212  0.08016531  1  0  0.10695  0  0.935811  0  0  0.118584  0  0.989755  0  0  0.122019  0  0.98726  0  0.089591  0  0.111329  0.116279  0  0.991041  0
H  H10  1  0.18375282  0.54670098  0.78503205  1  0  0.104095  0  0.94943  0  0  0.111053  0  1.017396  0  0  0.114416  0  1.015568  0  0.100847  0  0.108673  0.108527  0  1.018927  0
H  H11  1  0.81624688  0.45329866  0.21496778  1  0  0.104094  0  0.949426  0  0  0.111058  0  1.017384  0  0  0.114422  0  1.015553  0  0.10086  0  0.108667  0.108531  0  1.018915  0
H  H12  1  0.82591491  0.05804136  0.59439569  1  0  0.128291  0  0.942674  0  0  0.131843  0  1.010649  0  0  0.136779  0  1.00552  0  0.168212  0  0.116774  0.128384  0  1.014095  0
H  H13  1  0.17408520  0.94195924  0.40560378  1  0  0.128291  0  0.942664  0  0  0.131841  0  1.010647  0  0  0.136778  0  1.005515  0  0.168215  0  0.116774  0.128381  0  1.014094  0
H  H14  1  0.80253762  0.16363552  0.46854513  1  0  0.112573  0  0.935439  0  0  0.120413  0  0.995196  0  0  0.12356  0  0.99508  0  0.126644  0  0.110901  0.118191  0  0.995427  0
H  H15  1  0.19746291  0.83636605  0.53145632  1  0  0.112567  0  0.935397  0  0  0.120407  0  0.99516  0  0  0.123553  0  0.995044  0  0.126673  0  0.110893  0.118182  0  0.995399  0
H  H16  1  0.03191320  0.30581097  0.44966590  1  0  0.124918  0  0.930211  0  0  0.132951  0  0.990845  0  0  0.136684  0  0.98794  0  0.129187  0  0.118513  0.130202  0  0.992978  0
H  H17  1  0.96808589  0.69418964  0.55033427  1  0  0.124955  0  0.930198  0  0  0.132985  0  0.990838  0  0  0.136718  0  0.987933  0  0.129186  0  0.118534  0.130237  0  0.99297  0
H  H18  1  0.81525049  0.40819522  0.39478631  1  0  0.094278  0  0.947261  0  0  0.102423  0  1.0119  0  0  0.105228  0  1.009142  0  0.134129  0  0.117715  0.100348  0  1.013924  0
H  H19  1  0.18475084  0.59180345  0.60521326  1  0  0.094294  0  0.94723  0  0  0.102445  0  1.011867  0  0  0.105247  0  1.009106  0  0.13422  0  0.117724  0.100369  0  1.013892  0
H  H20  1  0.77166204  0.22890735  0.19667208  1  0  0.1123  0  0.954693  0  0  0.121594  0  1.017039  0  0  0.125006  0  1.015599  0  0.082345  0  0.1074  0.119152  0  1.018195  0
H  H21  1  0.22833868  0.77109229  0.80332783  1  0  0.11232  0  0.954643  0  0  0.12161  0  1.016992  0  0  0.125022  0  1.015553  0  0.082329  0  0.107405  0.119168  0  1.018149  0
H  H22  1  0.39866275  0.00366006  0.26897451  1  0  0.116256  0  0.964198  0  0  0.12402  0  1.028002  0  0  0.127225  0  1.02703  0  0.111448  0  0.107212  0.121729  0  1.028813  0
H  H23  1  0.60133838  0.99634055  0.73102582  1  0  0.116257  0  0.964197  0  0  0.124029  0  1.027989  0  0  0.127235  0  1.027017  0  0.11144  0  0.107207  0.121737  0  1.028801  0
H  H24  1  0.46186703  0.19121560  0.46734624  1  0  0.084363  0  0.971143  0  0  0.093113  0  1.032894  0  0  0.095478  0  1.031018  0  0.124929  0  0.113108  0.091396  0  1.034304  0
H  H25  1  0.53813267  0.80878404  0.53265281  1  0  0.084387  0  0.97111  0  0  0.093111  0  1.032891  0  0  0.095474  0  1.031014  0  0.124922  0  0.113106  0.091394  0  1.0343  0
H  H26  1  0.46465497  0.90331513  0.08577231  1  0  0.08275  0  0.943948  0  0  0.09454  0  1.003143  0  0  0.096357  0  1.001989  0  0.080268  0  0.105249  0.093352  0  1.003835  0
H  H27  1  0.53534534  0.09668355  0.91422718  1  0  0.082746  0  0.943979  0  0  0.094552  0  1.003142  0  0  0.096367  0  1.00199  0  0.080307  0  0.105261  0.093362  0  1.003834  0
H  H28  1  0.70991195  0.07279052  0.02762609  1  0  0.076053  0  0.963978  0  0  0.08038  0  1.035933  0  0  0.083331  0  1.032815  0  0.097855  0  0.100299  0.078302  0  1.038052  0
H  H29  1  0.29008918  0.92721009  0.97237423  1  0  0.076105  0  0.96392  0  0  0.080392  0  1.035932  0  0  0.083343  0  1.032816  0  0.097867  0  0.1003  0.078314  0  1.038052  0
H  H30  1  0.84383466  0.76674399  0.73633826  1  0  0.086414  0  0.929048  0  0  0.096132  0  0.989682  0  0  0.09849  0  0.987348  0  0.109451  0  0.11952  0.094497  0  0.99118  0
H  H31  1  0.15616647  0.23325662  0.26366051  1  0  0.086424  0  0.929053  0  0  0.096145  0  0.989679  0  0  0.098503  0  0.987344  0  0.109471  0  0.119531  0.094511  0  0.991178  0
H  H32  1  0.83152461  0.96861106  0.88785985  1  0  0.114789  0  0.959868  0  0  0.119446  0  1.028024  0  0  0.12298  0  1.02648  0  0.1083  0  0.106156  0.116896  0  1.029348  0
H  H33  1  0.16847611  0.03138858  0.11213928  1  0  0.114807  0  0.959814  0  0  0.119438  0  1.028019  0  0  0.122973  0  1.026473  0  0.108307  0  0.106166  0.116889  0  1.029342  0
H  H34  1  0.46016374  0.73297834  0.95225765  1  0  0.106538  0  0.956683  0  0  0.11836  0  1.015772  0  0  0.121115  0  1.015533  0  0.079586  0  0.106021  0.116327  0  1.01627  0
H  H35  1  0.53983800  0.26702130  0.04774311  1  0  0.106503  0  0.956712  0  0  0.118333  0  1.01579  0  0  0.121088  0  1.015552  0  0.079749  0  0.106009  0.116302  0  1.016287  0
H  H36  1  0.48987653  0.54100798  0.79873366  1  0  0.07898  0  0.963463  0  0  0.087814  0  1.027854  0  0  0.090073  0  1.026126  0  0.108227  0  0.112304  0.086151  0  1.029072  0
H  H37  1  0.51012460  0.45899262  0.20126666  1  0  0.078934  0  0.963468  0  0  0.087781  0  1.027855  0  0  0.09004  0  1.026129  0  0.108208  0  0.112301  0.08612  0  1.02907  0
C  C38  1  0.97709323  0.43111276  0.78950098  1  0  -0.061752  0  3.715657  0  0  -0.046613  0  3.94886  0  0  -0.054387  0  3.97263  0  0.109382  0  -0.007812  -0.042246  0  3.933171  0
C  C39  1  0.02290790  0.56888785  0.21050090  1  0  -0.061812  0  3.715666  0  0  -0.046664  0  3.94891  0  0  -0.054438  0  3.972677  0  0.10954  0  -0.007812  -0.0423  0  3.933225  0
C  C40  1  0.90087457  0.34759076  0.83112307  1  0  -0.084634  0  3.648965  0  0  -0.077144  0  3.889652  0  0  -0.079524  0  3.908684  0  0.030925  0  0.008161  -0.074786  0  3.876242  0
C  C41  1  0.09912411  0.65240888  0.16887747  1  0  -0.084599  0  3.649115  0  0  -0.077318  0  3.889772  0  0  -0.079689  0  3.908809  0  0.030782  0  0.008109  -0.074961  0  3.876359  0
C  C42  1  0.98661031  0.32439755  0.90783303  1  0  0.050714  0  3.701293  0  0  0.026866  0  3.965291  0  0  0.023476  0  3.989271  0  0.242458  0  0.075576  0.025066  0  3.94654  0
C  C43  1  0.01338980  0.67560306  0.09216722  1  0  0.050169  0  3.701599  0  0  0.026985  0  3.965216  0  0  0.02357  0  3.989232  0  0.24234  0  0.075614  0.025184  0  3.946452  0
C  C44  1  0.13993066  0.37786407  0.94067746  1  0  -0.065976  0  3.682425  0  0  -0.100149  0  3.956837  0  0  -0.097952  0  3.971732  0  -0.032769  0  -0.070532  -0.101631  0  3.946769  0
C  C45  1  0.86006986  0.62213749  0.05932321  1  0  -0.065738  0  3.682475  0  0  -0.10016  0  3.956874  0  0  -0.097956  0  3.971777  0  -0.03276  0  -0.070524  -0.101644  0  3.946804  0
C  C46  1  0.21239469  0.45753033  0.89589105  1  0  -0.024019  0  3.734017  0  0  -0.04523  0  4.006728  0  0  -0.046007  0  4.022494  0  0.029137  0  -0.078383  -0.043946  0  3.994015  0
C  C47  1  0.78760440  0.54247027  0.10410913  1  0  -0.024017  0  3.733882  0  0  -0.045255  0  4.006661  0  0  -0.046032  0  4.022426  0  0.029107  0  -0.07836  -0.043963  0  3.993938  0
C  C48  1  0.13101205  0.48387272  0.82123089  1  0  -0.046158  0  3.690008  0  0  -0.080091  0  3.954479  0  0  -0.079455  0  3.973976  0  -0.116762  0  -0.072258  -0.080147  0  3.94084  0
C  C49  1  0.86898704  0.51612788  0.17877007  1  0  -0.046182  0  3.689909  0  0  -0.080122  0  3.954405  0  0  -0.079486  0  3.973899  0  -0.116689  0  -0.07229  -0.080177  0  3.940765  0
C  C50  1  0.89572353  0.46786949  0.71200350  1  0  0.630543  0  3.959738  0  0  0.579261  0  4.260157  0  0  0.612893  0  4.254533  0  1.59772  0  0.194922  0.556534  0  4.263146  0
C  C51  1  0.10427372  0.53212919  0.28799576  1  0  0.630585  0  3.959647  0  0  0.579332  0  4.260038  0  0  0.612966  0  4.25441  0  1.597689  0  0.194958  0.556606  0  4.263029  0
C  C52  1  0.73413085  0.29129027  0.79672418  1  0  0.715264  0  3.780787  0  0  0.647101  0  4.105722  0  0  0.685128  0  4.089263  0  1.59706  0  0.246965  0.621358  0  4.115503  0
C  C53  1  0.26586926  0.70871034  0.20327607  1  0  0.715415  0  3.780699  0  0  0.647235  0  4.105697  0  0  0.685264  0  4.089235  0  1.597069  0  0.247011  0.621493  0  4.115478  0
C  C54  1  0.17801700  0.27206364  0.55693647  1  0  -0.077059  0  3.682805  0  0  -0.062533  0  3.92117  0  0  -0.072524  0  3.944423  0  -0.00406  0  -0.008086  -0.057112  0  3.906325  0
C  C55  1  0.82198311  0.72793697  0.44306300  1  0  -0.077163  0  3.682943  0  0  -0.06263  0  3.921312  0  0  -0.072622  0  3.944565  0  -0.004073  0  -0.008119  -0.057208  0  3.906467  0
C  C56  1  0.19263913  0.21017907  0.62605256  1  0  -0.072668  0  3.652719  0  0  -0.067371  0  3.893256  0  0  -0.068226  0  3.91223  0  0.00238  0  0.011584  -0.066085  0  3.879459  0
C  C57  1  0.80735996  0.78982153  0.37394762  1  0  -0.072575  0  3.652721  0  0  -0.067277  0  3.893261  0  0  -0.068131  0  3.912235  0  0.002385  0  0.011604  -0.065988  0  3.879458  0
C  C58  1  0.06230480  0.13543370  0.63863173  1  0  0.038332  0  3.697165  0  0  0.020158  0  3.947498  0  0  0.015145  0  3.973131  0  0.179973  0  0.07578  0.023853  0  3.929586  0
C  C59  1  0.93769429  0.86456691  0.36136845  1  0  0.038248  0  3.697212  0  0  0.020086  0  3.947565  0  0  0.015072  0  3.973198  0  0.179955  0  0.075769  0.023781  0  3.929655  0
C  C60  1  0.92301636  0.11777635  0.58250840  1  0  -0.072503  0  3.710249  0  0  -0.108038  0  3.98658  0  0  -0.105456  0  4.003111  0  0.01612  0  -0.071837  -0.109025  0  3.974426  0
C  C61  1  0.07698232  0.88222329  0.41749136  1  0  -0.072453  0  3.710257  0  0  -0.108003  0  3.986599  0  0  -0.105422  0  4.00313  0  0.016166  0  -0.071826  -0.108989  0  3.974444  0
C  C62  1  0.91093458  0.17727807  0.51258790  1  0  -0.038723  0  3.698053  0  0  -0.058321  0  3.967453  0  0  -0.062257  0  3.986418  0  -0.007466  0  -0.078906  -0.056462  0  3.954909  0
C  C63  1  0.08906451  0.82272253  0.48741227  1  0  -0.038707  0  3.697985  0  0  -0.058291  0  3.967372  0  0  -0.062225  0  3.986336  0  -0.007516  0  -0.078897  -0.056433  0  3.954825  0
C  C64  1  0.03786923  0.25499526  0.50116551  1  0  -0.017471  0  3.645266  0  0  -0.051679  0  3.905225  0  0  -0.04802  0  3.922021  0  -0.023504  0  -0.05974  -0.053651  0  3.894267  0
C  C65  1  0.96213088  0.74500535  0.49883474  1  0  -0.017506  0  3.645316  0  0  -0.051722  0  3.905274  0  0  -0.048064  0  3.92207  0  -0.023497  0  -0.059755  -0.053693  0  3.894316  0
C  C66  1  0.30947530  0.36050459  0.54196715  1  0  0.675407  0  3.88751  0  0  0.617003  0  4.187144  0  0  0.652958  0  4.178848  0  1.612033  0  0.226284  0.592748  0  4.192226  0
C  C67  1  0.69052542  0.63949505  0.45803198  1  0  0.675435  0  3.887453  0  0  0.61702  0  4.187101  0  0  0.652976  0  4.178809  0  1.612027  0  0.226276  0.592763  0  4.192184  0
C  C68  1  0.34217355  0.21980974  0.67972251  1  0  0.701002  0  3.814237  0  0  0.635823  0  4.137799  0  0  0.672112  0  4.123409  0  1.628021  0  0.24282  0.611128  0  4.146954  0
C  C69  1  0.65782554  0.78019087  0.32027688  1  0  0.70105  0  3.814135  0  0  0.63584  0  4.137725  0  0  0.672129  0  4.123338  0  1.628028  0  0.242835  0.611145  0  4.146882  0
C  C70  1  0.72256509  0.31743023  0.36379895  1  0  0.128069  0  3.69461  0  0  0.0983  0  3.945142  0  0  0.105094  0  3.964559  0  0.463564  0  0.045024  0.093967  0  3.931911  0
C  C71  1  0.27743665  0.68256941  0.63620103  1  0  0.128085  0  3.694582  0  0  0.098311  0  3.945121  0  0  0.105111  0  3.964534  0  0.463478  0  0.045016  0.093979  0  3.93189  0
C  C72  1  0.69667823  0.21508550  0.25144628  1  0  -0.174557  0  3.695575  0  0  -0.191985  0  3.944266  0  0  -0.200946  0  3.966868  0  -0.012646  0  -0.085393  -0.186115  0  3.929103  0
C  C73  1  0.30332351  0.78491414  0.74855370  1  0  -0.174561  0  3.695581  0  0  -0.191999  0  3.944276  0  0  -0.200963  0  3.966874  0  -0.012607  0  -0.085387  -0.186126  0  3.929115  0
C  C74  1  0.57408964  0.10052675  0.21093628  1  0  0.141041  0  3.706077  0  0  0.150057  0  3.943821  0  0  0.155851  0  3.966135  0  -0.034653  0  0.014071  0.146275  0  3.928626  0
C  C75  1  0.42591047  0.89947385  0.78906475  1  0  0.14097  0  3.706172  0  0  0.150013  0  3.943874  0  0  0.155816  0  3.966176  0  -0.034906  0  0.014057  0.146222  0  3.92869  0
C  C76  1  0.49255115  0.09132890  0.29305789  1  0  -0.165915  0  3.700205  0  0  -0.183409  0  3.948983  0  0  -0.19178  0  3.970779  0  -0.014069  0  -0.086978  -0.177917  0  3.934494  0
C  C77  1  0.50744956  0.90867075  0.70694202  1  0  -0.165918  0  3.700104  0  0  -0.183406  0  3.948859  0  0  -0.19178  0  3.970651  0  -0.014043  0  -0.086984  -0.177912  0  3.934373  0
C  C78  1  0.52590911  0.19657700  0.40367029  1  0  0.12751  0  3.710083  0  0  0.099054  0  3.957027  0  0  0.106054  0  3.975765  0  0.45796  0  0.038723  0.094488  0  3.944459  0
C  C79  1  0.47409120  0.80342168  0.59632842  1  0  0.127525  0  3.70996  0  0  0.099084  0  3.956917  0  0  0.106085  0  3.975655  0  0.457968  0  0.038759  0.094518  0  3.944346  0
C  C80  1  0.51406514  0.99526962  0.08502519  1  0  -0.059058  0  3.512987  0  0  -0.070546  0  3.744299  0  0  -0.072156  0  3.757915  0  -0.023531  0  -0.069666  -0.069214  0  3.734683  0
C  C81  1  0.48593558  0.00473002  0.91497628  1  0  -0.05905  0  3.513015  0  0  -0.070525  0  3.744289  0  0  -0.072136  0  3.757899  0  -0.023419  0  -0.069652  -0.06919  0  3.734675  0
C  C82  1  0.60780010  0.98848448  0.99460019  1  0  -0.063748  0  3.526548  0  0  -0.074654  0  3.757645  0  0  -0.076661  0  3.771355  0  -0.004478  0  -0.073894  -0.073251  0  3.748221  0
C  C83  1  0.39220103  0.01151612  0.00540092  1  0  -0.063743  0  3.52651  0  0  -0.074646  0  3.757632  0  0  -0.076655  0  3.771347  0  -0.004478  0  -0.073877  -0.073243  0  3.748208  0
C  C84  1  0.76046811  0.76341649  0.78628018  1  0  0.151655  0  3.691718  0  0  0.120278  0  3.94258  0  0  0.128043  0  3.960564  0  0.502088  0  0.050605  0.115386  0  3.930107  0
C  C85  1  0.23953302  0.23658412  0.21372014  1  0  0.15162  0  3.691656  0  0  0.120263  0  3.942476  0  0  0.128029  0  3.960459  0  0.502118  0  0.05059  0.115373  0  3.930001  0
C  C86  1  0.75302107  0.87593169  0.87145627  1  0  -0.160877  0  3.68188  0  0  -0.179201  0  3.931959  0  0  -0.187601  0  3.953295  0  -0.009894  0  -0.082626  -0.173815  0  3.917631  0
C  C87  1  0.24698128  0.12406699  0.12854259  1  0  -0.160822  0  3.681703  0  0  -0.179136  0  3.931783  0  0  -0.187536  0  3.953119  0  -0.009892  0  -0.082597  -0.173749  0  3.917455  0
C  C88  1  0.63924804  0.86948490  0.92943687  1  0  0.139919  0  3.710042  0  0  0.149404  0  3.947433  0  0  0.155101  0  3.969795  0  0.073863  0  0.013368  0.1458  0  3.932142  0
C  C89  1  0.36075452  0.13051667  0.07056395  1  0  0.139888  0  3.710063  0  0  0.149352  0  3.947483  0  0  0.15505  0  3.969843  0  0.07388  0  0.013358  0.145748  0  3.932193  0
C  C90  1  0.54788721  0.74632690  0.90748861  1  0  -0.178281  0  3.72192  0  0  -0.196522  0  3.970849  0  0  -0.205328  0  3.994121  0  -0.115623  0  -0.0906  -0.190826  0  3.955231  0
C  C91  1  0.45211372  0.25367563  0.09251169  1  0  -0.1783  0  3.72203  0  0  -0.196536  0  3.970977  0  0  -0.20534  0  3.99425  0  -0.116166  0  -0.090636  -0.190841  0  3.955359  0
C  C92  1  0.56316574  0.63817832  0.82158323  1  0  0.122501  0  3.723464  0  0  0.094851  0  3.971465  0  0  0.101375  0  3.99127  0  0.448131  0  0.038504  0.090771  0  3.957893  0
C  C93  1  0.43683580  0.36182325  0.17841829  1  0  0.122636  0  3.723436  0  0  0.094969  0  3.971454  0  0  0.101487  0  3.991263  0  0.448475  0  0.038545  0.090889  0  3.95788  0
N  N94  1  0.91499042  0.24084953  0.95650782  1  0  0.466743  0  3.955843  0  0  0.509273  0  4.240655  0  0  0.529396  0  4.250631  0  0.327549  0  0.055378  0.509477  0  4.21277  0
N  N95  1  0.08500887  0.75914915  0.04349082  1  0  0.468028  0  3.955204  0  0  0.50932  0  4.240657  0  0  0.529445  0  4.250646  0  0.327652  0  0.055427  0.509551  0  4.212729  0
N  N96  1  0.06820178  0.07189406  0.71318632  1  0  0.4661  0  3.957982  0  0  0.519152  0  4.222826  0  0  0.539386  0  4.232849  0  0.362298  0  0.054203  0.505414  0  4.216017  0
N  N97  1  0.93180037  0.92810655  0.28681408  1  0  0.466155  0  3.957883  0  0  0.519144  0  4.222827  0  0  0.539379  0  4.23285  0  0.362712  0  0.054145  0.505406  0  4.216019  0
N  N98  1  0.63506518  0.31081089  0.43747902  1  0  -0.340778  0  3.265264  0  0  -0.263099  0  3.535396  0  0  -0.28277  0  3.55226  0  -1.253772  0  -0.324169  -0.249777  0  3.523818  0
N  N99  1  0.36493452  0.68918875  0.56252081  1  0  -0.340814  0  3.265297  0  0  -0.263138  0  3.535431  0  0  -0.282808  0  3.552292  0  -1.253797  0  -0.32419  -0.249816  0  3.523851  0
N  N100  1  0.66293363  0.64563628  0.75727944  1  0  -0.334838  0  3.257785  0  0  -0.258329  0  3.525184  0  0  -0.277629  0  3.541768  0  -1.260935  0  -0.322667  -0.245225  0  3.513732  0
N  N101  1  0.33706607  0.35436336  0.24272039  1  0  -0.33489  0  3.257767  0  0  -0.25838  0  3.525168  0  0  -0.277679  0  3.54175  0  -1.260952  0  -0.322667  -0.245276  0  3.513717  0
O  O102  1  0.96424679  0.53447830  0.66858048  1  0  -0.596318  0  1.881184  0  0  -0.554008  0  2.101697  0  0  -0.576478  0  2.0935  0  -1.167025  0  -0.319682  -0.538228  0  2.106794  0
O  O103  1  0.03575107  0.46551942  0.33141766  1  0  -0.596292  0  1.881225  0  0  -0.553964  0  2.10171  0  0  -0.576442  0  2.093521  0  -1.167063  0  -0.31967  -0.538186  0  2.106806  0
O  O104  1  0.75531539  0.42493394  0.69857622  1  0  -0.637348  0  2.115254  0  0  -0.565196  0  2.382625  0  0  -0.597074  0  2.37288  0  -1.14486  0  -0.317951  -0.542597  0  2.388249  0
O  O105  1  0.24468124  0.57506570  0.30142417  1  0  -0.637359  0  2.115118  0  0  -0.565271  0  2.382537  0  0  -0.597147  0  2.372788  0  -1.144808  0  -0.317998  -0.542671  0  2.388164  0
O  O106  1  0.67409869  0.18639400  0.69329558  1  0  -0.529596  0  2.112934  0  0  -0.479343  0  2.336595  0  0  -0.501476  0  2.321063  0  -1.171413  0  -0.314921  -0.464347  0  2.34604  0
O  O107  1  0.32590142  0.81360661  0.30670545  1  0  -0.529603  0  2.112872  0  0  -0.479368  0  2.336565  0  0  -0.5015  0  2.321032  0  -1.171423  0  -0.314943  -0.46437  0  2.346011  0
O  O108  1  0.66338232  0.34075261  0.86509771  1  0  -0.562628  0  2.047592  0  0  -0.515933  0  2.277623  0  0  -0.539712  0  2.267315  0  -1.167338  0  -0.281517  -0.501132  0  2.284251  0
O  O109  1  0.33661635  0.65924703  0.13490283  1  0  -0.562664  0  2.047651  0  0  -0.515965  0  2.277696  0  0  -0.539745  0  2.267386  0  -1.167318  0  -0.28153  -0.501165  0  2.284326  0
O  O110  1  0.78026342  0.17840491  0.91408636  1  0  -0.358048  0  1.864451  0  0  -0.3386  0  2.081517  0  0  -0.352836  0  2.079838  0  -0.475875  0  -0.11213  -0.33379  0  2.076348  0
O  O111  1  0.21973587  0.82159376  0.08591383  1  0  -0.35869  0  1.864456  0  0  -0.338623  0  2.081554  0  0  -0.352857  0  2.079876  0  -0.475846  0  -0.112153  -0.333825  0  2.076374  0
O  O112  1  0.98946188  0.23602118  0.03694686  1  0  -0.32595  0  1.752587  0  0  -0.31674  0  1.950877  0  0  -0.326733  0  1.948364  0  -0.44195  0  -0.114073  -0.314764  0  1.945962  0
O  O113  1  0.01053864  0.76398039  0.96305381  1  0  -0.326573  0  1.752509  0  0  -0.316752  0  1.950886  0  0  -0.326744  0  1.948372  0  -0.441967  0  -0.114086  -0.314786  0  1.945955  0
O  O114  1  0.28201783  0.40714357  0.47515836  1  0  -0.635033  0  2.162389  0  0  -0.571631  0  2.458243  0  0  -0.598917  0  2.440389  0  -1.185372  0  -0.303319  -0.552786  0  2.470111  0
O  O115  1  0.71798126  0.59285703  0.52484103  1  0  -0.635037  0  2.162377  0  0  -0.571632  0  2.458222  0  0  -0.598918  0  2.440367  0  -1.185352  0  -0.303308  -0.552789  0  2.470094  0
O  O116  1  0.43565610  0.38102096  0.59825860  1  0  -0.629564  0  2.145471  0  0  -0.555518  0  2.416999  0  0  -0.584036  0  2.402578  0  -1.174989  0  -0.299307  -0.53569  0  2.42624  0
O  O117  1  0.56434401  0.61897965  0.40174009  1  0  -0.629594  0  2.14548  0  0  -0.555502  0  2.41695  0  0  -0.584019  0  2.402512  0  -1.174995  0  -0.299304  -0.535677  0  2.426198  0
O  O118  1  0.39741970  0.14337362  0.62019051  1  0  -0.553279  0  1.972191  0  0  -0.505873  0  2.187168  0  0  -0.528676  0  2.17694  0  -1.158346  0  -0.277425  -0.491104  0  2.194269  0
O  O119  1  0.60258082  0.85662795  0.37981016  1  0  -0.553302  0  1.972156  0  0  -0.505875  0  2.187141  0  0  -0.528678  0  2.176916  0  -1.158373  0  -0.277431  -0.491105  0  2.194241  0
O  O120  1  0.40329110  0.31263080  0.78883788  1  0  -0.538752  0  2.126841  0  0  -0.489974  0  2.350812  0  0  -0.513158  0  2.335158  0  -1.18036  0  -0.317635  -0.474537  0  2.359023  0
O  O121  1  0.59670901  0.68736980  0.21116237  1  0  -0.538766  0  2.126824  0  0  -0.489974  0  2.350814  0  0  -0.513159  0  2.33516  0  -1.180358  0  -0.317642  -0.474537  0  2.359023  0
O  O122  1  0.18973341  0.07629056  0.75536047  1  0  -0.332089  0  1.773672  0  0  -0.324361  0  1.966522  0  0  -0.335814  0  1.964375  0  -0.457625  0  -0.11692  -0.316402  0  1.967883  0
O  O123  1  0.81026874  0.92371004  0.24463837  1  0  -0.332077  0  1.773554  0  0  -0.324318  0  1.966425  0  0  -0.335772  0  1.964282  0  -0.458031  0  -0.116894  -0.31636  0  1.967786  0
O  O124  1  0.95069942  0.01735274  0.73046840  1  0  -0.351354  0  1.761388  0  0  -0.346351  0  1.960508  0  0  -0.35872  0  1.958362  0  -0.470858  0  -0.129281  -0.337864  0  1.962066  0
O  O125  1  0.04930130  0.98264690  0.26953072  1  0  -0.351377  0  1.761429  0  0  -0.346351  0  1.960562  0  0  -0.358719  0  1.958415  0  -0.47088  0  -0.129245  -0.337863  0  1.96212  0
