# generated using pymatgen
data_CdH12C14(SN4)2
_symmetry_space_group_name_H-M   'P 1'
_cell_length_a   8.31123462
_cell_length_b   8.63829246
_cell_length_c   12.39621087
_cell_angle_alpha   110.35979216
_cell_angle_beta   97.88156961
_cell_angle_gamma   90.02402846
_symmetry_Int_Tables_number   1
_chemical_formula_structural   CdH12C14(SN4)2
_chemical_formula_sum   'Cd2 H24 C28 S4 N16'
_cell_volume   825.39132931
_cell_formula_units_Z   2
loop_
 _symmetry_equiv_pos_site_id
 _symmetry_equiv_pos_as_xyz
  1  'x, y, z'
loop_
 _atom_site_type_symbol
 _atom_site_label
 _atom_site_symmetry_multiplicity
 _atom_site_fract_x
 _atom_site_fract_y
 _atom_site_fract_z
 _atom_site_occupancy
 _atom_site_hle17_bader_spin_density
 _atom_site_hle17_ddec_charge
 _atom_site_hle17_ddec_spin_density
 _atom_site_hle17_ddec_sum_bond_order
 _atom_site_hle17_magmom
 _atom_site_hse06_10hf_bader_spin_density
 _atom_site_hse06_10hf_ddec_charge
 _atom_site_hse06_10hf_ddec_spin_density
 _atom_site_hse06_10hf_ddec_sum_bond_order
 _atom_site_hse06_10hf_magmom
 _atom_site_hse06_bader_spin_density
 _atom_site_hse06_ddec_charge
 _atom_site_hse06_ddec_spin_density
 _atom_site_hse06_ddec_sum_bond_order
 _atom_site_hse06_magmom
 _atom_site_pbe_bader_spin_density
 _atom_site_pbe_cm5_charge
 _atom_site_pbe_ddec_charge
 _atom_site_pbe_ddec_spin_density
 _atom_site_pbe_ddec_sum_bond_order
 _atom_site_pbe_magmom
Cd  Cd0  1  0.50000257  0.00000333  0.50000397  1  0  0.96397  0  2.013081  0  0  0.797586  0  2.47236  0  0  0.840426  0  2.43804  0  0  0.728256  0.767668  0  2.495498  0
Cd  Cd1  1  0.99999428  0.50000228  0.49999593  1  0  0.964314  0  2.011705  0  0  0.797887  0  2.47122  0  0  0.840711  0  2.436884  0  0  0.728053  0.767954  0  2.494402  0
H  H2  1  0.95688513  0.53261709  0.17744823  1  0  0.087187  0  0.964616  0  0  0.095807  0  1.032945  0  0  0.097929  0  1.032919  0  0  0.094291  0.094239  0  1.033175  0
H  H3  1  0.54388198  0.35509394  0.82315116  1  0  0.086957  0  0.96589  0  0  0.096146  0  1.033458  0  0  0.098325  0  1.033334  0  0  0.094438  0.094533  0  1.033773  0
H  H4  1  0.04310574  0.46738286  0.82255820  1  0  0.087234  0  0.964572  0  0  0.095827  0  1.032914  0  0  0.097948  0  1.03289  0  0  0.094317  0.094262  0  1.033143  0
H  H5  1  0.45613076  0.64490745  0.17684869  1  0  0.08697  0  0.96582  0  0  0.096124  0  1.033428  0  0  0.098304  0  1.033306  0  0  0.094452  0.094511  0  1.033741  0
H  H6  1  0.85207959  0.23839036  0.08982488  1  0  0.08796  0  0.964522  0  0  0.094416  0  1.0326  0  0  0.097159  0  1.031446  0  0  0.095782  0.092444  0  1.03355  0
H  H7  1  0.64905560  0.14877619  0.91100315  1  0  0.087459  0  0.963588  0  0  0.093904  0  1.03185  0  0  0.096667  0  1.03067  0  0  0.095853  0.09192  0  1.032815  0
H  H8  1  0.14791357  0.76160715  0.91017952  1  0  0.087971  0  0.964482  0  0  0.09435  0  1.032658  0  0  0.097094  0  1.031504  0  0  0.095726  0.092379  0  1.033609  0
H  H9  1  0.35094620  0.85122524  0.08899494  1  0  0.087506  0  0.963623  0  0  0.093969  0  1.031855  0  0  0.096736  0  1.030677  0  0  0.095837  0.091984  0  1.03282  0
H  H10  1  0.99541585  0.79288821  0.15775729  1  0  0.085496  0  0.966954  0  0  0.095965  0  1.040025  0  0  0.097118  0  1.039474  0  0  0.103593  0.095279  0  1.039808  0
H  H11  1  0.50495552  0.63503513  0.84274603  1  0  0.086205  0  0.965989  0  0  0.096666  0  1.03929  0  0  0.097737  0  1.038747  0  0  0.103738  0.095957  0  1.039127  0
H  H12  1  0.00458835  0.20711180  0.84224711  1  0  0.085481  0  0.967018  0  0  0.095959  0  1.040089  0  0  0.097114  0  1.039532  0  0  0.103599  0.095271  0  1.039873  0
H  H13  1  0.49504772  0.36496987  0.15725794  1  0  0.086146  0  0.966026  0  0  0.096632  0  1.03931  0  0  0.097704  0  1.038756  0  0  0.10372  0.09591  0  1.039158  0
H  H14  1  0.88037353  0.85274128  0.04819199  1  0  0.105791  0  0.926351  0  0  0.114244  0  0.997436  0  0  0.116986  0  0.993679  0  0  0.121634  0.112419  0  0.99962  0
H  H15  1  0.62011590  0.80448662  0.95209220  1  0  0.10497  0  0.92765  0  0  0.113781  0  0.99818  0  0  0.116376  0  0.994512  0  0  0.121223  0.111994  0  1.000339  0
H  H16  1  0.11962696  0.14725752  0.95181097  1  0  0.105777  0  0.926396  0  0  0.114215  0  0.997507  0  0  0.116959  0  0.993743  0  0  0.121631  0.112387  0  0.999687  0
H  H17  1  0.37989213  0.19551718  0.04791027  1  0  0.105021  0  0.927584  0  0  0.113791  0  0.99819  0  0  0.116383  0  0.994514  0  0  0.121218  0.112002  0  1.000352  0
H  H18  1  0.50902563  0.14999281  0.27556712  1  0  0.094643  0  0.948961  0  0  0.098983  0  1.018161  0  0  0.101169  0  1.015802  0  0  0.128438  0.097435  0  1.019705  0
H  H19  1  0.99067879  0.87472388  0.72405719  1  0  0.093927  0  0.949246  0  0  0.099163  0  1.017526  0  0  0.101313  0  1.01519  0  0  0.128397  0.097639  0  1.019058  0
H  H20  1  0.49096857  0.85000236  0.72443193  1  0  0.094663  0  0.948886  0  0  0.098997  0  1.018104  0  0  0.101183  0  1.015746  0  0  0.128461  0.097449  0  1.019649  0
H  H21  1  0.00932161  0.12527384  0.27593984  1  0  0.09396  0  0.949241  0  0  0.099209  0  1.017508  0  0  0.10136  0  1.015169  0  0  0.128414  0.097681  0  1.019043  0
H  H22  1  0.79652439  0.77392414  0.32563493  1  0  0.106157  0  0.957709  0  0  0.113245  0  1.027625  0  0  0.115271  0  1.025013  0  0  0.135088  0.111815  0  1.029083  0
H  H23  1  0.70346339  0.44852309  0.67464842  1  0  0.106002  0  0.957419  0  0  0.113549  0  1.026951  0  0  0.115446  0  1.024373  0  0  0.135239  0.112058  0  1.028489  0
H  H24  1  0.20347623  0.22607716  0.67436786  1  0  0.106217  0  0.957699  0  0  0.113319  0  1.0276  0  0  0.115346  0  1.024987  0  0  0.135113  0.11189  0  1.029059  0
H  H25  1  0.29653471  0.55147706  0.32535063  1  0  0.105987  0  0.957396  0  0  0.113544  0  1.026926  0  0  0.115443  0  1.024344  0  0  0.135253  0.112054  0  1.028464  0
C  C26  1  0.80931044  0.60978311  0.05030126  1  0  0.023101  0  3.725025  0  0  0.039064  0  3.963992  0  0  0.037695  0  3.987534  0  0  -0.014683  0.040413  0  3.946678  0
C  C27  1  0.69136211  0.55964718  0.95013826  1  0  0.022832  0  3.723541  0  0  0.037847  0  3.963552  0  0  0.036436  0  3.987012  0  0  -0.015677  0.039178  0  3.946289  0
C  C28  1  0.19069119  0.39021449  0.94969988  1  0  0.023098  0  3.724988  0  0  0.039037  0  3.963994  0  0  0.037672  0  3.987525  0  0  -0.014727  0.040383  0  3.94668  0
C  C29  1  0.30864316  0.44035047  0.04986160  1  0  0.022835  0  3.723454  0  0  0.037875  0  3.963464  0  0  0.036463  0  3.986908  0  0  -0.015704  0.039208  0  3.946197  0
C  C30  1  0.86580201  0.49310682  0.09960711  1  0  -0.112923  0  3.758405  0  0  -0.13411  0  4.009046  0  0  -0.136779  0  4.032174  0  0  -0.094575  -0.132255  0  3.993539  0
C  C31  1  0.63499202  0.39361191  0.90099078  1  0  -0.113071  0  3.758345  0  0  -0.134715  0  4.009638  0  0  -0.137429  0  4.032842  0  0  -0.094417  -0.132842  0  3.994106  0
C  C32  1  0.13419748  0.50689563  0.90039910  1  0  -0.113059  0  3.758412  0  0  -0.134196  0  4.009034  0  0  -0.136864  0  4.032162  0  0  -0.09461  -0.132343  0  3.993537  0
C  C33  1  0.36501222  0.60638949  0.09900833  1  0  -0.113115  0  3.758214  0  0  -0.134742  0  4.009545  0  0  -0.137457  0  4.032754  0  0  -0.094432  -0.132867  0  3.994007  0
C  C34  1  0.80798157  0.32813859  0.05048880  1  0  -0.058528  0  3.758284  0  0  -0.069933  0  4.003432  0  0  -0.071717  0  4.02484  0  0  -0.091256  -0.068675  0  3.989089  0
C  C35  1  0.69295243  0.27794076  0.95025559  1  0  -0.057291  0  3.755949  0  0  -0.068502  0  4.000963  0  0  -0.070294  0  4.022419  0  0  -0.091651  -0.067231  0  3.986578  0
C  C36  1  0.19201791  0.67186390  0.94951581  1  0  -0.058422  0  3.758201  0  0  -0.06977  0  4.003341  0  0  -0.071554  0  4.024751  0  0  -0.09118  -0.068515  0  3.989003  0
C  C37  1  0.30705066  0.72206183  0.04974533  1  0  -0.057421  0  3.756018  0  0  -0.068645  0  4.001013  0  0  -0.070444  0  4.022474  0  0  -0.091649  -0.067372  0  3.986626  0
C  C38  1  0.87334778  0.78750154  0.10916704  1  0  -0.065157  0  3.641364  0  0  -0.142459  0  3.888135  0  0  -0.131642  0  3.90093  0  0  -0.049441  -0.144915  0  3.881823  0
C  C39  1  0.62708219  0.67833100  0.89117518  1  0  -0.065193  0  3.643403  0  0  -0.142293  0  3.889431  0  0  -0.130956  0  3.901927  0  0  -0.048782  -0.144895  0  3.883284  0
C  C40  1  0.12665158  0.21249846  0.89083773  1  0  -0.06494  0  3.641378  0  0  -0.142326  0  3.888157  0  0  -0.13146  0  3.900975  0  0  -0.049384  -0.144768  0  3.881825  0
C  C41  1  0.37292456  0.32167155  0.10882767  1  0  -0.065176  0  3.643343  0  0  -0.142278  0  3.889415  0  0  -0.130871  0  3.901899  0  0  -0.048762  -0.144867  0  3.883282  0
C  C42  1  0.59319695  0.05154532  0.26142041  1  0  0.206555  0  3.710831  0  0  0.155658  0  4.000447  0  0  0.168728  0  4.009608  0  0  0.141962  0.147737  0  3.99223  0
C  C43  1  0.90662103  0.79038639  0.73838089  1  0  0.206609  0  3.710864  0  0  0.154861  0  4.000515  0  0  0.167796  0  4.009631  0  0  0.141777  0.146898  0  3.992358  0
C  C44  1  0.40679976  0.94845106  0.73857998  1  0  0.206571  0  3.710663  0  0  0.155681  0  4.000288  0  0  0.168758  0  4.009429  0  0  0.141931  0.147761  0  3.99207  0
C  C45  1  0.09337814  0.20961133  0.26161603  1  0  0.206585  0  3.71073  0  0  0.154835  0  4.000372  0  0  0.167776  0  4.00947  0  0  0.141781  0.146873  0  3.992211  0
C  C46  1  0.73861357  0.86242487  0.29058174  1  0  0.179361  0  3.616482  0  0  0.10448  0  3.878502  0  0  0.126165  0  3.895399  0  0  0.163652  0.095213  0  3.869924  0
C  C47  1  0.76138418  0.57206011  0.70956055  1  0  0.179827  0  3.616683  0  0  0.104496  0  3.878185  0  0  0.126869  0  3.894643  0  0  0.163599  0.095172  0  3.86971  0
C  C48  1  0.26138684  0.13757274  0.70941929  1  0  0.17931  0  3.616579  0  0  0.104325  0  3.878621  0  0  0.126058  0  3.895554  0  0  0.163568  0.095058  0  3.870049  0
C  C49  1  0.23861392  0.42794005  0.29043850  1  0  0.179846  0  3.616567  0  0  0.104496  0  3.878128  0  0  0.12692  0  3.89462  0  0  0.163565  0.095171  0  3.869651  0
C  C50  1  0.12062433  0.81323918  0.43355546  1  0  0.295921  0  4.008981  0  0  0.276247  0  4.315883  0  0  0.297554  0  4.33019  0  0  0.140621  0.261727  0  4.305985  0
C  C51  1  0.37949997  0.37963416  0.56618008  1  0  0.294903  0  4.010739  0  0  0.275147  0  4.317825  0  0  0.296461  0  4.332205  0  0  0.140253  0.26061  0  4.307905  0
C  C52  1  0.87937722  0.18675879  0.56643285  1  0  0.296359  0  4.008995  0  0  0.276692  0  4.315873  0  0  0.297999  0  4.330175  0  0  0.14082  0.262171  0  4.305982  0
C  C53  1  0.62049176  0.62035974  0.43382004  1  0  0.295029  0  4.010879  0  0  0.275275  0  4.317948  0  0  0.296591  0  4.332328  0  0  0.14035  0.260737  0  4.308027  0
S  S54  1  0.21061732  0.88724155  0.35190143  1  0  -0.332964  0  2.185346  0  0  -0.304379  0  2.523808  0  0  -0.321203  0  2.518865  0  0  -0.134128  -0.292439  0  2.52692  0
S  S55  1  0.28968311  0.53533215  0.64780068  1  0  -0.333381  0  2.185035  0  0  -0.304781  0  2.523639  0  0  -0.32166  0  2.518697  0  0  -0.134481  -0.292818  0  2.526778  0
S  S56  1  0.78938971  0.11276742  0.64809420  1  0  -0.333157  0  2.185377  0  0  -0.304605  0  2.523913  0  0  -0.321427  0  2.518965  0  0  -0.134202  -0.292665  0  2.527031  0
S  S57  1  0.71030057  0.46467042  0.35220093  1  0  -0.33338  0  2.18541  0  0  -0.304771  0  2.524008  0  0  -0.321649  0  2.519066  0  0  -0.1345  -0.292809  0  2.527144  0
N  N58  1  0.76830690  0.88297826  0.19225186  1  0  0.041544  0  3.538484  0  0  0.161539  0  3.726833  0  0  0.125854  0  3.785393  0  0  -0.132628  0.168516  0  3.711022  0
N  N59  1  0.73183506  0.69086507  0.80789097  1  0  0.040002  0  3.539681  0  0  0.160038  0  3.728022  0  0  0.123711  0  3.786228  0  0  -0.133337  0.16747  0  3.711415  0
N  N60  1  0.23169365  0.11702180  0.80775061  1  0  0.041234  0  3.53866  0  0  0.161463  0  3.726759  0  0  0.125605  0  3.785538  0  0  -0.132606  0.168432  0  3.710963  0
N  N61  1  0.26816791  0.30913508  0.19210851  1  0  0.040075  0  3.539585  0  0  0.160076  0  3.728009  0  0  0.12357  0  3.786434  0  0  -0.133276  0.167509  0  3.711398  0
N  N62  1  0.67592961  0.00341250  0.17180422  1  0  -0.286258  0  2.829369  0  0  -0.282394  0  3.0934  0  0  -0.283096  0  3.111688  0  0  -0.227178  -0.277025  0  3.085162  0
N  N63  1  0.82409092  0.83180630  0.82810921  1  0  -0.285413  0  2.829236  0  0  -0.281415  0  3.093037  0  0  -0.281572  0  3.110994  0  0  -0.22692  -0.276133  0  3.0848  0
N  N64  1  0.32407083  0.99658503  0.82820002  1  0  -0.286176  0  2.829416  0  0  -0.282376  0  3.093373  0  0  -0.283025  0  3.111703  0  0  -0.227176  -0.277006  0  3.085136  0
N  N65  1  0.17591433  0.16819141  0.17188824  1  0  -0.285447  0  2.82931  0  0  -0.281457  0  3.093153  0  0  -0.281564  0  3.111154  0  0  -0.226931  -0.276174  0  3.084914  0
N  N66  1  0.62716547  0.96740942  0.33608472  1  0  -0.40082  0  3.207483  0  0  -0.325085  0  3.487046  0  0  -0.347288  0  3.500934  0  0  -0.345119  -0.309514  0  3.475129  0
N  N67  1  0.87263624  0.63159203  0.66384652  1  0  -0.400399  0  3.206404  0  0  -0.324604  0  3.485897  0  0  -0.347029  0  3.499731  0  0  -0.344664  -0.309023  0  3.473979  0
N  N68  1  0.37283257  0.03258947  0.66391481  1  0  -0.400792  0  3.207511  0  0  -0.325051  0  3.48711  0  0  -0.347248  0  3.500979  0  0  -0.345095  -0.309479  0  3.475194  0
N  N69  1  0.12736070  0.36840943  0.33615034  1  0  -0.40043  0  3.206249  0  0  -0.324634  0  3.485776  0  0  -0.347053  0  3.49959  0  0  -0.344695  -0.309062  0  3.47388  0
N  N70  1  0.05251637  0.75803843  0.49121086  1  0  -0.538668  0  2.85631  0  0  -0.489796  0  3.133189  0  0  -0.509963  0  3.141518  0  0  -0.399676  -0.476  0  3.127449  0
N  N71  1  0.44744270  0.26674750  0.50855144  1  0  -0.537439  0  2.856955  0  0  -0.488414  0  3.133645  0  0  -0.508605  0  3.142072  0  0  -0.399105  -0.474603  0  3.127851  0
N  N72  1  0.94748262  0.24195707  0.50877660  1  0  -0.538952  0  2.856402  0  0  -0.490094  0  3.133294  0  0  -0.510262  0  3.14162  0  0  -0.399801  -0.476298  0  3.12756  0
N  N73  1  0.55255064  0.73325380  0.49145151  1  0  -0.537592  0  2.85681  0  0  -0.488587  0  3.133538  0  0  -0.50878  0  3.141965  0  0  -0.399193  -0.474776  0  3.127745  0
