# generated using pymatgen
data_NaH10C5N3O8
_symmetry_space_group_name_H-M   'P 1'
_cell_length_a   7.69969322
_cell_length_b   7.78460024
_cell_length_c   10.12734634
_cell_angle_alpha   116.25344300
_cell_angle_beta   110.10207521
_cell_angle_gamma   96.95874650
_symmetry_Int_Tables_number   1
_chemical_formula_structural   NaH10C5N3O8
_chemical_formula_sum   'Na2 H20 C10 N6 O16'
_cell_volume   483.60024915
_cell_formula_units_Z   2
loop_
 _symmetry_equiv_pos_site_id
 _symmetry_equiv_pos_as_xyz
  1  'x, y, z'
loop_
 _atom_site_type_symbol
 _atom_site_label
 _atom_site_symmetry_multiplicity
 _atom_site_fract_x
 _atom_site_fract_y
 _atom_site_fract_z
 _atom_site_occupancy
 _atom_site_hle17_bader_spin_density
 _atom_site_hle17_ddec_charge
 _atom_site_hle17_ddec_spin_density
 _atom_site_hle17_ddec_sum_bond_order
 _atom_site_hle17_magmom
 _atom_site_hse06_10hf_bader_spin_density
 _atom_site_hse06_10hf_ddec_charge
 _atom_site_hse06_10hf_ddec_spin_density
 _atom_site_hse06_10hf_ddec_sum_bond_order
 _atom_site_hse06_10hf_magmom
 _atom_site_hse06_bader_spin_density
 _atom_site_hse06_ddec_charge
 _atom_site_hse06_ddec_spin_density
 _atom_site_hse06_ddec_sum_bond_order
 _atom_site_hse06_magmom
 _atom_site_pbe_bader_spin_density
 _atom_site_pbe_cm5_charge
 _atom_site_pbe_ddec_charge
 _atom_site_pbe_ddec_spin_density
 _atom_site_pbe_ddec_sum_bond_order
 _atom_site_pbe_magmom
Na  Na0  1  0.93973311  0.18080871  0.38178502  1  0  0.896684  0  0.345666  0  0  0.82987  0  0.510246  0  0  0.845168  0  0.485906  0  0  0.655765  0.818753  0  0.527608  0
Na  Na1  1  0.06025989  0.81919588  0.61820522  1  0  0.896669  0  0.345687  0  0  0.829861  0  0.510254  0  0  0.845159  0  0.485915  0  0  0.655773  0.818742  0  0.527613  0
H  H2  1  0.51164788  0.16190495  0.79670561  1  0  0.354172  0  0.90334  0  0  0.325624  0  0.985661  0  0  0.336861  0  0.972506  0  0  0.309732  0.317578  0  0.995053  0
H  H3  1  0.78892813  0.62858199  0.93505061  1  0  0.348724  0  0.929582  0  0  0.321499  0  1.008097  0  0  0.33287  0  0.99553  0  0  0.309999  0.313471  0  1.016937  0
H  H4  1  0.48834015  0.83808232  0.20328982  1  0  0.354322  0  0.903214  0  0  0.325739  0  0.985572  0  0  0.336979  0  0.972404  0  0  0.309747  0.31769  0  0.994959  0
H  H5  1  0.21106546  0.37139577  0.06493343  1  0  0.348648  0  0.929606  0  0  0.321443  0  1.008094  0  0  0.332813  0  0.995529  0  0  0.309981  0.313424  0  1.016913  0
H  H6  1  0.34102060  0.05797799  0.46335487  1  0  0.051034  0  0.955806  0  0  0.064166  0  1.024419  0  0  0.064842  0  1.023571  0  0  0.099721  0.063563  0  1.025211  0
H  H7  1  0.65443472  0.41494713  0.53209816  1  0  0.074271  0  0.950264  0  0  0.08361  0  1.019292  0  0  0.085237  0  1.017885  0  0  0.105987  0.082237  0  1.020561  0
H  H8  1  0.65897828  0.94202296  0.53664566  1  0  0.051118  0  0.955819  0  0  0.064221  0  1.024477  0  0  0.064895  0  1.02363  0  0  0.099742  0.063616  0  1.025271  0
H  H9  1  0.34557411  0.58504990  0.46790771  1  0  0.074313  0  0.950161  0  0  0.083638  0  1.019254  0  0  0.085271  0  1.01783  0  0  0.105984  0.082262  0  1.020525  0
H  H10  1  0.40429971  0.31923220  0.61091695  1  0  0.075648  0  0.943148  0  0  0.083928  0  1.01705  0  0  0.085289  0  1.015104  0  0  0.108037  0.082871  0  1.018523  0
H  H11  1  0.69777477  0.22499744  0.57955074  1  0  0.075656  0  0.95824  0  0  0.08572  0  1.028515  0  0  0.086882  0  1.026996  0  0  0.106594  0.084748  0  1.029811  0
H  H12  1  0.59570429  0.68077210  0.38908892  1  0  0.075629  0  0.943225  0  0  0.083888  0  1.017143  0  0  0.085245  0  1.015204  0  0  0.108021  0.082829  0  1.018613  0
H  H13  1  0.30222802  0.77499783  0.42045201  1  0  0.07567  0  0.958258  0  0  0.085732  0  1.028542  0  0  0.086887  0  1.027026  0  0  0.106606  0.084758  0  1.029835  0
H  H14  1  0.19265546  0.95380580  0.16919475  1  0  0.057415  0  0.963211  0  0  0.057218  0  1.052775  0  0  0.058946  0  1.050627  0  0  0.098418  0.05592  0  1.054434  0
H  H15  1  0.50364821  0.32498719  0.25512893  1  0  0.063042  0  0.926565  0  0  0.076992  0  0.992635  0  0  0.077481  0  0.992065  0  0  0.103657  0.076495  0  0.993281  0
H  H16  1  0.80734386  0.04619666  0.83080636  1  0  0.057456  0  0.963348  0  0  0.057245  0  1.052887  0  0  0.058969  0  1.050744  0  0  0.098416  0.055952  0  1.054545  0
H  H17  1  0.49635907  0.67501408  0.74487489  1  0  0.063049  0  0.926567  0  0  0.076968  0  0.992637  0  0  0.077453  0  0.992068  0  0  0.103642  0.076471  0  0.993285  0
H  H18  1  0.14110451  0.14527554  0.12587032  1  0  0.079343  0  0.934541  0  0  0.09652  0  0.992189  0  0  0.096487  0  0.992603  0  0  0.113522  0.096443  0  0.992053  0
H  H19  1  0.44072738  0.06768072  0.09629366  1  0  0.085992  0  0.933044  0  0  0.099497  0  0.996718  0  0  0.100247  0  0.995744  0  0  0.113958  0.098947  0  0.997405  0
H  H20  1  0.85890355  0.85473324  0.87413603  1  0  0.0794  0  0.934537  0  0  0.096566  0  0.992156  0  0  0.096533  0  0.992568  0  0  0.113528  0.096491  0  0.992023  0
H  H21  1  0.55927606  0.93232643  0.90371098  1  0  0.086002  0  0.933042  0  0  0.099483  0  0.996707  0  0  0.100231  0  0.995737  0  0  0.113936  0.098934  0  0.997392  0
C  C22  1  0.82200294  0.51542040  0.11853743  1  0  0.07544  0  3.577123  0  0  0.010914  0  3.881572  0  0  0.008558  0  3.892485  0  0  0.269366  0.011548  0  3.875147  0
C  C23  1  0.17797237  0.48457554  0.88145835  1  0  0.075531  0  3.576921  0  0  0.011221  0  3.881114  0  0  0.008871  0  3.89203  0  0  0.269459  0.011848  0  3.874695  0
C  C24  1  0.39540629  0.21354814  0.49096750  1  0  0.04328  0  3.647903  0  0  -0.014811  0  3.91867  0  0  -0.008463  0  3.923704  0  0  -0.083256  -0.019143  0  3.915337  0
C  C25  1  0.59442813  0.25563672  0.49393804  1  0  0.025849  0  3.628243  0  0  -0.034291  0  3.901139  0  0  -0.028269  0  3.905716  0  0  -0.087787  -0.038355  0  3.898183  0
C  C26  1  0.60459769  0.78645610  0.50903736  1  0  0.04324  0  3.647925  0  0  -0.014831  0  3.918761  0  0  -0.008487  0  3.923786  0  0  -0.083244  -0.019157  0  3.91542  0
C  C27  1  0.40557693  0.74436162  0.50606626  1  0  0.025822  0  3.628163  0  0  -0.034345  0  3.901178  0  0  -0.028303  0  3.905713  0  0  -0.087806  -0.038409  0  3.898214  0
C  C28  1  0.24695714  0.11549593  0.21098091  1  0  0.034139  0  3.643524  0  0  -0.021819  0  3.911292  0  0  -0.015646  0  3.916262  0  0  -0.085196  -0.026062  0  3.908036  0
C  C29  1  0.44677116  0.16501766  0.21662075  1  0  0.04626  0  3.61182  0  0  -0.014428  0  3.880978  0  0  -0.007788  0  3.885574  0  0  -0.07901  -0.018943  0  3.877822  0
C  C30  1  0.75304774  0.88451139  0.78902613  1  0  0.033969  0  3.643984  0  0  -0.021898  0  3.91156  0  0  -0.015719  0  3.916522  0  0  -0.085189  -0.026153  0  3.908323  0
C  C31  1  0.55323419  0.83498655  0.78338348  1  0  0.046169  0  3.61207  0  0  -0.014422  0  3.881057  0  0  -0.007783  0  3.885652  0  0  -0.079002  -0.018932  0  3.877906  0
N  N32  1  0.86915686  0.72246316  0.19893224  1  0  0.452996  0  3.929483  0  0  0.482352  0  4.228417  0  0  0.502891  0  4.240195  0  0  -0.001242  0.468552  0  4.220626  0
N  N33  1  0.85248064  0.41570533  0.20607351  1  0  0.452883  0  3.990569  0  0  0.505826  0  4.256586  0  0  0.527251  0  4.265288  0  0  0.019783  0.491574  0  4.250668  0
N  N34  1  0.13082781  0.27752687  0.80106118  1  0  0.452817  0  3.929117  0  0  0.482099  0  4.228044  0  0  0.502635  0  4.239831  0  0  -0.001312  0.468304  0  4.220249  0
N  N35  1  0.14750593  0.58430574  0.79392694  1  0  0.452984  0  3.99044  0  0  0.505877  0  4.256405  0  0  0.527302  0  4.265107  0  0  0.019908  0.491629  0  4.250498  0
N  N36  1  0.75084835  0.38984664  0.94727294  1  0  0.162738  0  3.139292  0  0  0.169232  0  3.467061  0  0  0.173632  0  3.467693  0  0  -0.13422  0.166165  0  3.46669  0
N  N37  1  0.24919211  0.61016423  0.05273660  1  0  0.16284  0  3.139072  0  0  0.169261  0  3.46682  0  0  0.173656  0  3.467456  0  0  -0.134281  0.166192  0  3.466453  0
O  O38  1  0.81154802  0.80106660  0.10994288  1  0  -0.447223  0  1.793602  0  0  -0.423445  0  2.020807  0  0  -0.438985  0  2.014616  0  0  -0.188178  -0.412731  0  2.025113  0
O  O39  1  0.82764167  0.22887736  0.12795649  1  0  -0.410112  0  1.797572  0  0  -0.405652  0  2.025333  0  0  -0.417151  0  2.019598  0  0  -0.168935  -0.397726  0  2.029312  0
O  O40  1  0.18844884  0.19892250  0.89005641  1  0  -0.447195  0  1.793304  0  0  -0.423385  0  2.020478  0  0  -0.438923  0  2.014289  0  0  -0.188176  -0.412671  0  2.024768  0
O  O41  1  0.17239816  0.77113614  0.87204876  1  0  -0.410161  0  1.797697  0  0  -0.405715  0  2.025512  0  0  -0.417217  0  2.019776  0  0  -0.169025  -0.397754  0  2.0294  0
O  O42  1  0.97444357  0.84017352  0.35268370  1  0  -0.474722  0  1.799926  0  0  -0.462397  0  2.041499  0  0  -0.475349  0  2.035492  0  0  -0.221485  -0.45341  0  2.045569  0
O  O43  1  0.89453436  0.50537070  0.35734007  1  0  -0.466713  0  1.828653  0  0  -0.463265  0  2.064621  0  0  -0.475057  0  2.057391  0  0  -0.230507  -0.455081  0  2.069602  0
O  O44  1  0.02554082  0.15982039  0.64730196  1  0  -0.474645  0  1.79976  0  0  -0.462329  0  2.041397  0  0  -0.475272  0  2.035364  0  0  -0.221474  -0.453346  0  2.045468  0
O  O45  1  0.10542081  0.49464665  0.64265017  1  0  -0.466723  0  1.828418  0  0  -0.463311  0  2.064423  0  0  -0.475091  0  2.057173  0  0  -0.230497  -0.455131  0  2.069406  0
O  O46  1  0.53980885  0.30716082  0.87488276  1  0  -0.476957  0  1.933089  0  0  -0.449821  0  2.177347  0  0  -0.463973  0  2.165221  0  0  -0.309885  -0.439442  0  2.185546  0
O  O47  1  0.80002382  0.49033393  0.87325937  1  0  -0.458779  0  2.011587  0  0  -0.430464  0  2.25835  0  0  -0.44604  0  2.248133  0  0  -0.288202  -0.419101  0  2.264997  0
O  O48  1  0.46020417  0.69282665  0.12513310  1  0  -0.477063  0  1.933268  0  0  -0.449903  0  2.177603  0  0  -0.464053  0  2.165472  0  0  -0.309784  -0.439515  0  2.185807  0
O  O49  1  0.19997002  0.50965434  0.12672800  1  0  -0.458862  0  2.011065  0  0  -0.430593  0  2.257873  0  0  -0.446165  0  2.247657  0  0  -0.288292  -0.419255  0  2.264537  0
O  O50  1  0.25391729  0.23909107  0.37017603  1  0  -0.354217  0  2.240082  0  0  -0.283799  0  2.491809  0  0  -0.300016  0  2.49206  0  0  -0.276691  -0.272321  0  2.491382  0
O  O51  1  0.58313920  0.12682596  0.33260044  1  0  -0.366878  0  2.22734  0  0  -0.288776  0  2.471647  0  0  -0.305924  0  2.470978  0  0  -0.259963  -0.276558  0  2.471782  0
O  O52  1  0.74609131  0.76091957  0.62983598  1  0  -0.354161  0  2.240129  0  0  -0.283774  0  2.491813  0  0  -0.299985  0  2.492052  0  0  -0.276692  -0.272295  0  2.491393  0
O  O53  1  0.41686441  0.87317220  0.66740145  1  0  -0.366801  0  2.227449  0  0  -0.288732  0  2.471752  0  0  -0.305884  0  2.471079  0  0  -0.259948  -0.276517  0  2.471889  0
