# generated using pymatgen
data_AgBiH16C24(IN)4
_symmetry_space_group_name_H-M   'P 1'
_cell_length_a   7.69390183
_cell_length_b   9.92002838
_cell_length_c   9.91991062
_cell_angle_alpha   68.21533188
_cell_angle_beta   78.18191196
_cell_angle_gamma   78.18197558
_symmetry_Int_Tables_number   1
_chemical_formula_structural   AgBiH16C24(IN)4
_chemical_formula_sum   'Ag1 Bi1 H16 C24 I4 N4'
_cell_volume   681.20751423
_cell_formula_units_Z   1
loop_
 _symmetry_equiv_pos_site_id
 _symmetry_equiv_pos_as_xyz
  1  'x, y, z'
loop_
 _atom_site_type_symbol
 _atom_site_label
 _atom_site_symmetry_multiplicity
 _atom_site_fract_x
 _atom_site_fract_y
 _atom_site_fract_z
 _atom_site_occupancy
 _atom_site_pbe_bader_spin_density
 _atom_site_pbe_cm5_charge
 _atom_site_pbe_ddec_charge
 _atom_site_pbe_ddec_spin_density
 _atom_site_pbe_ddec_sum_bond_order
 _atom_site_pbe_magmom
Ag  Ag0  1  0.50000129  0.34173818  0.65826572  1  0  0.242255  0.214656  0  2.263215  0
Bi  Bi1  1  0.00001322  0.48286980  0.51713247  1  0  0.499546  0.82792  0  3.00871  0
H  H2  1  0.32020866  0.41697854  0.25146724  1  0  0.101716  0.074571  0  1.042439  0
H  H3  1  0.67979594  0.74852525  0.58302348  1  0  0.101681  0.074565  0  1.042429  0
H  H4  1  0.44155311  0.52810596  0.98427101  1  0  0.092511  0.115027  0  1.04204  0
H  H5  1  0.55844945  0.01571555  0.47189497  1  0  0.092463  0.115018  0  1.041933  0
H  H6  1  0.31837867  0.78594204  0.84509333  1  0  0.107947  0.114962  0  0.984598  0
H  H7  1  0.68162371  0.15489537  0.21406099  1  0  0.107923  0.114921  0  0.984696  0
H  H8  1  0.11655288  0.01856647  0.84752052  1  0  0.088181  0.103901  0  1.052949  0
H  H9  1  0.88344705  0.15247470  0.98142986  1  0  0.088205  0.103949  0  1.05289  0
H  H10  1  0.17255230  0.41176469  0.91669363  1  0  0.090966  0.062491  0  1.055152  0
H  H11  1  0.82743850  0.08331359  0.58823297  1  0  0.09099  0.062496  0  1.055141  0
H  H12  1  0.05304972  0.30069666  0.18411740  1  0  0.085104  0.097013  0  1.058667  0
H  H13  1  0.94693925  0.81589387  0.69929788  1  0  0.085133  0.097048  0  1.058688  0
H  H14  1  0.18133770  0.04452592  0.32329425  1  0  0.097719  0.106211  0  1.004985  0
H  H15  1  0.81865615  0.67671379  0.95547086  1  0  0.097677  0.10616  0  1.004982  0
H  H16  1  0.38421402  0.81411202  0.31988348  1  0  0.080733  0.095676  0  1.066941  0
H  H17  1  0.61577965  0.68012023  0.18588851  1  0  0.080771  0.095753  0  1.066944  0
C  C18  1  0.26896003  0.52844701  0.18593350  1  0  0.054559  0.104833  0  3.931306  0
C  C19  1  0.73104724  0.81406150  0.47155077  1  0  0.054556  0.104863  0  3.931372  0
C  C20  1  0.33613567  0.59133342  0.03723002  1  0  -0.081845  -0.112956  0  3.953042  0
C  C21  1  0.66387238  0.96276005  0.40866990  1  0  -0.081866  -0.113078  0  3.953137  0
C  C22  1  0.26833869  0.73379377  0.96067443  1  0  -0.055678  -0.056415  0  3.900075  0
C  C23  1  0.73166770  0.03931856  0.26620680  1  0  -0.055627  -0.056341  0  3.900157  0
C  C24  1  0.13451329  0.81405384  0.03293389  1  0  0.003018  0.048237  0  3.996167  0
C  C25  1  0.86549256  0.96705989  0.18594944  1  0  0.002949  0.048114  0  3.996306  0
C  C26  1  0.07006701  0.74074766  0.18258752  1  0  0.119028  0.120084  0  3.95761  0
C  C27  1  0.92994006  0.81740646  0.25925100  1  0  0.119029  0.120303  0  3.957664  0
C  C28  1  0.06433667  0.96394650  0.96210171  1  0  -0.082575  -0.104658  0  3.954681  0
C  C29  1  0.93566918  0.03789504  0.03605097  1  0  -0.082527  -0.104668  0  3.954644  0
C  C30  1  0.22731287  0.30117519  0.98180009  1  0  0.041448  0.094428  0  3.966616  0
C  C31  1  0.77267737  0.01820368  0.69882567  1  0  0.041459  0.094465  0  3.966747  0
C  C32  1  0.16008868  0.23859995  0.13100571  1  0  -0.093253  -0.127416  0  3.993539  0
C  C33  1  0.83989535  0.86899722  0.76139845  1  0  -0.093346  -0.127617  0  3.99375  0
C  C34  1  0.23029495  0.09699000  0.20751893  1  0  -0.073863  -0.079519  0  3.946794  0
C  C35  1  0.76969846  0.79248375  0.90300707  1  0  -0.07381  -0.079398  0  3.946628  0
C  C36  1  0.36547639  0.01850412  0.13434205  1  0  -0.008508  0.036787  0  4.017204  0
C  C37  1  0.63451628  0.86566512  0.98149234  1  0  -0.008475  0.036914  0  4.017066  0
C  C38  1  0.42882307  0.09261646  0.98422284  1  0  0.114556  0.124717  0  3.947775  0
C  C39  1  0.57116800  0.01578183  0.90738935  1  0  0.114477  0.124458  0  3.947881  0
C  C40  1  0.43602518  0.86886001  0.20526467  1  0  -0.096209  -0.122063  0  3.997327  0
C  C41  1  0.56396804  0.79474046  0.13114211  1  0  -0.096294  -0.122346  0  3.99737  0
I  I42  1  0.26431965  0.62211361  0.60460620  1  0  -0.160413  -0.352934  0  1.568131  0
I  I43  1  0.73569408  0.39540241  0.37789007  1  0  -0.160415  -0.352937  0  1.568112  0
I  I44  1  0.24072859  0.18923158  0.55184635  1  0  -0.175495  -0.385654  0  1.407039  0
I  I45  1  0.75927642  0.44814947  0.81077219  1  0  -0.175516  -0.385685  0  1.407032  0
N  N46  1  0.13842367  0.60030075  0.25517396  1  0  -0.296393  -0.240608  0  3.505407  0
N  N47  1  0.86158569  0.74482273  0.39969345  1  0  -0.296336  -0.240584  0  3.50531  0
N  N48  1  0.35867948  0.23184450  0.91124592  1  0  -0.324087  -0.237893  0  3.500895  0
N  N49  1  0.64131381  0.08875740  0.76815653  1  0  -0.32407  -0.237774  0  3.500982  0
