# generated using pymatgen
data_K2CuH10C14(NO5)2
_symmetry_space_group_name_H-M   'P 1'
_cell_length_a   7.33672391
_cell_length_b   7.84052044
_cell_length_c   15.49488156
_cell_angle_alpha   99.09268241
_cell_angle_beta   90.00004145
_cell_angle_gamma   90.00006515
_symmetry_Int_Tables_number   1
_chemical_formula_structural   K2CuH10C14(NO5)2
_chemical_formula_sum   'K4 Cu2 H20 C28 N4 O20'
_cell_volume   880.12307029
_cell_formula_units_Z   2
loop_
 _symmetry_equiv_pos_site_id
 _symmetry_equiv_pos_as_xyz
  1  'x, y, z'
loop_
 _atom_site_type_symbol
 _atom_site_label
 _atom_site_symmetry_multiplicity
 _atom_site_fract_x
 _atom_site_fract_y
 _atom_site_fract_z
 _atom_site_occupancy
 _atom_site_hle17_ddec_charge
 _atom_site_hle17_ddec_spin_density
 _atom_site_hle17_ddec_sum_bond_order
 _atom_site_hle17_magmom
 _atom_site_hse06_10hf_ddec_charge
 _atom_site_hse06_10hf_ddec_spin_density
 _atom_site_hse06_10hf_ddec_sum_bond_order
 _atom_site_hse06_10hf_magmom
 _atom_site_hse06_ddec_charge
 _atom_site_hse06_ddec_spin_density
 _atom_site_hse06_ddec_sum_bond_order
 _atom_site_hse06_magmom
 _atom_site_pbe_cm5_charge
 _atom_site_pbe_ddec_charge
 _atom_site_pbe_ddec_spin_density
 _atom_site_pbe_ddec_sum_bond_order
 _atom_site_pbe_magmom
K  K0  1  0.94687270  0.46239939  0.25821039  1  0.919293  -0.000111  0.482471  0.0  0.870788  -0.000227  0.67275  0.0  0.886071  -0.000118  0.649294  0.0  0.775786  0.859363  -0.000361  0.689484  0.0
K  K1  1  0.44686619  0.53761846  0.24179097  1  0.919295  -7e-05  0.482489  0.0  0.870803  -0.000235  0.672758  0.0  0.886082  -0.000116  0.649305  0.0  0.7758  0.859376  -0.000361  0.689491  0.0
K  K2  1  0.05311590  0.53761670  0.74179603  1  0.919308  -0.000105  0.482464  0.0  0.870782  -0.00023  0.672776  0.0  0.886066  -0.000116  0.64932  0.0  0.775794  0.859361  -0.00036  0.68951  0.0
K  K3  1  0.55312514  0.46238840  0.75820833  1  0.919299  -8e-05  0.48247  0.0  0.8708  -0.000231  0.672744  0.0  0.886082  -0.000118  0.64929  0.0  0.775773  0.859377  -0.00036  0.68948  0.0
Cu  Cu4  1  0.99999678  0.00000042  0.99999948  1  0.853711  -0.704135  1.840421  -0.521  0.817031  -0.782283  2.243597  -0.629  0.904242  -0.843888  2.176519  -0.71  0.754628  0.762458  -0.738522  2.291379  -0.576
Cu  Cu5  1  0.50000012  0.00000114  0.49999832  1  0.853693  -0.704124  1.840407  -0.521  0.817038  -0.782287  2.243612  -0.629  0.904199  -0.843885  2.176521  -0.71  0.754617  0.762435  -0.73852  2.291406  -0.576
H  H6  1  0.77741904  0.91384472  0.82651181  1  0.10518  -0.000944  0.952748  -0.002  0.111308  -0.000755  1.017133  -0.002  0.115012  -0.000544  1.01283  -0.001  0.131242  0.108451  -0.000916  1.020412  -0.002
H  H7  1  0.27742140  0.08615403  0.67348700  1  0.10518  -0.000943  0.952812  -0.002  0.11129  -0.000755  1.017189  -0.002  0.114993  -0.000544  1.012886  -0.001  0.131241  0.108433  -0.000916  1.020467  -0.002
H  H8  1  0.22258046  0.08615957  0.17348795  1  0.105152  -0.000945  0.95279  -0.002  0.111278  -0.000755  1.017179  -0.002  0.114982  -0.000544  1.012877  -0.001  0.13122  0.10842  -0.000917  1.020456  -0.002
H  H9  1  0.72258219  0.91384374  0.32650970  1  0.105157  -0.000945  0.952784  -0.002  0.11129  -0.000755  1.01717  -0.002  0.114993  -0.000544  1.012867  -0.001  0.13123  0.108434  -0.000916  1.020448  -0.002
H  H10  1  0.47930719  0.02073352  0.77977619  1  0.124456  -0.000322  0.932616  0.0  0.133105  -0.000391  0.992774  0.0  0.137014  -0.000287  0.990466  0.0  0.124048  0.130173  -0.000474  0.994731  -0.001
H  H11  1  0.97931157  0.97926289  0.72022252  1  0.124433  -0.000322  0.932687  0.0  0.133089  -0.000391  0.99285  0.0  0.136997  -0.000287  0.990546  0.0  0.124065  0.130155  -0.000474  0.994804  -0.001
H  H12  1  0.52069231  0.97926949  0.22022347  1  0.124477  -0.000321  0.93256  0.0  0.133125  -0.000391  0.992715  0.0  0.137034  -0.000287  0.990407  0.0  0.124044  0.130191  -0.000474  0.99467  -0.001
H  H13  1  0.02069475  0.02073755  0.27977760  1  0.124406  -0.000321  0.932705  0.0  0.13307  -0.000391  0.992848  0.0  0.136978  -0.000287  0.990543  0.0  0.124065  0.130137  -0.000474  0.994804  -0.001
H  H14  1  0.42812320  0.32436515  0.03724829  1  0.122289  -0.000702  0.947807  -0.001  0.131827  -0.000608  1.010303  -0.001  0.135534  -0.000404  1.008259  -0.001  0.12391  0.129031  -0.000794  1.012022  -0.001
H  H15  1  0.92812621  0.67563065  0.46274889  1  0.122347  -0.000702  0.947676  -0.001  0.131846  -0.000608  1.010207  -0.001  0.135553  -0.000404  1.008163  -0.001  0.123945  0.12905  -0.000794  1.011931  -0.001
H  H16  1  0.57186949  0.67563272  0.96275230  1  0.122327  -0.000703  0.947816  -0.001  0.131847  -0.000608  1.010305  -0.001  0.135555  -0.000404  1.008258  -0.001  0.123927  0.129052  -0.000794  1.012024  -0.001
H  H17  1  0.07187602  0.32436597  0.53725289  1  0.122347  -0.000703  0.947644  -0.001  0.131828  -0.000608  1.010204  -0.001  0.135534  -0.000404  1.008161  -0.001  0.123939  0.129033  -0.000794  1.011924  -0.001
H  H18  1  0.56452365  0.40376252  0.40592640  1  0.414995  -4.9e-05  0.888522  0.0  0.385303  -4.4e-05  0.951123  0.0  0.396562  -4.8e-05  0.934563  0.0  0.279361  0.377345  -3.8e-05  0.962811  0.0
H  H19  1  0.06451971  0.59623922  0.09406786  1  0.414956  -4.9e-05  0.888561  0.0  0.385231  -4.4e-05  0.951225  0.0  0.396492  -4.8e-05  0.934659  0.0  0.279324  0.377275  -3.8e-05  0.96291  0.0
H  H20  1  0.43547585  0.59623522  0.59406966  1  0.415014  -4.9e-05  0.888494  0.0  0.385295  -4.4e-05  0.951139  0.0  0.396555  -4.8e-05  0.934575  0.0  0.279341  0.377338  -3.8e-05  0.962826  0.0
H  H21  1  0.93547843  0.40376250  0.90593171  1  0.414989  -4.9e-05  0.888518  0.0  0.385271  -4.4e-05  0.951169  0.0  0.396532  -4.8e-05  0.934603  0.0  0.279342  0.377312  -3.8e-05  0.962857  0.0
H  H22  1  0.65009741  0.57936034  0.44547126  1  0.414491  -1.7e-05  0.88416  0.0  0.388303  -7e-06  0.941802  0.0  0.397558  -7e-06  0.928105  0.0  0.28476  0.381691  -8e-06  0.951602  0.0
H  H23  1  0.15009591  0.42064406  0.05452257  1  0.414337  -1.7e-05  0.88436  0.0  0.388134  -7e-06  0.942032  0.0  0.39739  -7e-06  0.928332  0.0  0.284689  0.38152  -8e-06  0.951835  0.0
H  H24  1  0.34990619  0.42063871  0.55452553  1  0.414465  -1.6e-05  0.884194  0.0  0.388279  -7e-06  0.941832  0.0  0.397533  -7e-06  0.928135  0.0  0.284738  0.381667  -8e-06  0.951632  0.0
H  H25  1  0.84990359  0.57935889  0.94547516  1  0.414414  -1.6e-05  0.884265  0.0  0.388216  -7e-06  0.941922  0.0  0.397471  -7e-06  0.928226  0.0  0.284721  0.381605  -8e-06  0.951722  0.0
C  C26  1  0.75542867  0.21863902  0.09692727  1  0.615542  0.006302  3.938515  0.006  0.573525  0.001149  4.235316  0.001  0.608262  0.001113  4.229859  0.001  0.197992  0.54977  0.001076  4.238251  0.002
C  C27  1  0.25543634  0.78136180  0.40307215  1  0.615379  0.006296  3.938626  0.006  0.573615  0.001148  4.235102  0.001  0.608353  0.001113  4.229644  0.001  0.198048  0.549865  0.001075  4.238027  0.002
C  C28  1  0.24456130  0.78136016  0.90307406  1  0.615553  0.006297  3.938436  0.006  0.5738  0.001149  4.234915  0.001  0.608539  0.001113  4.229453  0.001  0.198145  0.550048  0.001075  4.23783  0.002
C  C29  1  0.74457135  0.21863604  0.59692714  1  0.615403  0.006301  3.938546  0.006  0.573551  0.001149  4.2351  0.001  0.608286  0.001113  4.229647  0.001  0.198022  0.549806  0.001075  4.238015  0.002
C  C30  1  0.66977726  0.17296050  0.00834991  1  0.090375  0.00978  3.752667  0.006  0.09604  0.002515  3.994875  0.001  0.098425  0.003853  4.015161  0.002  0.111079  0.094175  0.00156  3.981806  0.001
C  C31  1  0.16978376  0.82703639  0.49165048  1  0.090687  0.009788  3.752343  0.006  0.096144  0.002515  3.994683  0.001  0.098527  0.003852  4.014971  0.002  0.111113  0.094277  0.00156  3.981616  0.001
C  C32  1  0.33021543  0.82703485  0.99165242  1  0.090623  0.009797  3.752356  0.006  0.096021  0.002516  3.994754  0.001  0.098403  0.003853  4.015044  0.002  0.111074  0.094161  0.001561  3.981672  0.001
C  C33  1  0.83022256  0.17296153  0.50835140  1  0.090531  0.009769  3.752362  0.006  0.096139  0.002515  3.994545  0.001  0.098525  0.003853  4.014831  0.002  0.1111  0.094261  0.00156  3.981485  0.001
C  C34  1  0.69779987  0.00742581  0.87061275  1  0.150853  0.011242  3.62392  0.007  0.121896  0.002239  3.880234  0.001  0.131586  0.003863  3.894404  0.002  0.06982  0.115469  0.000996  3.871298  0.0
C  C35  1  0.19779920  0.99258189  0.62938669  1  0.150814  0.011252  3.62403  0.007  0.121943  0.002239  3.880211  0.001  0.131633  0.003863  3.894379  0.002  0.069822  0.115515  0.000995  3.871271  0.0
C  C36  1  0.30219418  0.99257721  0.12938756  1  0.150851  0.011255  3.624075  0.007  0.121894  0.002239  3.880354  0.001  0.131582  0.003863  3.894529  0.002  0.069837  0.115467  0.000995  3.871419  0.0
C  C37  1  0.80219621  0.00742239  0.37061242  1  0.150842  0.011234  3.623897  0.007  0.121862  0.002239  3.880221  0.001  0.13155  0.003864  3.894392  0.002  0.069828  0.115432  0.000995  3.871287  0.0
C  C38  1  0.42774350  0.18208609  0.90489804  1  -0.015692  0.012429  3.711279  0.008  0.001661  0.00418  3.951132  0.002  0.000436  0.004818  3.969236  0.003  0.00534  0.001971  0.003696  3.939416  0.002
C  C39  1  0.92774884  0.81790774  0.59510305  1  -0.015688  0.012436  3.711335  0.008  0.001615  0.004179  3.951246  0.002  0.00039  0.004818  3.96935  0.003  0.005287  0.001928  0.003696  3.939537  0.002
C  C40  1  0.57225328  0.81791043  0.09510051  1  -0.015557  0.012436  3.711227  0.008  0.001572  0.004178  3.951311  0.002  0.000346  0.004818  3.969415  0.003  0.005262  0.001884  0.003696  3.939604  0.002
C  C41  1  0.07225884  0.18208632  0.40489919  1  -0.015756  0.012409  3.711223  0.008  0.00156  0.004178  3.951129  0.002  0.000334  0.004818  3.969235  0.003  0.005295  0.001873  0.003696  3.939421  0.002
C  C42  1  0.24575221  0.25188025  0.87953823  1  0.651852  -3.9e-05  3.946373  0.0  0.603764  0.000351  4.247673  0.0  0.637304  0.000284  4.238746  0.0  0.203628  0.581001  0.000382  4.253021  0.0
C  C43  1  0.74575615  0.74811975  0.62046066  1  0.651754  -3.8e-05  3.946375  0.0  0.603673  0.000353  4.247695  0.0  0.637212  0.000285  4.238768  0.0  0.203575  0.58091  0.000382  4.253045  0.0
C  C44  1  0.75424456  0.74812283  0.12046402  1  0.651767  -3.8e-05  3.946373  0.0  0.603761  0.000352  4.247629  0.0  0.637301  0.000284  4.238702  0.0  0.203642  0.581001  0.000381  4.252981  0.0
C  C45  1  0.25425153  0.25188198  0.37953956  1  0.651877  -3.8e-05  3.9462  0.0  0.603776  0.000353  4.247556  0.0  0.637315  0.000285  4.23863  0.0  0.203641  0.58101  0.000382  4.252907  0.0
C  C46  1  0.52977394  0.06667731  0.84542870  1  -0.109526  -0.010231  3.663416  -0.011  -0.133131  -0.003845  3.91309  -0.005  -0.136527  -0.003563  3.92894  -0.004  -0.06216  -0.131011  -0.004049  3.90291  -0.005
C  C47  1  0.02977596  0.93331859  0.65457046  1  -0.109478  -0.010238  3.663541  -0.011  -0.133097  -0.003845  3.913174  -0.005  -0.136493  -0.003564  3.929025  -0.004  -0.062148  -0.130975  -0.004049  3.902992  -0.005
C  C48  1  0.47022420  0.93332313  0.15457142  1  -0.109534  -0.01024  3.663246  -0.011  -0.13306  -0.003846  3.912942  -0.005  -0.136454  -0.003564  3.928789  -0.004  -0.062118  -0.130941  -0.00405  3.902764  -0.005
C  C49  1  0.97022763  0.06667668  0.34542928  1  -0.109436  -0.010223  3.663365  -0.011  -0.133015  -0.003845  3.913021  -0.005  -0.136408  -0.003564  3.92887  -0.004  -0.062153  -0.130897  -0.00405  3.902847  -0.005
C  C50  1  0.50085389  0.23535882  0.98811000  1  -0.103921  -0.006582  3.677018  -0.006  -0.136796  -0.002147  3.922768  -0.002  -0.139935  -0.00223  3.940994  -0.002  -0.060209  -0.134716  -0.002124  3.91101  -0.002
C  C51  1  0.00085412  0.76463573  0.51188841  1  -0.104048  -0.006588  3.676661  -0.006  -0.136825  -0.002147  3.922464  -0.002  -0.139963  -0.002231  3.940692  -0.002  -0.060231  -0.13474  -0.002124  3.910701  -0.002
C  C52  1  0.49914562  0.76463396  0.01189279  1  -0.104059  -0.006593  3.676994  -0.006  -0.136768  -0.002147  3.922808  -0.002  -0.139904  -0.00223  3.941033  -0.002  -0.060192  -0.134694  -0.002124  3.911061  -0.002
C  C53  1  0.99915493  0.23535950  0.48811005  1  -0.103959  -0.006573  3.676738  -0.006  -0.136772  -0.002147  3.922506  -0.002  -0.139911  -0.002231  3.940734  -0.002  -0.060226  -0.134684  -0.002124  3.910744  -0.002
N  N54  1  0.76606068  0.06102225  0.95064817  1  -0.303137  -0.071849  3.352365  -0.093  -0.259647  -0.048631  3.644817  -0.067  -0.287421  -0.040048  3.665493  -0.059  -0.345282  -0.242934  -0.053374  3.633075  -0.07
N  N55  1  0.26605982  0.93897647  0.54934999  1  -0.303283  -0.071853  3.352364  -0.093  -0.259782  -0.04863  3.644861  -0.067  -0.287544  -0.040046  3.665514  -0.059  -0.345313  -0.243056  -0.053373  3.633111  -0.07
N  N56  1  0.23393610  0.93897696  0.04935380  1  -0.303282  -0.071851  3.352496  -0.093  -0.259725  -0.048629  3.645005  -0.067  -0.287499  -0.040045  3.665683  -0.059  -0.345308  -0.243009  -0.053372  3.633258  -0.07
N  N57  1  0.73394377  0.06102264  0.45064875  1  -0.303172  -0.071845  3.352268  -0.093  -0.259675  -0.048633  3.644749  -0.067  -0.287441  -0.040049  3.665408  -0.059  -0.34528  -0.242946  -0.053377  3.632998  -0.07
O  O58  1  0.91137562  0.14745103  0.10728691  1  -0.596435  -0.085357  2.029181  -0.118  -0.572023  -0.057247  2.310416  -0.087  -0.613249  -0.043652  2.301707  -0.071  -0.335636  -0.544487  -0.066108  2.316642  -0.095
O  O59  1  0.41138200  0.85255128  0.39271331  1  -0.596401  -0.085339  2.02938  -0.118  -0.572048  -0.057239  2.310493  -0.087  -0.613257  -0.043647  2.301767  -0.071  -0.335621  -0.544509  -0.0661  2.316716  -0.095
O  O60  1  0.08861434  0.85254686  0.89271432  1  -0.596454  -0.085335  2.029335  -0.118  -0.572107  -0.057236  2.310457  -0.087  -0.613329  -0.043645  2.301741  -0.071  -0.335672  -0.544576  -0.066098  2.316681  -0.095
O  O61  1  0.58862296  0.14744785  0.60728607  1  -0.596366  -0.085351  2.029149  -0.118  -0.572028  -0.057243  2.310335  -0.087  -0.613238  -0.043648  2.301612  -0.071  -0.33564  -0.544486  -0.066104  2.316553  -0.095
O  O62  1  0.67440760  0.31802011  0.15536768  1  -0.657241  -0.014271  1.984926  -0.019  -0.617939  -0.007597  2.219073  -0.011  -0.643955  -0.003507  2.211754  -0.006  -0.46526  -0.598557  -0.012133  2.22292  -0.016
O  O63  1  0.17441505  0.68196776  0.34463270  1  -0.657257  -0.014268  1.984963  -0.019  -0.618022  -0.007595  2.218988  -0.011  -0.64404  -0.003506  2.211668  -0.006  -0.465399  -0.598645  -0.012131  2.222835  -0.016
O  O64  1  0.32558918  0.68196753  0.84463538  1  -0.657337  -0.014266  1.984819  -0.019  -0.618097  -0.007595  2.218844  -0.011  -0.644118  -0.003506  2.211532  -0.006  -0.465394  -0.598721  -0.01213  2.222689  -0.016
O  O65  1  0.82559672  0.31802237  0.65536732  1  -0.657242  -0.014268  1.984927  -0.019  -0.617993  -0.007595  2.218999  -0.011  -0.644007  -0.003506  2.211677  -0.006  -0.465307  -0.598629  -0.012131  2.222871  -0.016
O  O66  1  0.65699685  0.48960227  0.39328969  1  -0.895575  8e-05  1.734514  0.0  -0.851013  7.3e-05  1.884392  0.0  -0.86818  6.3e-05  1.855209  0.0  -0.677779  -0.83861  6.6e-05  1.904887  0.0
O  O67  1  0.15700508  0.51040723  0.10670194  1  -0.895372  7.9e-05  1.734625  0.0  -0.850772  7.2e-05  1.884495  0.0  -0.867939  6.2e-05  1.855316  0.0  -0.67765  -0.838371  6.6e-05  1.904989  0.0
O  O68  1  0.34299993  0.51040062  0.60670610  1  -0.89557  7.7e-05  1.734509  0.0  -0.85095  7.3e-05  1.884361  0.0  -0.868118  6.3e-05  1.855182  0.0  -0.677711  -0.83856  6.6e-05  1.904882  0.0
O  O69  1  0.84299715  0.48959572  0.89329579  1  -0.895488  7.8e-05  1.734574  0.0  -0.850887  7.3e-05  1.884448  0.0  -0.868056  6.3e-05  1.855267  0.0  -0.677704  -0.83849  6.6e-05  1.904949  0.0
O  O70  1  0.22990995  0.27453472  0.80103859  1  -0.68648  0.000784  1.936389  0.001  -0.639427  0.000433  2.167068  0.0  -0.662691  0.000486  2.157315  0.0  -0.423697  -0.622775  0.000378  2.173188  0.0
O  O71  1  0.72991534  0.72546400  0.69896085  1  -0.686433  0.000784  1.936412  0.001  -0.639382  0.000431  2.167116  0.0  -0.662645  0.000485  2.15736  0.0  -0.423687  -0.622728  0.000378  2.173238  0.0
O  O72  1  0.77008547  0.72546576  0.19896283  1  -0.686488  0.000784  1.936547  0.001  -0.63945  0.000433  2.167194  0.0  -0.662716  0.000485  2.157451  0.0  -0.423721  -0.622798  0.000378  2.173319  0.0
O  O73  1  0.27008826  0.27454032  0.30103956  1  -0.68648  0.000784  1.936388  0.001  -0.639427  0.000431  2.16709  0.0  -0.662686  0.000486  2.15733  0.0  -0.423697  -0.622776  0.000378  2.173213  0.0
O  O74  1  0.12609942  0.28473954  0.93975397  1  -0.668146  0.001892  1.988627  0.001  -0.61603  0.001701  2.221123  0.0  -0.643899  0.001866  2.208833  0.001  -0.314233  -0.596546  0.001481  2.229514  0.0
O  O75  1  0.62610322  0.71525260  0.56024495  1  -0.668111  0.001891  1.98855  0.001  -0.616023  0.0017  2.221076  0.0  -0.643885  0.001867  2.20878  0.001  -0.314198  -0.596536  0.001481  2.229466  0.0
O  O76  1  0.87390008  0.71526485  0.06024902  1  -0.66814  0.001892  1.988567  0.001  -0.616014  0.0017  2.221006  0.0  -0.643884  0.001866  2.208723  0.001  -0.31423  -0.596529  0.00148  2.229397  0.0
O  O77  1  0.37390719  0.28474136  0.43975405  1  -0.668173  0.00189  1.988585  0.001  -0.616063  0.001701  2.221089  0.0  -0.643926  0.001867  2.208799  0.001  -0.314243  -0.596577  0.00148  2.229479  0.0
