# generated using pymatgen
data_ZnH16C21N4O5
_symmetry_space_group_name_H-M   'P 1'
_cell_length_a   10.23188605
_cell_length_b   10.11443950
_cell_length_c   10.94699193
_cell_angle_alpha   105.81648722
_cell_angle_beta   102.65576450
_cell_angle_gamma   107.09100519
_symmetry_Int_Tables_number   1
_chemical_formula_structural   ZnH16C21N4O5
_chemical_formula_sum   'Zn2 H32 C42 N8 O10'
_cell_volume   985.19477450
_cell_formula_units_Z   2
loop_
 _symmetry_equiv_pos_site_id
 _symmetry_equiv_pos_as_xyz
  1  'x, y, z'
loop_
 _atom_site_type_symbol
 _atom_site_label
 _atom_site_symmetry_multiplicity
 _atom_site_fract_x
 _atom_site_fract_y
 _atom_site_fract_z
 _atom_site_occupancy
 _atom_site_pbe_bader_spin_density
 _atom_site_pbe_cm5_charge
 _atom_site_pbe_ddec_charge
 _atom_site_pbe_ddec_spin_density
 _atom_site_pbe_ddec_sum_bond_order
 _atom_site_pbe_magmom
Zn  Zn0  1  0.59865073  0.27408980  0.16213036  1  0  0.693766  0.77062  0  2.401683  0
Zn  Zn1  1  0.40135196  0.72590977  0.83787131  1  0  0.693782  0.770623  0  2.401682  0
H  H2  1  0.11624899  0.32303935  0.18900434  1  0  0.101186  0.110979  0  1.025734  0
H  H3  1  0.88375539  0.67696464  0.81100154  1  0  0.101174  0.110959  0  1.025776  0
H  H4  1  0.20470860  0.92693806  0.14815907  1  0  0.10104  0.11141  0  1.047437  0
H  H5  1  0.79529488  0.07306374  0.85184150  1  0  0.101051  0.111411  0  1.047449  0
H  H6  1  0.78891951  0.92985863  0.17174906  1  0  0.106446  0.127876  0  0.996747  0
H  H7  1  0.21108071  0.07013986  0.82824820  1  0  0.106465  0.127908  0  0.996718  0
H  H8  1  0.12747721  0.72268081  0.20109558  1  0  0.08669  0.080841  0  1.026633  0
H  H9  1  0.87252470  0.27732210  0.79890590  1  0  0.086699  0.080857  0  1.026622  0
H  H10  1  0.04999761  0.68231677  0.02473039  1  0  0.100285  0.114574  0  1.020503  0
H  H11  1  0.95000566  0.31768169  0.97527018  1  0  0.100262  0.114519  0  1.020508  0
H  H12  1  0.96212364  0.56683248  0.10489345  1  0  0.105718  0.122045  0  1.008299  0
H  H13  1  0.03787846  0.43316821  0.89510839  1  0  0.105719  0.122029  0  1.008334  0
H  H14  1  0.07809070  0.78665524  0.44066664  1  0  0.114242  0.120584  0  0.985706  0
H  H15  1  0.92190919  0.21334768  0.55933355  1  0  0.114247  0.120624  0  0.985638  0
H  H16  1  0.74843658  0.95796072  0.49992618  1  0  0.103029  0.105876  0  1.048432  0
H  H17  1  0.25156430  0.04204220  0.50007328  1  0  0.103008  0.105845  0  1.048463  0
H  H18  1  0.86147080  0.59176301  0.26707411  1  0  0.143763  0.116553  0  1.031476  0
H  H19  1  0.13852621  0.40823772  0.73292130  1  0  0.143787  0.116559  0  1.031438  0
H  H20  1  0.52038878  0.44069464  0.41236488  1  0  0.119615  0.11077  0  1.035746  0
H  H21  1  0.47961578  0.55930713  0.58764046  1  0  0.119616  0.110834  0  1.035737  0
H  H22  1  0.67912348  0.74281787  0.56373301  1  0  0.123341  0.124385  0  1.03458  0
H  H23  1  0.32088611  0.25718945  0.43627290  1  0  0.123348  0.124369  0  1.034661  0
H  H24  1  0.65638051  0.26561304  0.56956694  1  0  0.112198  0.120601  0  0.992024  0
H  H25  1  0.34361352  0.73438212  0.43043102  1  0  0.11218  0.120611  0  0.992106  0
H  H26  1  0.39237608  0.90740054  0.65800881  1  0  0.112659  0.131794  0  1.033742  0
H  H27  1  0.60761854  0.09259351  0.34198897  1  0  0.112678  0.131849  0  1.033699  0
H  H28  1  0.53254304  0.04542584  0.86866930  1  0  0.139797  0.123409  0  1.044028  0
H  H29  1  0.46745639  0.95457042  0.13132906  1  0  0.139808  0.123435  0  1.044029  0
H  H30  1  0.63751970  0.50976094  0.00308549  1  0  0.125479  0.127257  0  0.999983  0
H  H31  1  0.36246435  0.49023425  0.99691150  1  0  0.125502  0.127239  0  1.000042  0
H  H32  1  0.60401418  0.41089091  0.73599846  1  0  0.121962  0.125689  0  1.044527  0
H  H33  1  0.39597686  0.58910426  0.26399894  1  0  0.121935  0.125637  0  1.044576  0
C  C34  1  0.94394521  0.13648453  0.18601781  1  0  -0.024524  -0.019737  0  4.002456  0
C  C35  1  0.05605730  0.86351726  0.81398441  1  0  -0.024476  -0.01975  0  4.002653  0
C  C36  1  0.08259375  0.20869288  0.18393539  1  0  -0.094903  -0.145992  0  3.984767  0
C  C37  1  0.91741158  0.79131112  0.81606793  1  0  -0.094917  -0.145973  0  3.984942  0
C  C38  1  0.17555542  0.13281421  0.17074522  1  0  -0.0267  -0.019805  0  4.023567  0
C  C39  1  0.82444711  0.86718758  0.82925791  1  0  -0.026725  -0.019858  0  4.023654  0
C  C40  1  0.13096262  0.98413894  0.16058410  1  0  -0.102525  -0.225519  0  3.949345  0
C  C41  1  0.86903987  0.01586286  0.83941720  1  0  -0.102554  -0.225529  0  3.949476  0
C  C42  1  0.99167415  0.91133237  0.16088981  1  0  0.080318  0.25379  0  4.059154  0
C  C43  1  0.00832734  0.08866944  0.83911038  1  0  0.080309  0.253742  0  4.059177  0
C  C44  1  0.89831762  0.98784317  0.17460801  1  0  -0.09268  -0.1961  0  3.923423  0
C  C45  1  0.10168585  0.01215864  0.82539165  1  0  -0.092711  -0.196076  0  3.92337  0
C  C46  1  0.84372604  0.21922227  0.18944636  1  0  0.193457  0.565041  0  4.209566  0
C  C47  1  0.15627422  0.78077621  0.81055365  1  0  0.19349  0.565125  0  4.209507  0
C  C48  1  0.32102186  0.21146581  0.16287645  1  0  0.193688  0.551438  0  4.223794  0
C  C49  1  0.67898229  0.78853485  0.83712851  1  0  0.19365  0.551389  0  4.223917  0
C  C50  1  0.02549931  0.68065652  0.11744613  1  0  -0.145411  -0.184658  0  3.879487  0
C  C51  1  0.97450278  0.31934417  0.88255480  1  0  -0.145376  -0.184572  0  3.879503  0
C  C52  1  0.90266466  0.85710890  0.46634852  1  0  0.101607  0.167625  0  3.999751  0
C  C53  1  0.09733596  0.14289627  0.53364690  1  0  0.101635  0.167673  0  3.999694  0
C  C54  1  0.04353927  0.87991124  0.46508238  1  0  -0.077381  -0.134631  0  3.973164  0
C  C55  1  0.95645895  0.12009283  0.53491322  1  0  -0.077388  -0.134722  0  3.973028  0
C  C56  1  0.85916921  0.97676629  0.50170901  1  0  -0.081911  -0.139043  0  3.969912  0
C  C57  1  0.14083103  0.02323777  0.49828788  1  0  -0.081891  -0.139059  0  3.96994  0
C  C58  1  0.79030832  0.58985023  0.32698669  1  0  0.155607  0.115216  0  3.858449  0
C  C59  1  0.20969295  0.41015381  0.67301222  1  0  0.155553  0.115181  0  3.858594  0
C  C60  1  0.61533054  0.51787489  0.40635492  1  0  -0.000597  -0.032626  0  4.00915  0
C  C61  1  0.38468085  0.48213465  0.59365100  1  0  -0.000687  -0.032912  0  4.009035  0
C  C62  1  0.68989875  0.66624049  0.47921922  1  0  0.003363  -0.102992  0  3.911597  0
C  C63  1  0.31010619  0.33376240  0.52078465  1  0  0.003372  -0.102883  0  3.911654  0
C  C64  1  0.52919884  0.09762049  0.62968578  1  0  0.095825  0.157356  0  4.02051  0
C  C65  1  0.47079619  0.90237467  0.37031237  1  0  0.095848  0.157336  0  4.02054  0
C  C66  1  0.58656560  0.14956218  0.53911206  1  0  -0.089131  -0.160894  0  3.986892  0
C  C67  1  0.41342702  0.85043188  0.46088535  1  0  -0.08912  -0.16094  0  3.986773  0
C  C68  1  0.44212483  0.94747752  0.58997333  1  0  -0.083448  -0.143511  0  3.962085  0
C  C69  1  0.55787065  0.05251874  0.41002702  1  0  -0.083453  -0.143596  0  3.962265  0
C  C70  1  0.55201249  0.15728111  0.87043393  1  0  0.150872  0.109761  0  3.839949  0
C  C71  1  0.44798738  0.84271625  0.12956662  1  0  0.150888  0.109783  0  3.840023  0
C  C72  1  0.60956753  0.39743877  0.93608335  1  0  0.010609  -0.003841  0  3.945403  0
C  C73  1  0.39042366  0.60255419  0.06391167  1  0  0.010597  -0.003881  0  3.945481  0
C  C74  1  0.59476860  0.34951632  0.80247451  1  0  -0.000431  -0.102472  0  3.903222  0
C  C75  1  0.40522785  0.65047995  0.19752420  1  0  -0.00041  -0.102363  0  3.903215  0
N  N76  1  0.80079911  0.71069529  0.42761773  1  0  -0.219234  0.021362  0  3.777916  0
N  N77  1  0.19920156  0.28930986  0.57238044  1  0  -0.219226  0.021302  0  3.778136  0
N  N78  1  0.67863448  0.47226538  0.31215052  1  0  -0.35388  -0.268324  0  3.607477  0
N  N79  1  0.32136746  0.52773752  0.68785279  1  0  -0.353818  -0.268135  0  3.607304  0
N  N80  1  0.55748246  0.19656664  0.76107945  1  0  -0.224856  0.004764  0  3.788971  0
N  N81  1  0.44251497  0.80342963  0.23891853  1  0  -0.224833  0.004817  0  3.789089  0
N  N82  1  0.58258969  0.27669043  0.97681846  1  0  -0.350375  -0.270841  0  3.595733  0
N  N83  1  0.41740515  0.72330695  0.02317932  1  0  -0.35045  -0.270948  0  3.595769  0
O  O84  1  0.71596024  0.15041214  0.19309485  1  0  -0.340783  -0.569362  0  2.296346  0
O  O85  1  0.28404062  0.84958523  0.80690498  1  0  -0.34081  -0.569396  0  2.296331  0
O  O86  1  0.88354324  0.34696609  0.18446147  1  0  -0.333768  -0.576395  0  2.158014  0
O  O87  1  0.11645401  0.65303240  0.81553705  1  0  -0.333769  -0.576428  0  2.15803  0
O  O88  1  0.34805961  0.33235660  0.14527743  1  0  -0.318019  -0.546184  0  2.177204  0
O  O89  1  0.65194749  0.66764407  0.85472535  1  0  -0.317927  -0.546127  0  2.177404  0
O  O90  1  0.41512371  0.14843589  0.17735970  1  0  -0.342562  -0.568225  0  2.316202  0
O  O91  1  0.58487947  0.85156476  0.82264691  1  0  -0.3426  -0.568213  0  2.316096  0
O  O92  1  0.93801044  0.76504882  0.14675279  1  0  -0.193447  -0.180379  0  2.58321  0
O  O93  1  0.06199062  0.23495188  0.85324612  1  0  -0.193463  -0.180383  0  2.583176  0
