# generated using pymatgen
data_CuH5C7N2
_symmetry_space_group_name_H-M   'P 1'
_cell_length_a   27.19032625
_cell_length_b   27.52953241
_cell_length_c   28.33740466
_cell_angle_alpha   88.26228252
_cell_angle_beta   88.25196525
_cell_angle_gamma   87.06021405
_symmetry_Int_Tables_number   1
_chemical_formula_structural   CuH5C7N2
_chemical_formula_sum   'Cu12 H60 C84 N24'
_cell_volume   21165.03229192
_cell_formula_units_Z   12
loop_
 _symmetry_equiv_pos_site_id
 _symmetry_equiv_pos_as_xyz
  1  'x, y, z'
loop_
 _atom_site_type_symbol
 _atom_site_label
 _atom_site_symmetry_multiplicity
 _atom_site_fract_x
 _atom_site_fract_y
 _atom_site_fract_z
 _atom_site_occupancy
 _atom_site_pbe_bader_charge
 _atom_site_pbe_bader_spin_density
 _atom_site_pbe_cm5_charge
 _atom_site_pbe_ddec_charge
 _atom_site_pbe_ddec_spin_density
 _atom_site_pbe_ddec_sum_bond_order
 _atom_site_pbe_magmom
Cu  Cu0  1  0.11727615  0.81659326  0.90437336  1  0.540635  0  0.483139  0.203816  0  2.118665  0
Cu  Cu1  1  0.15706259  0.91569813  0.86367082  1  0.544265  0  0.483137  0.205039  0  2.109518  0
Cu  Cu2  1  0.07268908  0.86416628  0.81073764  1  0.542597  0  0.482967  0.202313  0  2.115965  0
Cu  Cu3  1  0.87641068  0.33303468  0.59101860  1  0.542127  0  0.483477  0.20476  0  2.114683  0
Cu  Cu4  1  0.81893509  0.42412088  0.63723102  1  0.541185  0  0.481275  0.202531  0  2.108259  0
Cu  Cu5  1  0.91137837  0.37240686  0.68772014  1  0.538607  0  0.483867  0.203364  0  2.119413  0
Cu  Cu6  1  0.61575469  0.68587428  0.10045854  1  0.540888  0  0.483444  0.203003  0  2.12293  0
Cu  Cu7  1  0.66220206  0.58557676  0.13857697  1  0.542148  0  0.481657  0.205239  0  2.104115  0
Cu  Cu8  1  0.56449958  0.63300926  0.18836361  1  0.542502  0  0.483142  0.202332  0  2.117148  0
Cu  Cu9  1  0.39945470  0.14980794  0.42001678  1  0.541643  0  0.483364  0.206438  0  2.112078  0
Cu  Cu10  1  0.33462800  0.09776757  0.34761419  1  0.540987  0  0.484153  0.203545  0  2.1218  0
Cu  Cu11  1  0.44196883  0.12801450  0.31758591  1  0.540775  0  0.482715  0.202087  0  2.121222  0
H  H12  1  0.64860764  0.28912289  0.42744053  1  0.033457  0  0.096511  0.098076  0  1.0144  0
H  H13  1  0.59024718  0.36621775  0.30524574  1  0.05547  0  0.096065  0.097493  0  1.016436  0
H  H14  1  0.71014673  0.42317785  0.37848124  1  0.036494  0  0.096518  0.098895  0  1.013057  0
H  H15  1  0.36382691  0.83449199  0.04549283  1  0.045191  0  0.096971  0.099157  0  1.013315  0
H  H16  1  0.42102346  0.89557173  0.16932259  1  0.038245  0  0.095834  0.095869  0  1.02334  0
H  H17  1  0.29122124  0.96186928  0.10583098  1  0.03724  0  0.096418  0.09911  0  1.006757  0
H  H18  1  0.13623309  0.18420505  0.54879827  1  0.057891  0  0.096565  0.099243  0  1.012379  0
H  H19  1  0.07108027  0.12517027  0.67725632  1  0.063814  0  0.095943  0.097108  0  1.023281  0
H  H20  1  0.21716318  0.07557434  0.63199462  1  0.047982  0  0.096829  0.099937  0  1.004685  0
H  H21  1  0.81455993  0.54642058  0.89223002  1  0.065703  0  0.096689  0.099179  0  1.014307  0
H  H22  1  0.94392934  0.61189130  0.83334736  1  0.024655  0  0.096469  0.098231  0  1.014595  0
H  H23  1  0.87134185  0.67033974  0.95777314  1  0.042714  0  0.096678  0.098387  0  1.015121  0
H  H24  1  0.19477284  0.79092909  0.98458441  1  0.090887  0  0.120222  0.112745  0  0.987147  0
H  H25  1  0.23799729  0.93465452  0.93927492  1  0.103245  0  0.120008  0.111607  0  0.99044  0
H  H26  1  0.99373753  0.78654550  0.78863409  1  0.103634  0  0.120016  0.112316  0  0.988034  0
H  H27  1  0.04426203  0.73157759  0.92454919  1  0.100981  0  0.120003  0.111164  0  0.990881  0
H  H28  1  0.16957024  0.00881129  0.79681291  1  0.100611  0  0.119508  0.110883  0  0.991581  0
H  H29  1  0.05307073  0.94067518  0.72638233  1  0.099671  0  0.120332  0.113313  0  0.987555  0
H  H30  1  0.81307955  0.32110897  0.50054333  1  0.097555  0  0.1197  0.110835  0  0.991451  0
H  H31  1  0.74118300  0.45159806  0.55738868  1  0.109869  0  0.120127  0.113002  0  0.988052  0
H  H32  1  0.99879986  0.29497093  0.71074043  1  0.119965  0  0.120988  0.113552  0  0.987234  0
H  H33  1  0.95719727  0.24716563  0.57393431  1  0.108627  0  0.120031  0.111215  0  0.991054  0
H  H34  1  0.78667425  0.50387904  0.71281966  1  0.088848  0  0.119752  0.112686  0  0.987843  0
H  H35  1  0.91896869  0.43992543  0.77567457  1  0.081594  0  0.119591  0.11103  0  0.990822  0
H  H36  1  0.69554183  0.71321296  0.02084498  1  0.096127  0  0.120107  0.113013  0  0.987926  0
H  H37  1  0.75025956  0.56812523  0.06240517  1  0.102095  0  0.120025  0.111815  0  0.990569  0
H  H38  1  0.47599305  0.71070853  0.21124435  1  0.091433  0  0.120327  0.113255  0  0.987883  0
H  H39  1  0.53978500  0.77508896  0.08367007  1  0.101049  0  0.119472  0.110465  0  0.992514  0
H  H40  1  0.68106518  0.49300083  0.20605623  1  0.099344  0  0.119365  0.111428  0  0.991166  0
H  H41  1  0.54306220  0.55129469  0.26658215  1  0.116257  0  0.120132  0.113255  0  0.987149  0
H  H42  1  0.32519505  0.15541270  0.50868357  1  0.107922  0  0.119705  0.110788  0  0.991354  0
H  H43  1  0.23065784  0.10257361  0.40325488  1  0.087084  0  0.120018  0.112748  0  0.987435  0
H  H44  1  0.53031194  0.20035243  0.31135941  1  0.102709  0  0.120296  0.11154  0  0.990916  0
H  H45  1  0.48390239  0.21277441  0.45828967  1  0.095282  0  0.119967  0.112418  0  0.988581  0
H  H46  1  0.31426650  0.02429838  0.26747246  1  0.088399  0  0.120042  0.110855  0  0.991265  0
H  H47  1  0.46428170  0.05942932  0.23019144  1  0.092383  0  0.120428  0.11336  0  0.987233  0
H  H48  1  0.26683505  0.93492485  0.02819817  1  0.052981  0  0.096297  0.097085  0  1.000741  0
H  H49  1  0.28289281  0.82371822  0.02546280  1  0.053532  0  0.099559  0.100056  0  0.995716  0
H  H50  1  0.72593610  0.31629688  0.46114380  1  0.07231  0  0.096512  0.097913  0  0.998862  0
H  H51  1  0.71470520  0.42789961  0.46276308  1  0.05746  0  0.099647  0.100951  0  0.995141  0
H  H52  1  0.78315771  0.57047317  0.97141176  1  0.029643  0  0.096853  0.098977  0  0.998706  0
H  H53  1  0.78870971  0.68118093  0.97847311  1  0.045755  0  0.099456  0.099988  0  0.997161  0
H  H54  1  0.25874408  0.11887834  0.56566910  1  0.060572  0  0.096549  0.097053  0  0.999772  0
H  H55  1  0.18160865  0.13620714  0.48914839  1  0.057992  0  0.09922  0.10012  0  0.995019  0
H  H56  1  0.95304590  0.69955295  0.92982137  1  0.051188  0  0.096824  0.098771  0  0.998125  0
H  H57  1  0.95628028  0.69481375  0.82154713  1  0.048151  0  0.099607  0.100059  0  0.996692  0
H  H58  1  0.56257051  0.28633097  0.32531137  1  0.05944  0  0.096463  0.097324  0  1.000322  0
H  H59  1  0.57164127  0.26082251  0.43111070  1  0.086078  0  0.099436  0.099954  0  0.998078  0
H  H60  1  0.04896112  0.20819321  0.57259462  1  0.028766  0  0.09646  0.098601  0  0.998265  0
H  H61  1  0.04781848  0.20806004  0.68107528  1  0.088345  0  0.099591  0.100532  0  0.995954  0
H  H62  1  0.44632862  0.80638660  0.07447721  1  0.049043  0  0.096853  0.098431  0  0.998551  0
H  H63  1  0.43723482  0.80879230  0.18274345  1  0.049572  0  0.100189  0.102291  0  0.992684  0
H  H64  1  0.18254685  0.04947134  0.71119555  1  0.014121  0  0.096776  0.098535  0  0.998552  0
H  H65  1  0.07347851  0.03635752  0.69216426  1  0.079233  0  0.099712  0.101689  0  0.992374  0
H  H66  1  0.68729561  0.45567860  0.29672611  1  0.061625  0  0.097224  0.099515  0  0.997082  0
H  H67  1  0.57443480  0.45341068  0.29775757  1  0.026467  0  0.09937  0.099998  0  0.995816  0
H  H68  1  0.31664418  0.98832700  0.18394113  1  0.049244  0  0.096695  0.097749  0  0.999656  0
H  H69  1  0.42964721  0.97733352  0.18491979  1  0.042443  0  0.099879  0.10091  0  0.994584  0
H  H70  1  0.92089248  0.53068719  0.80735096  1  0.065319  0  0.097114  0.098575  0  0.997792  0
H  H71  1  0.80778123  0.53591524  0.80692330  1  0.072244  0  0.099542  0.100854  0  0.994595  0
C  C72  1  0.68173768  0.35681939  0.40873201  1  0.004851  0  -0.016266  0.119981  0  4.085172  0
C  C73  1  0.64801908  0.32060775  0.40305111  1  -0.03597  0  -0.094911  -0.190059  0  3.908837  0
C  C74  1  0.61401863  0.32395635  0.36657047  1  -0.022221  0  -0.01706  0.119429  0  4.088836  0
C  C75  1  0.61542102  0.36396549  0.33460360  1  -0.045841  0  -0.09559  -0.193329  0  3.917655  0
C  C76  1  0.64939991  0.40024703  0.33868018  1  0.042656  0  -0.017096  0.120267  0  4.086566  0
C  C77  1  0.68268042  0.39592454  0.37567965  1  -0.080392  0  -0.09533  -0.192807  0  3.914317  0
C  C78  1  0.32240255  0.89775015  0.07180697  1  -0.061694  0  -0.017126  0.119793  0  4.093183  0
C  C79  1  0.36100908  0.86185127  0.07266002  1  -0.067988  0  -0.095568  -0.192052  0  3.913616  0
C  C80  1  0.39608605  0.86004477  0.10813481  1  -0.014948  0  -0.016141  0.120376  0  4.085343  0
C  C81  1  0.39339344  0.89624567  0.14213808  1  0.03021  0  -0.095373  -0.190362  0  3.908506  0
C  C82  1  0.35607244  0.93351405  0.14143684  1  -0.015318  0  -0.017673  0.118482  0  4.090196  0
C  C83  1  0.32061648  0.93330967  0.10642214  1  -0.013217  0  -0.095209  -0.193657  0  3.922603  0
C  C84  1  0.18109831  0.12903473  0.58572270  1  0.013598  0  -0.017731  0.120531  0  4.091856  0
C  C85  1  0.13815918  0.15880369  0.57911754  1  -0.049604  0  -0.095305  -0.194146  0  3.912988  0
C  C86  1  0.09917243  0.15936135  0.61288143  1  -0.014774  0  -0.017088  0.119898  0  4.085229  0
C  C87  1  0.10191373  0.12640958  0.65175008  1  -0.039097  0  -0.096918  -0.196601  0  3.917882  0
C  C88  1  0.14392709  0.09551755  0.65865476  1  -0.027383  0  -0.016461  0.121703  0  4.088858  0
C  C89  1  0.18410236  0.09910873  0.62664358  1  -0.071936  0  -0.095338  -0.193784  0  3.920242  0
C  C90  1  0.83733891  0.60907303  0.92849747  1  -0.017546  0  -0.017404  0.119888  0  4.083749  0
C  C91  1  0.84100293  0.57494205  0.89245544  1  -0.013429  0  -0.095393  -0.193725  0  3.91549  0
C  C92  1  0.87876016  0.57600999  0.85752521  1  -0.034107  0  -0.016542  0.119672  0  4.088181  0
C  C93  1  0.91351498  0.61184229  0.85939032  1  -0.086441  0  -0.09546  -0.192095  0  3.915984  0
C  C94  1  0.91044102  0.64703340  0.89437673  1  0.047096  0  -0.017409  0.120087  0  4.087538  0
C  C95  1  0.87270033  0.64454312  0.92919596  1  -0.045116  0  -0.094895  -0.191456  0  3.912406  0
C  C96  1  0.19943205  0.82636007  0.96765413  1  0.409215  0  0.005512  -0.0586  0  3.954676  0
C  C97  1  0.23209346  0.86226350  0.97808024  1  0.010761  0  -0.039894  0.014985  0  4.126186  0
C  C98  1  0.22083015  0.90017006  0.94512264  1  0.421688  0  0.006142  -0.056691  0  3.947116  0
C  C99  1  0.01196110  0.77910024  0.82183393  1  0.392686  0  0.005377  -0.058502  0  3.955451  0
C  C100  1  0.00312594  0.74297864  0.85677742  1  0.020342  0  -0.040637  0.013537  0  4.129596  0
C  C101  1  0.03708177  0.75158466  0.89167522  1  0.38083  0  0.00607  -0.055456  0  3.948175  0
C  C102  1  0.14179801  0.98546633  0.78480613  1  0.409604  0  0.00525  -0.057647  0  3.946958  0
C  C103  1  0.11054048  0.99202502  0.74622601  1  0.010799  0  -0.039782  0.016603  0  4.125571  0
C  C104  1  0.08168250  0.95105758  0.74941238  1  0.384346  0  0.004688  -0.061576  0  3.954889  0
C  C105  1  0.80014684  0.35197533  0.52127208  1  0.372537  0  0.005691  -0.056245  0  3.949772  0
C  C106  1  0.76262962  0.38770629  0.51178281  1  0.029855  0  -0.040377  0.01498  0  4.127053  0
C  C107  1  0.76412704  0.41917099  0.54982749  1  0.378446  0  0.00453  -0.061701  0  3.954446  0
C  C108  1  0.98220653  0.28928660  0.67711649  1  0.353905  0  0.004351  -0.060466  0  3.955789  0
C  C109  1  0.99531913  0.25462634  0.64291259  1  0.053274  0  -0.040025  0.014229  0  4.129556  0
C  C110  1  0.96161249  0.26534956  0.60687740  1  0.379341  0  0.006445  -0.054488  0  3.943038  0
C  C111  1  0.81979799  0.48251122  0.72220278  1  0.411428  0  0.004164  -0.060849  0  3.956224  0
C  C112  1  0.85064851  0.48720226  0.76055204  1  0.041023  0  -0.03967  0.015028  0  4.126262  0
C  C113  1  0.88794795  0.45055641  0.75376492  1  0.398924  0  0.005389  -0.057223  0  3.947605  0
C  C114  1  0.70273523  0.67736981  0.03695360  1  0.373252  0  0.004763  -0.061079  0  3.957976  0
C  C115  1  0.73936486  0.64147037  0.02527126  1  0.03942  0  -0.03965  0.015219  0  4.125006  0
C  C116  1  0.73009099  0.60287775  0.05752876  1  0.395064  0  0.006416  -0.056159  0  3.943859  0
C  C117  1  0.49786641  0.72030761  0.17996899  1  0.400677  0  0.004078  -0.061382  0  3.955577  0
C  C118  1  0.49101491  0.75966225  0.14764695  1  -0.011293  0  -0.040148  0.014903  0  4.126354  0
C  C119  1  0.52988409  0.75262585  0.11428409  1  0.403108  0  0.005017  -0.057073  0  3.951976  0
C  C120  1  0.64784543  0.51428015  0.21595081  1  0.3596  0  0.005614  -0.058073  0  3.949009  0
C  C121  1  0.61207671  0.50474274  0.25146607  1  0.029347  0  -0.0399  0.016118  0  4.127442  0
C  C122  1  0.57682133  0.54351755  0.24614358  1  0.398483  0  0.003925  -0.061891  0  3.956702  0
C  C123  1  0.30896950  0.14123181  0.47774541  1  0.354065  0  0.006333  -0.055154  0  3.944996  0
C  C124  1  0.25986817  0.13007177  0.47062694  1  0.054292  0  -0.040026  0.015079  0  4.126815  0
C  C125  1  0.26043728  0.11527673  0.42356202  1  0.412529  0  0.005092  -0.059976  0  3.955019  0
C  C126  1  0.51232426  0.19853918  0.34604514  1  0.395516  0  0.007143  -0.053733  0  3.944802  0
C  C127  1  0.52347389  0.22178251  0.38770208  1  -0.007203  0  -0.040102  0.013826  0  4.127718  0
C  C128  1  0.48921116  0.20409711  0.42131683  1  0.414553  0  0.004934  -0.059117  0  3.957443  0
C  C129  1  0.35040891  0.03919576  0.26368107  1  0.418167  0  0.00692  -0.053155  0  3.943056  0
C  C130  1  0.38981446  0.02667812  0.23227621  1  -0.024973  0  -0.040159  0.014223  0  4.127806  0
C  C131  1  0.42731396  0.05654009  0.24524798  1  0.390111  0  0.005196  -0.060819  0  3.953074  0
C  C132  1  0.28449946  0.89910540  0.03620174  1  0.03632  0  -0.101225  -0.148562  0  4.018714  0
C  C133  1  0.26851610  0.86006371  0.01450925  1  -0.137801  0  -0.096233  -0.119313  0  4.050512  0
C  C134  1  0.71475302  0.35315463  0.44869019  1  -0.105682  0  -0.100973  -0.149094  0  4.016262  0
C  C135  1  0.72953854  0.39136665  0.47249927  1  -0.005065  0  -0.096388  -0.120041  0  4.052209  0
C  C136  1  0.79780475  0.60640897  0.96458321  1  -0.017099  0  -0.101572  -0.150116  0  4.017622  0
C  C137  1  0.77723614  0.64458883  0.98825899  1  -0.068219  0  -0.096743  -0.119987  0  4.052823  0
C  C138  1  0.22227521  0.12742441  0.55131269  1  -0.012891  0  -0.10049  -0.147583  0  4.019914  0
C  C139  1  0.21835614  0.13214526  0.50397691  1  -0.0922  0  -0.096613  -0.120289  0  4.053611  0
C  C140  1  0.94561486  0.68547082  0.89516593  1  -0.055279  0  -0.100553  -0.149277  0  4.014587  0
C  C141  1  0.96717928  0.70588559  0.85634722  1  -0.029525  0  -0.096325  -0.118889  0  4.052976  0
C  C142  1  0.57774135  0.28741141  0.36059270  1  -0.10731  0  -0.102131  -0.14879  0  4.017732  0
C  C143  1  0.55983349  0.25735451  0.39484577  1  -0.028038  0  -0.096153  -0.119059  0  4.050223  0
C  C144  1  0.05834048  0.19584265  0.60845009  1  -0.00519  0  -0.101617  -0.149827  0  4.013163  0
C  C145  1  0.03492759  0.21752382  0.64558584  1  -0.10015  0  -0.09567  -0.117574  0  4.055721  0
C  C146  1  0.43405837  0.82037027  0.10887567  1  -0.130041  0  -0.100833  -0.148872  0  4.018134  0
C  C147  1  0.45256698  0.79824972  0.14814956  1  0.064489  0  -0.096278  -0.120344  0  4.048739  0
C  C148  1  0.14629522  0.05803362  0.69639544  1  -0.005559  0  -0.100564  -0.148839  0  4.01614  0
C  C149  1  0.10831993  0.03075624  0.71041378  1  -0.072856  0  -0.096214  -0.120065  0  4.054167  0
C  C150  1  0.65095684  0.44171995  0.30510064  1  -0.123572  0  -0.10014  -0.147908  0  4.015372  0
C  C151  1  0.61093891  0.46465292  0.28588474  1  0.029339  0  -0.096148  -0.120134  0  4.05627  0
C  C152  1  0.35347532  0.97230160  0.17570471  1  -0.072857  0  -0.102066  -0.149966  0  4.018212  0
C  C153  1  0.39258154  0.99041837  0.19620350  1  0.009364  0  -0.096229  -0.118392  0  4.055459  0
C  C154  1  0.88330337  0.54079895  0.81971474  1  -0.040025  0  -0.100789  -0.147166  0  4.017394  0
C  C155  1  0.84532352  0.52247529  0.79765713  1  -0.094189  0  -0.09652  -0.121201  0  4.054559  0
N  N156  1  0.18423692  0.88771635  0.91754227  1  -0.776703  0  -0.337683  -0.140384  0  3.769816  0
N  N157  1  0.17060517  0.84200000  0.93182486  1  -0.784811  0  -0.339597  -0.1429  0  3.776075  0
N  N158  1  0.06377913  0.78988078  0.87845123  1  -0.772964  0  -0.338294  -0.140997  0  3.77398  0
N  N159  1  0.04788755  0.80728500  0.83521479  1  -0.782056  0  -0.338754  -0.141759  0  3.77434  0
N  N160  1  0.09503865  0.92225523  0.78666764  1  -0.7728  0  -0.339152  -0.141061  0  3.775379  0
N  N161  1  0.13216065  0.94386599  0.80887106  1  -0.78509  0  -0.336462  -0.139411  0  3.771999  0
N  N162  1  0.79935793  0.40304539  0.57981291  1  -0.769322  0  -0.337573  -0.139586  0  3.771006  0
N  N163  1  0.82200532  0.36149855  0.56180026  1  -0.77079  0  -0.338012  -0.14123  0  3.776851  0
N  N164  1  0.93108588  0.30341320  0.61887417  1  -0.775277  0  -0.337309  -0.140405  0  3.771953  0
N  N165  1  0.94410989  0.31853256  0.66238993  1  -0.78528  0  -0.338769  -0.140958  0  3.777934  0
N  N166  1  0.87988309  0.42625012  0.71437048  1  -0.771299  0  -0.338401  -0.13998  0  3.775102  0
N  N167  1  0.83775655  0.44635550  0.69448626  1  -0.779028  0  -0.338253  -0.142243  0  3.772499  0
N  N168  1  0.69090648  0.61498554  0.08586763  1  -0.771008  0  -0.336677  -0.140422  0  3.765772  0
N  N169  1  0.67361262  0.66112652  0.07277503  1  -0.766207  0  -0.34007  -0.141709  0  3.775475  0
N  N170  1  0.55748740  0.71222503  0.12587552  1  -0.779349  0  -0.339507  -0.140592  0  3.778705  0
N  N171  1  0.53735727  0.69184614  0.16644733  1  -0.773856  0  -0.338383  -0.141122  0  3.777604  0
N  N172  1  0.59089102  0.57400944  0.21069195  1  -0.778529  0  -0.338603  -0.140846  0  3.776139  0
N  N173  1  0.63483479  0.55558395  0.19162080  1  -0.76519  0  -0.336963  -0.140818  0  3.767853  0
N  N174  1  0.30636402  0.11702883  0.40442786  1  -0.78383  0  -0.339993  -0.142508  0  3.774973  0
N  N175  1  0.33647020  0.13341532  0.43806723  1  -0.778061  0  -0.337939  -0.141673  0  3.769968  0
N  N176  1  0.45954141  0.17342838  0.40110648  1  -0.774834  0  -0.339454  -0.14497  0  3.763813  0
N  N177  1  0.47419368  0.16975302  0.35435853  1  -0.770979  0  -0.337757  -0.139748  0  3.772647  0
N  N178  1  0.41134586  0.08471586  0.28126005  1  -0.774448  0  -0.338999  -0.14055  0  3.771224  0
N  N179  1  0.36359226  0.07372123  0.29283814  1  -0.763675  0  -0.338132  -0.140922  0  3.771213  0
