# generated using pymatgen
data_NiH14(C3O2)4
_symmetry_space_group_name_H-M   'P 1'
_cell_length_a   6.24166350
_cell_length_b   9.64923947
_cell_length_c   10.92042981
_cell_angle_alpha   72.65040113
_cell_angle_beta   80.37700499
_cell_angle_gamma   82.16461907
_symmetry_Int_Tables_number   1
_chemical_formula_structural   NiH14(C3O2)4
_chemical_formula_sum   'Ni2 H28 C24 O16'
_cell_volume   616.33189957
_cell_formula_units_Z   2
loop_
 _symmetry_equiv_pos_site_id
 _symmetry_equiv_pos_as_xyz
  1  'x, y, z'
loop_
 _atom_site_type_symbol
 _atom_site_label
 _atom_site_symmetry_multiplicity
 _atom_site_fract_x
 _atom_site_fract_y
 _atom_site_fract_z
 _atom_site_occupancy
 _atom_site_hle17_ddec_charge
 _atom_site_hle17_ddec_spin_density
 _atom_site_hle17_ddec_sum_bond_order
 _atom_site_hle17_magmom
 _atom_site_hse06_10hf_ddec_charge
 _atom_site_hse06_10hf_ddec_spin_density
 _atom_site_hse06_10hf_ddec_sum_bond_order
 _atom_site_hse06_10hf_magmom
 _atom_site_hse06_ddec_charge
 _atom_site_hse06_ddec_spin_density
 _atom_site_hse06_ddec_sum_bond_order
 _atom_site_hse06_magmom
 _atom_site_pbe_cm5_charge
 _atom_site_pbe_ddec_charge
 _atom_site_pbe_ddec_spin_density
 _atom_site_pbe_ddec_sum_bond_order
 _atom_site_pbe_magmom
Ni  Ni0  1  0.96685274  0.25761182  0.47958793  1  0.991984  -0.06242  1.790068  -0.036  1.016311  -0.039763  2.169604  -0.026  1.104092  -0.025298  2.098742  -0.017  0.587388  0.943057  -0.049266  2.23397  -0.03
Ni  Ni1  1  0.03314671  0.74237941  0.52041632  1  0.992066  0.062417  1.789945  0.036  1.016436  0.039792  2.169338  0.026  1.104251  0.025324  2.098475  0.017  0.587362  0.943036  0.049297  2.233936  0.03
H  H2  1  0.11165491  0.65116167  0.14936122  1  0.088805  0.000212  0.976701  0.0  0.098878  0.000162  1.043422  0.0  0.10214  0.000105  1.041075  0.0  0.102508  0.096365  0.000258  1.04554  0.0
H  H3  1  0.88831168  0.34886089  0.85062739  1  0.088799  -0.000204  0.976875  0.0  0.098891  -0.000162  1.043553  0.0  0.102143  -0.000104  1.041225  0.0  0.10258  0.096383  -0.000258  1.045672  0.0
H  H4  1  0.76439396  0.44057919  0.17250286  1  0.103453  -6.7e-05  0.952024  0.0  0.115733  -1.6e-05  1.011624  0.0  0.118809  -8e-06  1.009794  0.0  0.107173  0.113513  -3.4e-05  1.013021  0.0
H  H5  1  0.23556842  0.55943268  0.82749183  1  0.103393  4.1e-05  0.951638  0.0  0.115596  1.6e-05  1.011367  0.0  0.118693  8e-06  1.009514  0.0  0.107034  0.113321  3.4e-05  1.012837  0.0
H  H6  1  0.90607316  0.64028318  0.98745300  1  0.095154  6.9e-05  0.955151  0.0  0.10793  4.5e-05  1.014704  0.0  0.110241  2.8e-05  1.014648  0.0  0.10296  0.106466  7.6e-05  1.014583  0.0
H  H7  1  0.09388007  0.35969326  0.01256051  1  0.095154  -7.5e-05  0.954785  0.0  0.107972  -4.5e-05  1.014365  0.0  0.110288  -2.7e-05  1.014304  0.0  0.102914  0.106506  -7.6e-05  1.014244  0.0
H  H8  1  0.83917337  0.87713898  0.81914232  1  0.10857  0.000168  0.965503  0.0  0.116624  0.000163  1.033424  0.0  0.120362  8.9e-05  1.030593  0.0  0.104389  0.113972  0.000262  1.035671  0.0
H  H9  1  0.16085333  0.12285795  0.18086150  1  0.108625  -0.000157  0.965624  0.0  0.11665  -0.000163  1.033515  0.0  0.120385  -8.9e-05  1.030685  0.0  0.104402  0.114  -0.000262  1.035749  0.0
H  H10  1  0.18578894  0.08937829  0.80686881  1  0.094748  -3.9e-05  0.958023  0.0  0.104713  3e-05  1.021654  0.0  0.10792  2.8e-05  1.019437  0.0  0.104067  0.102741  2.9e-05  1.022651  0.0
H  H11  1  0.81423792  0.91063846  0.19314604  1  0.09483  3.8e-05  0.957981  0.0  0.104758  -3e-05  1.02165  0.0  0.10798  -2.8e-05  1.019411  0.0  0.104012  0.102781  -2.9e-05  1.022643  0.0
H  H12  1  0.04545541  0.88464915  0.98747819  1  0.088651  7.8e-05  0.975717  0.0  0.099664  4.9e-05  1.040819  0.0  0.101509  3.3e-05  1.041317  0.0  0.100224  0.098576  7.9e-05  1.040281  0.0
H  H13  1  0.95454665  0.11537677  0.01251628  1  0.088674  -6.4e-05  0.975685  0.0  0.099731  -4.9e-05  1.040718  0.0  0.101577  -3.3e-05  1.041213  0.0  0.100279  0.098642  -7.8e-05  1.040182  0.0
H  H14  1  0.33590308  0.17270308  0.42545263  1  0.416275  0.000175  0.894323  0.0  0.382495  0.000242  0.964804  0.0  0.395258  0.000118  0.946856  0.0  0.289282  0.373282  0.000329  0.977814  0.0
H  H15  1  0.66407700  0.82728456  0.57456264  1  0.416201  -0.000172  0.894434  0.0  0.382443  -0.000242  0.964892  0.0  0.395207  -0.000118  0.946938  0.0  0.28923  0.373235  -0.00033  0.977894  0.0
H  H16  1  0.20739954  0.03861160  0.43192108  1  0.407411  0.000313  0.896772  0.0  0.383216  0.000261  0.961725  0.0  0.394133  0.000191  0.946383  0.0  0.29507  0.375289  0.000255  0.972745  0.0
H  H17  1  0.79261036  0.96141844  0.56807336  1  0.407392  -0.000313  0.896699  0.0  0.383171  -0.000261  0.961785  0.0  0.394088  -0.000191  0.946452  0.0  0.295  0.375245  -0.000256  0.972799  0.0
H  H18  1  0.75314550  0.49876376  0.47917161  1  0.418023  -0.000142  0.865023  0.0  0.394646  0.00018  0.931448  0.0  0.40575  6e-05  0.918611  0.0  0.301176  0.386447  0.000186  0.939885  0.0
H  H19  1  0.24681009  0.50125068  0.52083398  1  0.417997  0.000142  0.865031  0.0  0.39457  -0.000179  0.931588  0.0  0.405676  -5.8e-05  0.918747  0.0  0.301124  0.386383  -0.000186  0.940006  0.0
H  H20  1  0.60910632  0.35913601  0.55600511  1  0.415826  0.000137  0.896583  0.0  0.382686  0.000216  0.965554  0.0  0.395759  9.3e-05  0.947018  0.0  0.290591  0.373106  0.000294  0.979198  0.0
H  H21  1  0.39084249  0.64088591  0.44397800  1  0.415805  -0.000137  0.896656  0.0  0.382666  -0.000216  0.965598  0.0  0.395743  -9.2e-05  0.947056  0.0  0.290498  0.373083  -0.000294  0.979245  0.0
H  H22  1  0.71211961  0.23802890  0.32342743  1  0.432749  0.000276  0.87207  0.001  0.400879  -0.000294  0.937896  0.0  0.413042  -0.0001  0.920529  0.0  0.295623  0.392131  -0.000478  0.950362  0.0
H  H23  1  0.28786375  0.76195860  0.67658574  1  0.432771  -0.000274  0.872056  -0.001  0.400914  0.000294  0.937847  0.0  0.413074  0.000101  0.920484  0.0  0.295686  0.39217  0.000478  0.950305  0.0
H  H24  1  0.83491177  0.08200772  0.37139953  1  0.424  7e-06  0.844661  0.001  0.403357  -0.000677  0.909394  0.0  0.413533  -0.000389  0.897965  0.0  0.30683  0.395536  -0.000968  0.91779  -0.001
H  H25  1  0.16506339  0.91800608  0.62860352  1  0.424058  -8e-06  0.844799  -0.001  0.403417  0.000678  0.909464  0.0  0.413589  0.000389  0.897911  0.0  0.306918  0.395582  0.00097  0.917883  0.001
H  H26  1  0.22394095  0.29087906  0.65101697  1  0.436245  -0.000985  0.861721  -0.001  0.408148  -0.001191  0.921145  -0.002  0.420235  -0.000877  0.903614  -0.001  0.301584  0.399132  -0.001476  0.934218  -0.002
H  H27  1  0.77606697  0.70911045  0.34896499  1  0.436333  0.000985  0.861636  0.001  0.408223  0.001192  0.921087  0.002  0.42032  0.000877  0.903545  0.001  0.301597  0.3992  0.001477  0.934166  0.002
H  H28  1  0.00380698  0.40741522  0.65232338  1  0.426334  -0.000714  0.869341  -0.001  0.399721  -0.001016  0.934086  -0.001  0.411405  -0.000692  0.917215  -0.001  0.300691  0.391015  -0.001329  0.946611  -0.002
H  H29  1  0.99621686  0.59257629  0.34767762  1  0.426254  0.000712  0.869351  0.001  0.399638  0.001015  0.934171  0.001  0.411326  0.000691  0.917297  0.001  0.300664  0.390929  0.001329  0.946698  0.002
C  C30  1  0.28620441  0.64989885  0.11592318  1  -0.102995  -0.00102  3.706998  -0.001  -0.135479  -0.000117  3.955213  0.0  -0.134862  -0.000167  3.973514  0.0  -0.079295  -0.137152  1.2e-05  3.94411  0.0
C  C31  1  0.71378322  0.35009924  0.88407753  1  -0.103147  0.000976  3.707189  0.001  -0.135544  0.000116  3.95553  0.0  -0.134926  0.000168  3.973826  0.0  -0.079332  -0.137213  -1.3e-05  3.944437  0.0
C  C32  1  0.42654889  0.53368626  0.17345144  1  -0.057045  0.006415  3.753478  0.006  -0.037692  0.002146  3.994762  0.002  -0.044836  0.001518  4.016065  0.001  -0.017279  -0.033076  0.003264  3.982468  0.003
C  C33  1  0.57348754  0.46631338  0.82653608  1  -0.056767  -0.006408  3.753287  -0.006  -0.037483  -0.002139  3.994681  -0.002  -0.044617  -0.001516  4.015981  -0.001  -0.017196  -0.032873  -0.003257  3.982393  -0.003
C  C34  1  0.65333976  0.53148914  0.12706161  1  -0.057866  0.000523  3.713276  0.001  -0.087557  0.000461  3.972324  0.0  -0.086964  0.000263  3.991995  0.0  -0.082044  -0.087807  0.000736  3.95975  0.001
C  C35  1  0.34667707  0.46848816  0.87292471  1  -0.057919  -0.000443  3.712287  0.0  -0.08748  -0.000462  3.971363  0.0  -0.086908  -0.000259  3.991039  0.0  -0.081934  -0.087687  -0.000736  3.958803  -0.001
C  C36  1  0.73270683  0.64340523  0.02482243  1  -0.111462  0.001261  3.724185  0.001  -0.131695  0.00021  3.978768  0.0  -0.135406  0.000171  4.000603  0.0  -0.087427  -0.129861  0.000364  3.96413  0.0
C  C37  1  0.26729406  0.35656615  0.97517248  1  -0.111644  -0.001266  3.723618  -0.001  -0.131908  -0.000208  3.978197  0.0  -0.135623  -0.000173  4.000046  0.0  -0.087388  -0.130064  -0.000363  3.963531  0.0
C  C38  1  0.66676913  0.88012853  0.85871339  1  -0.091614  0.000108  3.665509  0.0  -0.125678  0.000138  3.914948  0.0  -0.124102  2.1e-05  3.932066  0.0  -0.076173  -0.128077  0.000385  3.904741  0.0
C  C39  1  0.33321866  0.11986736  0.14128699  1  -0.091639  -0.000124  3.665511  0.0  -0.125645  -0.000137  3.914932  0.0  -0.12406  -2.5e-05  3.932043  0.0  -0.076154  -0.128051  -0.000382  3.904716  0.0
C  C40  1  0.52351483  0.99657004  0.80414571  1  -0.071424  0.006667  3.7604  0.006  -0.050178  0.002178  3.99947  0.002  -0.058221  0.001554  4.021283  0.001  -0.020654  -0.043687  0.003359  3.984865  0.003
C  C41  1  0.47649444  0.00344186  0.19587301  1  -0.071069  -0.006648  3.760607  -0.006  -0.049823  -0.002171  3.999559  -0.002  -0.057877  -0.001547  4.021371  -0.001  -0.020508  -0.043323  -0.00335  3.984938  -0.003
C  C42  1  0.29729139  0.99844193  0.85188287  1  -0.070658  0.001363  3.751538  0.001  -0.09717  0.001039  4.006988  0.001  -0.097034  0.000703  4.026881  0.0  -0.088186  -0.09623  0.001466  3.992733  0.001
C  C43  1  0.70272344  0.00156193  0.14812198  1  -0.070482  -0.00135  3.751104  -0.001  -0.096943  -0.001038  4.006472  -0.001  -0.096807  -0.000707  4.026353  0.0  -0.087962  -0.096002  -0.001465  3.992204  -0.001
C  C44  1  0.21937474  0.88497203  0.95202255  1  -0.11027  0.001554  3.741553  0.001  -0.129845  0.000588  3.991898  0.0  -0.133034  0.000395  4.013657  0.0  -0.088608  -0.128048  0.000863  3.976761  0.001
C  C45  1  0.78062789  0.11504616  0.04796759  1  -0.110831  -0.001597  3.742149  -0.001  -0.130374  -0.000589  3.992586  0.0  -0.133569  -0.00039  4.014347  0.0  -0.08889  -0.128582  -0.000863  3.977451  -0.001
C  C46  1  0.36308322  0.76628930  0.01184790  1  0.062824  -0.000186  3.786751  0.0  0.078375  2.1e-05  4.013978  0.0  0.077798  2e-05  4.03844  0.0  -0.00395  0.079507  5.8e-05  3.997823  0.0
C  C47  1  0.63692431  0.23370177  0.98816205  1  0.063311  0.000212  3.786786  0.0  0.07862  -2.1e-05  4.014345  0.0  0.078048  -2.3e-05  4.038801  0.0  -0.003836  0.079748  -5.7e-05  3.998199  0.0
C  C48  1  0.59157492  0.76374320  0.96442250  1  0.063357  -0.000313  3.773097  0.0  0.079741  -3.5e-05  4.000908  0.0  0.079257  -5.2e-05  4.025101  0.0  -0.002042  0.080521  2.2e-05  3.985821  0.0
C  C49  1  0.40843888  0.23622796  0.03558318  1  0.063351  0.000299  3.77289  0.0  0.079758  3.4e-05  4.000814  0.0  0.07927  5.3e-05  4.025004  0.0  -0.002077  0.080539  -2.3e-05  3.985727  0.0
C  C50  1  0.33482045  0.41090144  0.28075153  1  0.666579  -0.001599  3.836973  -0.003  0.614438  0.000693  4.136789  0.0  0.651143  0.00035  4.128223  0.0  0.224077  0.588163  0.001218  4.142704  0.0
C  C51  1  0.66516644  0.58910956  0.71923654  1  0.666264  0.001616  3.837579  0.003  0.614052  -0.000691  4.1376  0.0  0.65074  -0.000352  4.129058  0.0  0.223842  0.587785  -0.001215  4.143519  0.0
C  C52  1  0.60560150  0.12139204  0.69570841  1  0.668285  -0.001073  3.833997  -0.003  0.617828  0.000889  4.131765  0.0  0.654784  0.000581  4.122951  0.0  0.223767  0.59124  0.001469  4.136915  0.0
C  C53  1  0.39444402  0.87864017  0.30428580  1  0.667871  0.001059  3.834325  0.003  0.617533  -0.00089  4.132013  0.0  0.654509  -0.000585  4.123181  0.0  0.223525  0.590935  -0.001473  4.137159  0.0
O  O54  1  0.13356194  0.42770796  0.32804233  1  -0.631675  0.0681  2.056733  0.074  -0.5924  0.028656  2.314191  0.031  -0.629178  0.021972  2.304519  0.025  -0.303875  -0.563502  0.040269  2.319934  0.043
O  O55  1  0.86642119  0.57226278  0.67194616  1  -0.631639  -0.068085  2.056703  -0.074  -0.592366  -0.028603  2.314192  -0.031  -0.629137  -0.021923  2.304521  -0.025  -0.303848  -0.563456  -0.040216  2.319973  -0.043
O  O56  1  0.45669849  0.29407890  0.31994739  1  -0.619626  -0.00058  2.080657  0.0  -0.549883  -0.000511  2.297847  -0.001  -0.577672  -0.000491  2.288852  -0.001  -0.29592  -0.53061  -0.000385  2.305152  0.0
O  O57  1  0.54329208  0.70592252  0.68006220  1  -0.619131  0.00057  2.081098  0.0  -0.549385  0.000511  2.298332  0.001  -0.577158  0.000491  2.289339  0.001  -0.295654  -0.530112  0.000386  2.305628  0.0
O  O58  1  0.48667032  0.24176388  0.67110131  1  -0.619001  -0.001524  2.040838  -0.001  -0.554578  -0.001233  2.257276  -0.001  -0.581856  -0.001009  2.248388  -0.001  -0.299856  -0.534706  -0.001323  2.264006  -0.001
O  O59  1  0.51334356  0.75822919  0.32890934  1  -0.618975  0.001536  2.040172  0.001  -0.554695  0.001234  2.256653  0.001  -0.582008  0.00101  2.247778  0.001  -0.299883  -0.534808  0.001324  2.263382  0.001
O  O60  1  0.79530221  0.10067493  0.63289258  1  -0.638274  0.072825  2.079734  0.079  -0.60264  0.029842  2.341214  0.033  -0.639189  0.023325  2.330084  0.026  -0.309693  -0.573369  0.04136  2.347673  0.044
O  O61  1  0.20471778  0.89927743  0.36710946  1  -0.638366  -0.072799  2.079904  -0.079  -0.602766  -0.029774  2.341319  -0.033  -0.639317  -0.023265  2.330177  -0.026  -0.309736  -0.573483  -0.041291  2.347821  -0.044
O  O62  1  0.22518620  0.10419262  0.48464395  1  -0.796168  -0.00784  1.940335  -0.009  -0.768762  0.022676  2.154669  0.023  -0.801463  0.018896  2.120156  0.019  -0.570599  -0.742988  0.018394  2.179413  0.018
O  O63  1  0.77479815  0.89580464  0.51536646  1  -0.796194  0.007807  1.940108  0.009  -0.768818  -0.022732  2.154467  -0.023  -0.801545  -0.018943  2.119982  -0.019  -0.570485  -0.743006  -0.018454  2.179212  -0.018
O  O64  1  0.70912135  0.40605091  0.47504671  1  -0.78659  -0.001824  1.982768  -0.002  -0.76238  0.027237  2.208869  0.028  -0.795399  0.022296  2.177093  0.024  -0.575667  -0.736229  0.023891  2.231142  0.024
O  O65  1  0.29093030  0.59393464  0.52497624  1  -0.786618  0.001762  1.982629  0.002  -0.762308  -0.027318  2.208581  -0.028  -0.795343  -0.022363  2.176818  -0.024  -0.575507  -0.73613  -0.023984  2.230842  -0.024
O  O66  1  0.86004311  0.18586758  0.33971385  1  -0.804051  -0.067826  1.923314  -0.071  -0.778424  -0.053166  2.140309  -0.056  -0.808718  -0.042453  2.109271  -0.045  -0.567564  -0.75526  -0.062858  2.162987  -0.065
O  O67  1  0.13996955  0.81414895  0.66026024  1  -0.804159  0.06784  1.923523  0.071  -0.778523  0.053146  2.140578  0.056  -0.808829  0.042438  2.10941  0.045  -0.56772  -0.755302  0.062841  2.163328  0.065
O  O68  1  0.09469205  0.33987374  0.60671093  1  -0.840493  -0.041904  1.992173  -0.043  -0.800951  -0.038899  2.202278  -0.039  -0.829151  -0.032631  2.164921  -0.033  -0.568544  -0.779402  -0.044471  2.230436  -0.044
O  O69  1  0.90531441  0.66013663  0.39327550  1  -0.840627  0.04191  1.992191  0.043  -0.801046  0.038889  2.202301  0.039  -0.829265  0.03262  2.164926  0.033  -0.568582  -0.779463  0.044467  2.230488  0.044
