# generated using pymatgen
data_TbH9C13N2O7
_symmetry_space_group_name_H-M   'P 1'
_cell_length_a   9.22187466
_cell_length_b   10.53545401
_cell_length_c   14.09872489
_cell_angle_alpha   89.99997731
_cell_angle_beta   90.00007600
_cell_angle_gamma   95.93046671
_symmetry_Int_Tables_number   1
_chemical_formula_structural   TbH9C13N2O7
_chemical_formula_sum   'Tb4 H36 C52 N8 O28'
_cell_volume   1362.45362434
_cell_formula_units_Z   4
loop_
 _symmetry_equiv_pos_site_id
 _symmetry_equiv_pos_as_xyz
  1  'x, y, z'
loop_
 _atom_site_type_symbol
 _atom_site_label
 _atom_site_symmetry_multiplicity
 _atom_site_fract_x
 _atom_site_fract_y
 _atom_site_fract_z
 _atom_site_occupancy
 _atom_site_pbe_bader_spin_density
 _atom_site_pbe_cm5_charge
 _atom_site_pbe_ddec_charge
 _atom_site_pbe_ddec_spin_density
 _atom_site_pbe_ddec_sum_bond_order
 _atom_site_pbe_magmom
Tb  Tb0  1  0.87550630  0.52907413  0.86456998  1  0  1.511523  2.087349  0  2.171166  0
Tb  Tb1  1  0.12449373  0.97092502  0.36457118  1  0  1.511537  2.087373  0  2.171107  0
Tb  Tb2  1  0.12449431  0.47092655  0.13542925  1  0  1.511567  2.087375  0  2.17121  0
Tb  Tb3  1  0.87550677  0.02907471  0.63542876  1  0  1.511531  2.087349  0  2.171188  0
H  H4  1  0.66649252  0.12759469  0.90433737  1  0  0.114269  0.117675  0  0.983969  0
H  H5  1  0.33351007  0.37240552  0.40433666  1  0  0.114274  0.11769  0  0.984005  0
H  H6  1  0.33350764  0.87240217  0.09566328  1  0  0.114323  0.11776  0  0.983996  0
H  H7  1  0.66649163  0.62759516  0.59566187  1  0  0.114256  0.11769  0  0.983977  0
H  H8  1  0.57338712  0.89737141  0.93853960  1  0  0.102305  0.102214  0  1.035924  0
H  H9  1  0.42661436  0.60262962  0.43853975  1  0  0.102309  0.102191  0  1.035912  0
H  H10  1  0.42661544  0.10262736  0.06146247  1  0  0.102313  0.102207  0  1.03589  0
H  H11  1  0.57338734  0.39737106  0.56146018  1  0  0.102318  0.102209  0  1.035895  0
H  H12  1  0.69985113  0.78014035  0.06078015  1  0  0.111825  0.076988  0  1.038444  0
H  H13  1  0.30014949  0.71985985  0.56077982  1  0  0.111829  0.076999  0  1.038439  0
H  H14  1  0.30015143  0.21985842  0.93922262  1  0  0.111838  0.077002  0  1.038389  0
H  H15  1  0.69985004  0.28014082  0.43922012  1  0  0.11183  0.076989  0  1.038444  0
H  H16  1  0.97967633  0.10139649  0.12791056  1  0  0.12368  0.105636  0  1.032896  0
H  H17  1  0.02032463  0.39860381  0.62791063  1  0  0.123678  0.10563  0  1.032864  0
H  H18  1  0.02032342  0.89860609  0.87209080  1  0  0.123696  0.105649  0  1.03288  0
H  H19  1  0.97967598  0.60139687  0.37208930  1  0  0.123683  0.105618  0  1.032895  0
H  H20  1  0.45348452  0.22147204  0.66573058  1  0  0.112347  0.122854  0  1.00578  0
H  H21  1  0.54651652  0.27852824  0.16572937  1  0  0.112339  0.122832  0  1.005758  0
H  H22  1  0.54651371  0.77852672  0.33427007  1  0  0.112343  0.122897  0  1.005721  0
H  H23  1  0.45348518  0.72147243  0.83427057  1  0  0.112339  0.122895  0  1.005703  0
H  H24  1  0.22673953  0.29263312  0.74172032  1  0  0.118526  0.12417  0  1.002534  0
H  H25  1  0.77325959  0.20736809  0.24172075  1  0  0.118535  0.124157  0  1.002541  0
H  H26  1  0.77325891  0.70736755  0.25827962  1  0  0.11852  0.124195  0  1.002519  0
H  H27  1  0.22674210  0.79263259  0.75827919  1  0  0.118529  0.124187  0  1.002587  0
H  H28  1  0.51156849  0.53512561  0.92398796  1  0  0.124963  0.092431  0  1.01433  0
H  H29  1  0.48843068  0.96487447  0.42398806  1  0  0.124977  0.092437  0  1.014378  0
H  H30  1  0.48843201  0.46487411  0.07601127  1  0  0.124971  0.092428  0  1.014391  0
H  H31  1  0.51156993  0.03512621  0.57601046  1  0  0.124968  0.092461  0  1.014359  0
H  H32  1  0.96488400  0.73530246  0.72854066  1  0  0.307628  0.402872  0  0.92507  0
H  H33  1  0.03511587  0.76469769  0.22854043  1  0  0.307632  0.402855  0  0.925089  0
H  H34  1  0.03511651  0.26469726  0.27145928  1  0  0.30763  0.402856  0  0.925084  0
H  H35  1  0.96488354  0.23530203  0.77145880  1  0  0.30764  0.402867  0  0.925072  0
H  H36  1  0.05616245  0.62362677  0.68381709  1  0  0.284569  0.350788  0  1.010716  0
H  H37  1  0.94383733  0.87637339  0.18381690  1  0  0.284556  0.350749  0  1.010761  0
H  H38  1  0.94383805  0.37637295  0.31618285  1  0  0.284562  0.350781  0  1.010719  0
H  H39  1  0.05616220  0.12362728  0.81618304  1  0  0.284553  0.35075  0  1.010762  0
C  C40  1  0.88804163  0.26646242  0.99624292  1  0  0.233019  0.658219  0  4.175349  0
C  C41  1  0.11195388  0.23354060  0.49624064  1  0  0.233085  0.658262  0  4.175332  0
C  C42  1  0.11195464  0.73353825  0.00375773  1  0  0.233069  0.65832  0  4.175166  0
C  C43  1  0.88804325  0.76645816  0.50375859  1  0  0.233071  0.658264  0  4.175272  0
C  C44  1  0.82945919  0.13060367  0.01379024  1  0  -0.012502  -0.088696  0  3.954749  0
C  C45  1  0.17053938  0.36939666  0.51379187  1  0  -0.012496  -0.088765  0  3.954925  0
C  C46  1  0.17053925  0.86939700  0.98620970  1  0  -0.012524  -0.08884  0  3.95496  0
C  C47  1  0.82945765  0.63060114  0.48620948  1  0  -0.012504  -0.088722  0  3.954899  0
C  C48  1  0.71403446  0.07268265  0.95969489  1  0  -0.057583  -0.036754  0  3.929272  0
C  C49  1  0.28596715  0.42731753  0.45969411  1  0  -0.057618  -0.036829  0  3.929346  0
C  C50  1  0.28596810  0.92731612  0.04030718  1  0  -0.05765  -0.036827  0  3.929348  0
C  C51  1  0.71403215  0.57268123  0.54030512  1  0  -0.057645  -0.036945  0  3.929446  0
C  C52  1  0.66412007  0.94601364  0.97791979  1  0  -0.086911  -0.132932  0  4.005077  0
C  C53  1  0.33588030  0.55398642  0.47791917  1  0  -0.086848  -0.13277  0  4.004964  0
C  C54  1  0.33588141  0.05398513  0.02208299  1  0  -0.086891  -0.132865  0  4.004962  0
C  C55  1  0.66411912  0.44601330  0.52208006  1  0  -0.086884  -0.132767  0  4.005005  0
C  C56  1  0.73359209  0.88055263  0.04745483  1  0  0.051026  0.101195  0  3.941214  0
C  C57  1  0.26640970  0.61944854  0.54745308  1  0  0.05102  0.101152  0  3.941157  0
C  C58  1  0.26640841  0.11944709  0.95254865  1  0  0.051029  0.101155  0  3.941078  0
C  C59  1  0.73359102  0.38055309  0.45254473  1  0  0.051043  0.101177  0  3.941232  0
C  C60  1  0.89010251  0.05880983  0.08395762  1  0  0.0579  0.078302  0  3.896054  0
C  C61  1  0.10989870  0.44119335  0.58395847  1  0  0.057864  0.078319  0  3.896089  0
C  C62  1  0.10989713  0.94119180  0.91604445  1  0  0.057868  0.078304  0  3.896133  0
C  C63  1  0.89010202  0.55880828  0.41604218  1  0  0.057924  0.078414  0  3.896073  0
C  C64  1  0.59662264  0.34591754  0.75286049  1  0  0.11863  0.105988  0  3.975603  0
C  C65  1  0.40337965  0.15408272  0.25286203  1  0  0.11862  0.105991  0  3.975609  0
C  C66  1  0.40337775  0.65408123  0.24713732  1  0  0.118641  0.106042  0  3.97562  0
C  C67  1  0.59662216  0.84591891  0.74713720  1  0  0.118631  0.106036  0  3.975667  0
C  C68  1  0.73694176  0.30388244  0.71462731  1  0  0.232446  0.589721  0  4.202574  0
C  C69  1  0.26305720  0.19611783  0.21462730  1  0  0.232372  0.589606  0  4.202567  0
C  C70  1  0.26305657  0.69611728  0.28537334  1  0  0.232416  0.589745  0  4.202358  0
C  C71  1  0.73694341  0.80388285  0.78537264  1  0  0.232398  0.589718  0  4.202461  0
C  C72  1  0.45978751  0.29288194  0.72178883  1  0  -0.075276  -0.13243  0  3.937032  0
C  C73  1  0.54021266  0.20711928  0.22178976  1  0  -0.075277  -0.132427  0  3.937059  0
C  C74  1  0.54021104  0.70711968  0.27820969  1  0  -0.075235  -0.132491  0  3.937043  0
C  C75  1  0.45978893  0.79288045  0.77820947  1  0  -0.075253  -0.1325  0  3.937095  0
C  C76  1  0.33535090  0.33146085  0.76440256  1  0  -0.056711  -0.039648  0  3.906862  0
C  C77  1  0.66464924  0.16853940  0.26440290  1  0  -0.05667  -0.039545  0  3.906888  0
C  C78  1  0.66464754  0.66853982  0.23559738  1  0  -0.056709  -0.039664  0  3.906895  0
C  C79  1  0.33535234  0.83146033  0.73559704  1  0  -0.056701  -0.039683  0  3.907019  0
C  C80  1  0.35219918  0.41634270  0.84097756  1  0  -0.003437  -0.071319  0  3.918997  0
C  C81  1  0.64780112  0.08365753  0.34097862  1  0  -0.003468  -0.071406  0  3.919007  0
C  C82  1  0.64780024  0.58365702  0.15902167  1  0  -0.003448  -0.071333  0  3.918975  0
C  C83  1  0.35219949  0.91634315  0.65902132  1  0  -0.003423  -0.071251  0  3.918877  0
C  C84  1  0.49338277  0.46706499  0.86591533  1  0  0.06392  0.097104  0  3.927381  0
C  C85  1  0.50661649  0.03293522  0.36591558  1  0  0.063937  0.097136  0  3.92735  0
C  C86  1  0.50661665  0.53293473  0.13408390  1  0  0.063915  0.097116  0  3.927398  0
C  C87  1  0.49338325  0.96706736  0.63408436  1  0  0.06391  0.097037  0  3.927374  0
C  C88  1  0.22387060  0.44704455  0.89963600  1  0  0.234878  0.643697  0  4.181361  0
C  C89  1  0.77613067  0.05295374  0.39963505  1  0  0.234884  0.643691  0  4.181399  0
C  C90  1  0.77612914  0.55295803  0.10036323  1  0  0.234873  0.643649  0  4.181419  0
C  C91  1  0.22387155  0.94704216  0.60036205  1  0  0.234892  0.643708  0  4.181249  0
N  N92  1  0.84419434  0.93557944  0.10009864  1  0  -0.302735  -0.233953  0  3.400424  0
N  N93  1  0.15580886  0.56442361  0.60009681  1  0  -0.30274  -0.233964  0  3.400338  0
N  N94  1  0.15580746  0.06442219  0.89990484  1  0  -0.302749  -0.233946  0  3.400399  0
N  N95  1  0.84419295  0.43557802  0.39990101  1  0  -0.302756  -0.234003  0  3.400425  0
N  N96  1  0.61257817  0.43558400  0.82135107  1  0  -0.363602  -0.336734  0  3.500305  0
N  N97  1  0.38742089  0.06441527  0.32135050  1  0  -0.363619  -0.33673  0  3.500269  0
N  N98  1  0.38742102  0.56441381  0.17864957  1  0  -0.363627  -0.336755  0  3.50033  0
N  N99  1  0.61257864  0.93558540  0.67864873  1  0  -0.363613  -0.336737  0  3.500361  0
O  O100  1  0.83607495  0.32037207  0.92554146  1  0  -0.388964  -0.660438  0  2.362151  0
O  O101  1  0.16392150  0.17963098  0.42554278  1  0  -0.388995  -0.660443  0  2.362131  0
O  O102  1  0.16392099  0.67962573  0.07445777  1  0  -0.389021  -0.660496  0  2.362041  0
O  O103  1  0.83607630  0.82037351  0.57445928  1  0  -0.389015  -0.660509  0  2.362117  0
O  O104  1  0.98432322  0.31746367  0.05253776  1  0  -0.410581  -0.696344  0  2.374273  0
O  O105  1  0.01567164  0.18254142  0.55253647  1  0  -0.41062  -0.696373  0  2.374204  0
O  O106  1  0.01567219  0.68253891  0.94746218  1  0  -0.41057  -0.696329  0  2.374156  0
O  O107  1  0.98432647  0.81745639  0.44746489  1  0  -0.410597  -0.696339  0  2.374198  0
O  O108  1  0.85364016  0.37343683  0.73618249  1  0  -0.354962  -0.620877  0  2.323431  0
O  O109  1  0.14636004  0.12656438  0.23618169  1  0  -0.354906  -0.620786  0  2.323411  0
O  O110  1  0.14635795  0.62656098  0.26381816  1  0  -0.354945  -0.620879  0  2.32332  0
O  O111  1  0.85364177  0.87343725  0.76381754  1  0  -0.354943  -0.620868  0  2.323357  0
O  O112  1  0.72923281  0.20157980  0.66696060  1  0  -0.371459  -0.639501  0  2.293099  0
O  O113  1  0.27076594  0.29841953  0.16696056  1  0  -0.371467  -0.639527  0  2.293148  0
O  O114  1  0.27076638  0.79841801  0.33303792  1  0  -0.371459  -0.639547  0  2.293057  0
O  O115  1  0.72923478  0.70158210  0.83303867  1  0  -0.371434  -0.639511  0  2.293077  0
O  O116  1  0.24770746  0.46186254  0.98788654  1  0  -0.37721  -0.65881  0  2.313003  0
O  O117  1  0.75229421  0.03813763  0.48788558  1  0  -0.377201  -0.658794  0  2.313026  0
O  O118  1  0.75229315  0.53813814  0.01211411  1  0  -0.3772  -0.658798  0  2.313091  0
O  O119  1  0.24770726  0.96186113  0.51211294  1  0  -0.377201  -0.658836  0  2.313092  0
O  O120  1  0.10426198  0.45193065  0.85648807  1  0  -0.385194  -0.638142  0  2.299916  0
O  O121  1  0.89573813  0.04806766  0.35648723  1  0  -0.385194  -0.638136  0  2.299914  0
O  O122  1  0.89573874  0.54807098  0.14351258  1  0  -0.385193  -0.638091  0  2.299811  0
O  O123  1  0.10426096  0.95192920  0.64351129  1  0  -0.385229  -0.638149  0  2.29969  0
O  O124  1  0.98913591  0.64737805  0.73720246  1  0  -0.656324  -0.87061  0  2.155991  0
O  O125  1  0.01086387  0.85262114  0.23720289  1  0  -0.656335  -0.870573  0  2.156025  0
O  O126  1  0.01086448  0.35262072  0.26279748  1  0  -0.656338  -0.870608  0  2.156001  0
O  O127  1  0.98913544  0.14737763  0.76279705  1  0  -0.65633  -0.870578  0  2.156041  0
