# generated using pymatgen
data_CuH8C5N2O3
_symmetry_space_group_name_H-M   'P 1'
_cell_length_a   8.43535308
_cell_length_b   8.70816579
_cell_length_c   9.65646709
_cell_angle_alpha   89.99991003
_cell_angle_beta   90.00037297
_cell_angle_gamma   89.99935969
_symmetry_Int_Tables_number   1
_chemical_formula_structural   CuH8C5N2O3
_chemical_formula_sum   'Cu4 H32 C20 N8 O12'
_cell_volume   709.32982189
_cell_formula_units_Z   4
loop_
 _symmetry_equiv_pos_site_id
 _symmetry_equiv_pos_as_xyz
  1  'x, y, z'
loop_
 _atom_site_type_symbol
 _atom_site_label
 _atom_site_symmetry_multiplicity
 _atom_site_fract_x
 _atom_site_fract_y
 _atom_site_fract_z
 _atom_site_occupancy
 _atom_site_hle17_ddec_charge
 _atom_site_hle17_ddec_spin_density
 _atom_site_hle17_ddec_sum_bond_order
 _atom_site_hle17_magmom
 _atom_site_hse06_10hf_ddec_charge
 _atom_site_hse06_10hf_ddec_spin_density
 _atom_site_hse06_10hf_ddec_sum_bond_order
 _atom_site_hse06_10hf_magmom
 _atom_site_hse06_ddec_charge
 _atom_site_hse06_ddec_spin_density
 _atom_site_hse06_ddec_sum_bond_order
 _atom_site_hse06_magmom
 _atom_site_pbe_cm5_charge
 _atom_site_pbe_ddec_charge
 _atom_site_pbe_ddec_spin_density
 _atom_site_pbe_ddec_sum_bond_order
 _atom_site_pbe_magmom
Cu  Cu0  1  0.10414879  0.06273098  0.81683832  1  0.839751  0.672745  1.832257  0.475  0.82166  0.772543  2.232427  0.597  0.911785  0.851863  2.161299  0.683  0.728451  0.763413  0.711932  2.286156  0.539
Cu  Cu1  1  0.89583124  0.56272652  0.68317012  1  0.83965  -0.672709  1.832399  -0.475  0.821591  -0.772535  2.232612  -0.597  0.911731  -0.851863  2.161477  -0.683  0.728382  0.763352  -0.711922  2.286348  -0.539
Cu  Cu2  1  0.39584389  0.93725598  0.31683554  1  0.839601  0.672685  1.832431  0.475  0.821487  0.77251  2.232686  0.597  0.911693  0.851844  2.161508  0.683  0.728363  0.763241  0.711895  2.286408  0.539
Cu  Cu3  1  0.60414707  0.43725757  0.18316562  1  0.839646  -0.672693  1.832283  -0.475  0.82148  -0.772515  2.232569  -0.597  0.911681  -0.851843  2.161317  -0.683  0.728386  0.763268  -0.711903  2.286255  -0.539
H  H4  1  0.24160700  0.32070189  0.86304687  1  0.303581  -0.000184  0.901847  -0.001  0.294605  0.000676  0.958473  0.0  0.300371  0.000277  0.956313  -0.001  0.300835  0.290656  0.000937  0.96011  0.0
H  H5  1  0.75839844  0.82070123  0.63695690  1  0.303591  0.000186  0.901824  0.001  0.294602  -0.000676  0.958482  0.0  0.300369  -0.000276  0.956325  0.001  0.300814  0.29065  -0.000936  0.960125  0.0
H  H6  1  0.25838957  0.67929191  0.36305209  1  0.303652  -0.000188  0.901746  -0.001  0.294696  0.000676  0.958347  0.0  0.300461  0.000276  0.95619  -0.001  0.300831  0.290742  0.000936  0.959985  0.0
H  H7  1  0.74161510  0.17930243  0.13694959  1  0.303607  0.000186  0.901887  0.001  0.294679  -0.000675  0.958446  0.0  0.300446  -0.000276  0.956286  0.001  0.300875  0.290729  -0.000936  0.960085  0.0
H  H8  1  0.36221345  0.16900684  0.87584294  1  0.311308  -0.00088  0.876633  -0.002  0.307185  0.000413  0.923685  0.0  0.313397  7.5e-05  0.920754  -0.001  0.305804  0.302488  0.00064  0.926478  0.0
H  H9  1  0.63779497  0.66900747  0.62415595  1  0.311264  0.00088  0.876766  0.002  0.307118  -0.000414  0.923843  0.0  0.313328  -7.6e-05  0.920918  0.001  0.305795  0.30242  -0.000641  0.926635  0.0
H  H10  1  0.13780337  0.83099039  0.37583784  1  0.311346  -0.000878  0.87671  -0.002  0.307196  0.000413  0.923802  0.0  0.313406  7.6e-05  0.920877  -0.001  0.305842  0.302497  0.00064  0.926588  0.0
H  H11  1  0.86220663  0.33099964  0.12416354  1  0.311297  0.000882  0.876638  0.002  0.307148  -0.000413  0.92374  0.0  0.313359  -7.5e-05  0.920813  0.001  0.305776  0.302449  -0.00064  0.926535  0.0
H  H12  1  0.16739036  0.31855410  0.08668715  1  0.083596  -0.000391  0.918315  0.0  0.104051  -0.000297  0.97101  0.0  0.105354  -0.00023  0.970413  0.0  0.112784  0.102855  -0.000313  0.972095  0.0
H  H13  1  0.83263401  0.81856043  0.41331839  1  0.083592  0.000392  0.918153  0.0  0.104032  0.000297  0.970904  0.0  0.105339  0.000231  0.970297  0.0  0.112752  0.102834  0.000313  0.971982  0.0
H  H14  1  0.33263148  0.68144456  0.58669104  1  0.083629  -0.000394  0.918191  0.0  0.10401  -0.000297  0.970982  0.0  0.105315  -0.000231  0.970379  0.0  0.112773  0.102815  -0.000313  0.972059  0.0
H  H15  1  0.66738153  0.18144411  0.91330680  1  0.083663  0.000393  0.918108  0.0  0.10403  0.000297  0.970912  0.0  0.105334  0.000231  0.970317  0.0  0.112774  0.102836  0.000313  0.971994  0.0
H  H16  1  0.34694844  0.21779254  0.11281017  1  0.091873  0.002982  0.958999  0.004  0.096875  0.002151  1.03766  0.002  0.09854  0.001599  1.034901  0.002  0.106486  0.095055  0.002515  1.040729  0.003
H  H17  1  0.65305341  0.71781113  0.38718005  1  0.091877  -0.002984  0.958941  -0.004  0.096943  -0.002152  1.037544  -0.002  0.098604  -0.0016  1.03479  -0.002  0.106483  0.095121  -0.002517  1.040606  -0.003
H  H18  1  0.15305581  0.78219232  0.61281280  1  0.091961  0.002983  0.958911  0.004  0.096961  0.002153  1.037555  0.002  0.09862  0.0016  1.034803  0.002  0.106502  0.095138  0.002518  1.040621  0.003
H  H19  1  0.84695246  0.28219918  0.88718690  1  0.09186  -0.002982  0.958995  -0.004  0.096877  -0.002152  1.037632  -0.002  0.098545  -0.0016  1.034868  -0.002  0.106509  0.095059  -0.002517  1.040696  -0.003
H  H20  1  0.05753333  0.77684178  0.08526451  1  0.073753  0.000887  0.894788  0.001  0.08803  0.000762  0.946237  0.001  0.089506  0.000662  0.945425  0.001  0.114465  0.086699  0.000855  0.94719  0.001
H  H21  1  0.94246308  0.27685564  0.41472765  1  0.073744  -0.000879  0.894832  -0.001  0.088051  -0.00076  0.946264  -0.001  0.089539  -0.000661  0.945438  -0.001  0.114481  0.086716  -0.000855  0.947218  -0.001
H  H22  1  0.44246598  0.22314770  0.58525238  1  0.073593  0.000886  0.894971  0.001  0.087909  0.000762  0.946354  0.001  0.089384  0.000663  0.945544  0.001  0.114416  0.086579  0.000855  0.947308  0.001
H  H23  1  0.55753231  0.72316382  0.91473398  1  0.073868  -0.000882  0.894612  -0.001  0.088096  -0.000762  0.946164  -0.001  0.08955  -0.000662  0.945378  -0.001  0.114494  0.086782  -0.000856  0.947102  -0.001
H  H24  1  0.73775269  0.93632759  0.03397740  1  0.100641  -0.000275  0.949642  0.0  0.121036  -0.000245  1.012423  0.0  0.122092  -0.00018  1.012586  0.0  0.086124  0.120305  -0.000233  1.011988  0.0
H  H25  1  0.26224895  0.43632908  0.46601340  1  0.100637  0.00028  0.949728  0.0  0.121058  0.000245  1.012476  0.0  0.122116  0.000179  1.012637  0.0  0.086135  0.120324  0.000233  1.012039  0.0
H  H26  1  0.76224944  0.06367272  0.53398317  1  0.100614  -0.000283  0.949606  0.0  0.121024  -0.000245  1.012392  0.0  0.122078  -0.000179  1.012559  0.0  0.086109  0.120293  -0.000233  1.01195  0.0
H  H27  1  0.23775785  0.56367725  0.96602630  1  0.100617  0.00028  0.94969  0.0  0.121003  0.000245  1.012488  0.0  0.122059  0.000179  1.012653  0.0  0.086118  0.120277  0.000233  1.012042  0.0
H  H28  1  0.84205595  0.93852375  0.19527996  1  0.106472  -0.000174  0.956777  0.0  0.126539  -5.8e-05  1.020635  0.0  0.128966  -3.7e-05  1.019081  0.0  0.088485  0.124362  -6.7e-05  1.02272  0.0
H  H29  1  0.15794093  0.43852650  0.30471290  1  0.106434  0.000176  0.9568  0.0  0.126534  5.7e-05  1.020621  0.0  0.128961  3.6e-05  1.019066  0.0  0.088452  0.124351  6.7e-05  1.022709  0.0
H  H30  1  0.65794023  0.06146607  0.69528927  1  0.106436  -0.000182  0.956712  0.0  0.126562  -5.8e-05  1.020522  0.0  0.128993  -3.7e-05  1.018961  0.0  0.088485  0.124381  -6.7e-05  1.022613  0.0
H  H31  1  0.34204811  0.56147884  0.80472124  1  0.106427  0.000179  0.956839  0.0  0.126528  5.8e-05  1.020631  0.0  0.128953  3.7e-05  1.019081  0.0  0.088481  0.124347  6.7e-05  1.022724  0.0
H  H32  1  0.77738132  0.76071171  0.12448491  1  0.120982  0.000431  0.969958  0.001  0.137088  0.000139  1.039016  0.0  0.13763  0.000135  1.040824  0.0  0.092458  0.136318  0.000154  1.038507  0.0
H  H33  1  0.22261528  0.26071715  0.37551557  1  0.121061  -0.00043  0.969867  -0.001  0.137171  -0.000139  1.038917  0.0  0.137708  -0.000135  1.04073  0.0  0.0925  0.136399  -0.000155  1.038408  0.0
H  H34  1  0.72261316  0.23929081  0.62448699  1  0.121004  0.000424  0.969956  0.001  0.137139  0.000139  1.03899  0.0  0.137676  0.000135  1.040807  0.0  0.092519  0.13637  0.000155  1.038478  0.0
H  H35  1  0.27737664  0.73929272  0.87551901  1  0.120954  -0.000429  0.96997  -0.001  0.137039  -0.000138  1.039059  0.0  0.137581  -0.000135  1.040863  0.0  0.092433  0.136272  -0.000155  1.038547  0.0
C  C36  1  0.23348413  0.21480057  0.05701303  1  -0.05196  -0.002883  3.624955  -0.006  -0.109584  0.000337  3.892331  -0.003  -0.10753  7.1e-05  3.902109  -0.003  -0.070903  -0.110288  0.000804  3.885905  -0.002
C  C37  1  0.76652132  0.71480413  0.44299065  1  -0.051918  0.002886  3.624762  0.006  -0.109623  -0.000344  3.892107  0.003  -0.107565  -7e-05  3.901899  0.003  -0.070872  -0.110315  -0.000804  3.885658  0.002
C  C38  1  0.26652564  0.78519812  0.55701425  1  -0.052082  -0.002878  3.624955  -0.006  -0.109648  0.000333  3.892359  -0.003  -0.10759  6.8e-05  3.902146  -0.003  -0.070921  -0.110344  0.000803  3.885921  -0.002
C  C39  1  0.73348496  0.28520039  0.94299166  1  -0.051882  0.002876  3.625051  0.006  -0.109514  -0.000337  3.892394  0.003  -0.107462  -7.1e-05  3.902182  0.003  -0.070886  -0.11021  -0.000804  3.885951  0.002
C  C40  1  0.13969179  0.07397346  0.10554307  1  0.538721  -0.004464  3.867897  -0.004  0.510041  0.001421  4.163956  0.002  0.541354  0.000311  4.168219  0.0  0.210036  0.487948  0.001911  4.160032  0.002
C  C41  1  0.86030939  0.57395769  0.39445675  1  0.538523  0.004436  3.86876  0.004  0.509981  -0.001426  4.164636  -0.002  0.541296  -0.000315  4.168909  0.0  0.210031  0.487894  -0.001915  4.160699  -0.002
C  C42  1  0.36030292  0.92604126  0.60555905  1  0.538797  -0.004461  3.868305  -0.004  0.510071  0.001424  4.164431  0.002  0.54139  0.000312  4.168686  0.0  0.210059  0.487986  0.001914  4.160502  0.002
C  C43  1  0.63970601  0.42603539  0.89445278  1  0.538312  0.004478  3.868516  0.004  0.509863  -0.001422  4.164296  -0.002  0.541179  -0.00031  4.168568  0.0  0.209935  0.487777  -0.001909  4.160364  -0.002
C  C44  1  0.98386730  0.85713166  0.02467562  1  0.08305  -0.002893  3.702021  -0.006  0.078173  -0.000575  3.937659  -0.003  0.081038  -0.000448  3.951717  -0.003  0.003585  0.076301  -0.000669  3.927945  -0.003
C  C45  1  0.01614239  0.35712426  0.47532880  1  0.083268  0.00283  3.701688  0.006  0.078296  0.00057  3.937584  0.003  0.081156  0.000445  3.951647  0.003  0.003731  0.076422  0.000667  3.927873  0.003
C  C46  1  0.51613001  0.14286637  0.52466115  1  0.083066  -0.002909  3.70231  -0.006  0.078301  -0.000573  3.937863  -0.003  0.081161  -0.000447  3.951938  -0.003  0.003694  0.076421  -0.000667  3.928147  -0.003
C  C47  1  0.48387397  0.64287632  0.97533158  1  0.082997  0.002862  3.701936  0.006  0.078049  0.000572  3.937742  0.003  0.080927  0.000446  3.951797  0.003  0.003525  0.076167  0.000667  3.928041  0.003
C  C48  1  0.95779722  0.78703396  0.88124976  1  0.626274  0.003114  3.809494  0.004  0.58661  0.002669  4.104901  0.004  0.623522  0.002113  4.098995  0.003  0.215533  0.56138  0.002927  4.107436  0.004
C  C49  1  0.04219439  0.28703352  0.61875511  1  0.626658  -0.003108  3.808795  -0.004  0.586849  -0.002667  4.104426  -0.004  0.623762  -0.002117  4.098513  -0.003  0.215552  0.561618  -0.002927  4.106962  -0.004
C  C50  1  0.54218371  0.21296143  0.38123707  1  0.626543  0.00314  3.809162  0.004  0.586653  0.00267  4.104835  0.004  0.623568  0.002115  4.09893  0.003  0.215438  0.561429  0.00293  4.107364  0.004
C  C51  1  0.45779330  0.71296971  0.11874694  1  0.626529  -0.003102  3.809159  -0.004  0.586894  -0.002671  4.104534  -0.004  0.623803  -0.00212  4.098627  -0.003  0.215562  0.561666  -0.002929  4.107073  -0.004
C  C52  1  0.82390262  0.87466314  0.09868253  1  -0.320459  0.001888  3.646401  0.002  -0.402472  0.000403  3.886737  0.0  -0.405308  0.000361  3.896533  0.0  -0.245679  -0.400229  0.000661  3.879916  0.001
C  C53  1  0.17609738  0.37467020  0.40131253  1  -0.320538  -0.001902  3.646441  -0.002  -0.402586  -0.000404  3.886806  0.0  -0.405424  -0.00036  3.8966  0.0  -0.24575  -0.400338  -0.000662  3.879984  -0.001
C  C54  1  0.67609998  0.12533252  0.59868975  1  -0.320401  0.001944  3.646157  0.002  -0.402541  0.000407  3.88644  0.0  -0.405375  0.000362  3.896238  0.0  -0.245744  -0.400293  0.000664  3.879617  0.001
C  C55  1  0.32389591  0.62534079  0.90131752  1  -0.320464  -0.001913  3.646241  -0.002  -0.402426  -0.000404  3.886562  0.0  -0.405259  -0.00036  3.896351  0.0  -0.245658  -0.400184  -0.000662  3.87975  -0.001
N  N56  1  0.25570441  0.21443602  0.90566716  1  -0.575903  0.101163  3.165384  0.122  -0.554875  0.073439  3.436562  0.093  -0.586015  0.060328  3.439088  0.081  -0.633387  -0.535478  0.079249  3.436542  0.097
N  N57  1  0.74428925  0.71442981  0.59433372  1  -0.575831  -0.101204  3.16555  -0.122  -0.554767  -0.073448  3.43672  -0.093  -0.585922  -0.060341  3.439268  -0.081  -0.633362  -0.535378  -0.079268  3.436702  -0.097
N  N58  1  0.24428655  0.78556233  0.40567623  1  -0.575973  0.10119  3.165534  0.122  -0.554962  0.073455  3.436746  0.093  -0.586125  0.060338  3.439289  0.081  -0.633432  -0.535563  0.079265  3.436712  0.097
N  N59  1  0.75570976  0.28556700  0.09433248  1  -0.575939  -0.101163  3.165578  -0.122  -0.55491  -0.073434  3.436704  -0.093  -0.586063  -0.060325  3.43923  -0.081  -0.633415  -0.535528  -0.079244  3.436685  -0.097
N  N60  1  0.06645484  0.00084253  0.00326640  1  -0.539988  0.123786  3.272381  0.152  -0.519013  0.076698  3.608924  0.099  -0.564341  0.06303  3.627449  0.086  -0.440328  -0.489728  0.082124  3.598526  0.103
N  N61  1  0.93355194  0.50084427  0.49673668  1  -0.54018  -0.123762  3.272615  -0.152  -0.519259  -0.076712  3.60916  -0.1  -0.564584  -0.063039  3.627662  -0.086  -0.440492  -0.489973  -0.082141  3.598763  -0.103
N  N62  1  0.43355451  0.99916376  0.50326089  1  -0.540146  0.12384  3.272475  0.153  -0.519184  0.076722  3.609049  0.1  -0.56455  0.063048  3.627603  0.086  -0.440416  -0.489891  0.082148  3.598643  0.103
N  N63  1  0.56645353  0.49917282  0.99673007  1  -0.539844  -0.123808  3.272519  -0.153  -0.518898  -0.076707  3.608983  -0.1  -0.564244  -0.063037  3.627507  -0.086  -0.440251  -0.489623  -0.082135  3.59859  -0.103
O  O64  1  0.13594039  0.03816794  0.23242594  1  -0.610745  0.029732  1.931957  0.037  -0.587766  0.010196  2.178471  0.014  -0.617446  0.004058  2.170231  0.006  -0.333316  -0.564581  0.017838  2.184387  0.023
O  O65  1  0.86407188  0.53817178  0.26758431  1  -0.610574  -0.029742  1.932583  -0.038  -0.587592  -0.010201  2.178964  -0.014  -0.617271  -0.00406  2.170709  -0.006  -0.33321  -0.564413  -0.017844  2.184876  -0.023
O  O66  1  0.36406709  0.96182943  0.73241701  1  -0.610539  0.029709  1.932924  0.037  -0.58754  0.010193  2.179434  0.014  -0.617199  0.004057  2.171173  0.006  -0.333175  -0.564368  0.01783  2.185357  0.023
O  O67  1  0.63593431  0.46183979  0.76756886  1  -0.610499  -0.029719  1.932262  -0.037  -0.587618  -0.010195  2.178693  -0.014  -0.617292  -0.004055  2.170454  -0.006  -0.333195  -0.564437  -0.017834  2.18461  -0.023
O  O68  1  0.97923112  0.87234463  0.77421473  1  -0.617488  0.058367  2.079877  0.076  -0.578687  0.047483  2.357114  0.066  -0.616187  0.039269  2.344135  0.057  -0.324238  -0.553642  0.052845  2.367122  0.071
O  O69  1  0.02072274  0.37231560  0.72579100  1  -0.617527  -0.058328  2.080085  -0.075  -0.578682  -0.047465  2.357369  -0.066  -0.616182  -0.039251  2.344389  -0.057  -0.324132  -0.553646  -0.052822  2.36739  -0.071
O  O70  1  0.52075260  0.12765660  0.27421245  1  -0.617485  0.058327  2.080042  0.075  -0.578587  0.047469  2.357329  0.066  -0.616104  0.039258  2.344361  0.057  -0.324147  -0.553552  0.052828  2.367339  0.071
O  O71  1  0.47922305  0.62765537  0.22578623  1  -0.617625  -0.058365  2.079744  -0.076  -0.578805  -0.047481  2.356964  -0.066  -0.616323  -0.039264  2.343978  -0.057  -0.324228  -0.553769  -0.052844  2.366975  -0.071
O  O72  1  0.91351533  0.64819669  0.87287611  1  -0.563436  -0.029967  2.064138  -0.04  -0.519496  -0.023349  2.324714  -0.033  -0.556735  -0.020982  2.314488  -0.031  -0.317192  -0.493836  -0.023355  2.331483  -0.032
O  O73  1  0.08649214  0.14817970  0.62711869  1  -0.563787  0.030001  2.063345  0.04  -0.519668  0.023371  2.32386  0.033  -0.556913  0.021  2.313629  0.031  -0.317286  -0.493998  0.023381  2.330615  0.033
O  O74  1  0.58648213  0.35180329  0.37286857  1  -0.563587  -0.029992  2.063665  -0.04  -0.519552  -0.023367  2.324362  -0.033  -0.556808  -0.020997  2.314116  -0.031  -0.31724  -0.493893  -0.023376  2.33112  -0.033
O  O75  1  0.41353947  0.85180744  0.12712136  1  -0.563524  0.029951  2.063933  0.04  -0.519561  0.023345  2.324485  0.033  -0.55681  0.020982  2.314256  0.031  -0.317195  -0.493901  0.023352  2.331245  0.032
