# generated using pymatgen
data_Zn2H8C27N2(Cl5O4)2
_symmetry_space_group_name_H-M   'P 1'
_cell_length_a   10.08061741
_cell_length_b   10.96828005
_cell_length_c   25.90043748
_cell_angle_alpha   89.39101714
_cell_angle_beta   89.16001673
_cell_angle_gamma   90.37356766
_symmetry_Int_Tables_number   1
_chemical_formula_structural   Zn2H8C27N2(Cl5O4)2
_chemical_formula_sum   'Zn4 H16 C54 N4 Cl20 O16'
_cell_volume   2863.20126316
_cell_formula_units_Z   2
loop_
 _symmetry_equiv_pos_site_id
 _symmetry_equiv_pos_as_xyz
  1  'x, y, z'
loop_
 _atom_site_type_symbol
 _atom_site_label
 _atom_site_symmetry_multiplicity
 _atom_site_fract_x
 _atom_site_fract_y
 _atom_site_fract_z
 _atom_site_occupancy
 _atom_site_pbe_bader_charge
 _atom_site_pbe_bader_spin_density
 _atom_site_pbe_cm5_charge
 _atom_site_pbe_ddec_charge
 _atom_site_pbe_ddec_spin_density
 _atom_site_pbe_ddec_sum_bond_order
 _atom_site_pbe_magmom
Zn  Zn0  1  0.63391122  0.51240017  0.49949932  1  1.28783  0  0.669817  0.886117  0  2.321763  0
Zn  Zn1  1  0.34743909  0.51674285  0.50181756  1  1.292254  0  0.667664  0.880777  0  2.298929  0
Zn  Zn2  1  0.37812061  0.52007057  0.08043894  1  1.304135  0  0.672149  0.890402  0  2.334373  0
Zn  Zn3  1  0.66415202  0.52748404  0.07752991  1  1.310902  0  0.666159  0.879066  0  2.280036  0
H  H4  1  0.26980242  0.52259234  0.66672746  1  0.067934  0  0.096383  0.099795  0  1.047532  0
H  H5  1  0.67312495  0.41023984  0.65390806  1  0.102926  0  0.099071  0.105407  0  1.030872  0
H  H6  1  0.72332614  0.41382622  0.91422510  1  0.088894  0  0.099858  0.106244  0  1.029851  0
H  H7  1  0.32405720  0.53680442  0.92682282  1  0.075806  0  0.093367  0.097551  0  1.061801  0
H  H8  1  0.13146342  0.47731421  0.89129625  1  0.029552  0  0.090774  0.12486  0  0.996982  0
H  H9  1  0.16396076  0.63397051  0.88067167  1  0.05394  0  0.088547  0.123048  0  1.004088  0
H  H10  1  0.05064202  0.55681789  0.84106457  1  0.034975  0  0.090482  0.123513  0  1.032377  0
H  H11  1  0.03351979  0.54284935  0.77050400  1  0.0272  0  0.09244  0.129147  0  1.02149  0
H  H12  1  0.12584520  0.62512223  0.72296457  1  0.037797  0  0.09216  0.126036  0  0.992485  0
H  H13  1  0.09919541  0.46670521  0.71618272  1  0.046355  0  0.091384  0.123767  0  1.007344  0
H  H14  1  0.81022336  0.24969349  0.86819980  1  0.031866  0  0.094286  0.130393  0  0.990146  0
H  H15  1  0.91369024  0.27175639  0.81299005  1  0.031234  0  0.092565  0.12762  0  1.020978  0
H  H16  1  0.89541205  0.38940650  0.85844363  1  0.025507  0  0.091199  0.12411  0  1.014368  0
H  H17  1  0.77376371  0.25040492  0.69376648  1  0.025869  0  0.092102  0.128229  0  0.998716  0
H  H18  1  0.86849946  0.38579648  0.69889860  1  0.025265  0  0.090805  0.123762  0  1.003092  0
H  H19  1  0.89501822  0.26298059  0.74212614  1  0.028801  0  0.092291  0.126878  0  1.022399  0
C  C20  1  0.51252494  0.74904245  0.50037552  1  1.604619  0  0.208625  0.614693  0  4.19571  0
C  C21  1  0.46817979  0.49303186  0.59941030  1  1.544309  0  0.21084  0.602514  0  4.150411  0
C  C22  1  0.51469763  0.27994883  0.50145801  1  1.626169  0  0.208058  0.616907  0  4.200983  0
C  C23  1  0.47208084  0.53725812  0.40227173  1  1.625332  0  0.210698  0.612433  0  4.143396  0
C  C24  1  0.50307230  0.75780296  0.07928377  1  1.669446  0  0.209395  0.617256  0  4.192738  0
C  C25  1  0.54111187  0.50532852  0.98064372  1  1.540092  0  0.210923  0.60242  0  4.146928  0
C  C26  1  0.50603018  0.28918602  0.07845778  1  1.687472  0  0.209422  0.618687  0  4.192837  0
C  C27  1  0.53097972  0.54652668  0.17710166  1  1.632473  0  0.209394  0.611252  0  4.146772  0
C  C28  1  0.92285187  0.44215453  0.46872253  1  0.722163  0  0.151404  0.187583  0  4.044254  0
C  C29  1  0.05837170  0.59061171  0.53262696  1  0.745813  0  0.152776  0.187857  0  4.041208  0
C  C30  1  0.06293203  0.43850524  0.47156429  1  0.663037  0  0.151741  0.187803  0  4.04537  0
C  C31  1  0.91802380  0.58800827  0.53259682  1  0.639835  0  0.15104  0.186541  0  4.041817  0
C  C32  1  0.51209141  0.14230504  0.50146651  1  0.009404  0  -0.019841  -0.111229  0  3.956684  0
C  C33  1  0.51508914  0.88676378  0.50071336  1  0.146258  0  -0.019801  -0.1104  0  3.945346  0
C  C34  1  0.51585369  0.08053628  0.45451913  1  0.138349  0  0.007733  0.064952  0  4.038511  0
C  C35  1  0.51142980  0.94873808  0.54771641  1  0.011081  0  0.007512  0.064326  0  4.038542  0
C  C36  1  0.51659898  0.95256537  0.45406074  1  0.16178  0  0.009489  0.068103  0  4.037573  0
C  C37  1  0.50949388  0.07670856  0.54812426  1  0.175667  0  0.007834  0.063661  0  4.041287  0
C  C38  1  0.35913745  0.49390347  0.68636837  1  0.000661  0  -0.091018  -0.145771  0  3.948499  0
C  C39  1  0.36251465  0.48422781  0.74036373  1  0.015522  0  -0.009857  0.025461  0  4.004819  0
C  C40  1  0.24717189  0.51217174  0.77216352  1  -0.043561  0  -0.0107  0.057461  0  3.926332  0
C  C41  1  0.58851564  0.42933782  0.67900597  1  -0.029497  0  -0.092392  -0.148042  0  3.951387  0
C  C42  1  0.59588175  0.41338205  0.73273681  1  -0.018656  0  -0.009946  0.024344  0  4.004971  0
C  C43  1  0.71333767  0.36448225  0.75706386  1  -0.061752  0  -0.011031  0.056617  0  3.925982  0
C  C44  1  0.63095880  0.43449303  0.89486663  1  -0.032579  0  -0.091075  -0.146266  0  3.948347  0
C  C45  1  0.61748932  0.41641100  0.84155390  1  -0.013539  0  -0.010568  0.022275  0  4.000154  0
C  C46  1  0.72396070  0.36594388  0.81014816  1  0.042247  0  -0.010987  0.055574  0  3.929425  0
C  C47  1  0.40359700  0.50458572  0.90182112  1  0.03809  0  -0.092128  -0.141014  0  3.94635  0
C  C48  1  0.38501785  0.48975869  0.84876881  1  -0.028607  0  -0.010479  0.024113  0  4.009487  0
C  C49  1  0.25848504  0.51568526  0.82512571  1  0.024627  0  -0.010976  0.059475  0  3.924369  0
C  C50  1  0.47224241  0.47131216  0.65630355  1  -0.066661  0  -0.02644  -0.030996  0  4.022344  0
C  C51  1  0.48391115  0.44758825  0.76368124  1  -0.051756  0  -0.001969  -0.003908  0  3.976343  0
C  C52  1  0.52596196  0.48087285  0.92438283  1  -0.064938  0  -0.027892  -0.035756  0  4.018017  0
C  C53  1  0.49502788  0.44958412  0.81812748  1  -0.001514  0  -0.000939  -0.002142  0  3.976027  0
C  C54  1  0.48356752  0.56432906  0.34472341  1  0.019352  0  -0.019089  -0.115323  0  3.875821  0
C  C55  1  0.51648372  0.57299804  0.23436200  1  0.031055  0  -0.019719  -0.119234  0  3.875257  0
C  C56  1  0.60883301  0.58917096  0.32144381  1  0.151776  0  0.011684  0.075926  0  3.987933  0
C  C57  1  0.38894528  0.57612497  0.25795014  1  0.146895  0  0.01453  0.082462  0  3.982677  0
C  C58  1  0.62635881  0.58658502  0.26723519  1  0.115118  0  0.011706  0.075015  0  3.992714  0
C  C59  1  0.37278790  0.56246771  0.31190347  1  0.113767  0  0.011838  0.074785  0  3.994041  0
C  C60  1  0.08805023  0.44562477  0.11034690  1  0.670902  0  0.151125  0.185626  0  4.043683  0
C  C61  1  0.95411769  0.60042984  0.04791029  1  0.765976  0  0.152007  0.18608  0  4.044554  0
C  C62  1  0.94750239  0.45006756  0.11114512  1  0.740561  0  0.152276  0.189641  0  4.037741  0
C  C63  1  0.09442507  0.59743191  0.04767286  1  0.639037  0  0.151965  0.186926  0  4.038116  0
C  C64  1  0.50828739  0.15144952  0.07854432  1  0.072695  0  -0.019585  -0.109868  0  3.949112  0
C  C65  1  0.50233816  0.89561655  0.07919519  1  0.075666  0  -0.02  -0.111722  0  3.945257  0
C  C66  1  0.50804462  0.08700847  0.12545563  1  0.041032  0  0.007786  0.064472  0  4.036777  0
C  C67  1  0.50203794  0.96022549  0.03227725  1  0.023194  0  0.007003  0.064478  0  4.039504  0
C  C68  1  0.50558156  0.95895741  0.12584924  1  0.163393  0  0.009612  0.068452  0  4.033859  0
C  C69  1  0.50594630  0.08819849  0.03187480  1  0.155264  0  0.008031  0.063749  0  4.04209  0
C  C70  1  0.14496313  0.54736160  0.86091456  1  -0.078785  0  -0.23993  -0.400656  0  4.000611  0
C  C71  1  0.11973515  0.53808078  0.74451830  1  -0.070336  0  -0.23779  -0.397205  0  3.988451  0
C  C72  1  0.84192771  0.31646130  0.83841790  1  -0.039092  0  -0.237925  -0.398234  0  3.987992  0
C  C73  1  0.81830109  0.31310128  0.72159123  1  -0.026014  0  -0.237845  -0.398517  0  3.992599  0
N  N74  1  0.85294587  0.51562423  0.49988696  1  -1.148551  0  -0.284619  -0.23439  0  3.422939  0
N  N75  1  0.12815757  0.51494026  0.50244561  1  -1.135592  0  -0.283884  -0.231444  0  3.424161  0
N  N76  1  0.15895708  0.52028834  0.07894638  1  -1.156548  0  -0.283866  -0.236688  0  3.421556  0
N  N77  1  0.88318304  0.52683590  0.07971210  1  -1.175178  0  -0.282645  -0.230811  0  3.418804  0
Cl  Cl78  1  0.84329766  0.35418749  0.42575814  1  -0.06441  0  0.080673  0.033069  0  1.704181  0
Cl  Cl79  1  0.13952153  0.68960520  0.57086573  1  -0.072825  0  0.081785  0.03274  0  1.648274  0
Cl  Cl80  1  0.14937135  0.33605887  0.43657483  1  -0.057212  0  0.081201  0.033296  0  1.691044  0
Cl  Cl81  1  0.83105586  0.67543868  0.57437807  1  -0.065463  0  0.076974  0.025963  0  1.662128  0
Cl  Cl82  1  0.52051755  0.16333270  0.39755674  1  -0.17724  0  -0.001766  -0.041087  0  1.538304  0
Cl  Cl83  1  0.50997942  0.86633148  0.60480309  1  -0.180034  0  -0.003155  -0.047678  0  1.535573  0
Cl  Cl84  1  0.51693551  0.87569299  0.39657502  1  -0.170416  0  0.005687  -0.038666  0  1.595938  0
Cl  Cl85  1  0.50415115  0.15492145  0.60540550  1  -0.174  0  0.008735  -0.038294  0  1.56589  0
Cl  Cl86  1  0.74359315  0.62853006  0.35777675  1  -0.156751  0  -0.002383  -0.044905  0  1.702042  0
Cl  Cl87  1  0.24873348  0.60375057  0.22272236  1  -0.159663  0  -0.003896  -0.046033  0  1.690281  0
Cl  Cl88  1  0.78615677  0.60136624  0.24376595  1  -0.145456  0  -0.006164  -0.047454  0  1.670352  0
Cl  Cl89  1  0.21343458  0.54153318  0.33505279  1  -0.150685  0  -0.008226  -0.053857  0  1.683296  0
Cl  Cl90  1  0.16696252  0.34542951  0.14893354  1  -0.065302  0  0.082607  0.035611  0  1.701514  0
Cl  Cl91  1  0.87421886  0.69743407  0.00803443  1  -0.073317  0  0.082652  0.036113  0  1.638835  0
Cl  Cl92  1  0.85939240  0.35811635  0.15179657  1  -0.067441  0  0.08156  0.033676  0  1.683861  0
Cl  Cl93  1  0.18234219  0.69118179  0.00746867  1  -0.077945  0  0.085326  0.030103  0  1.697745  0
Cl  Cl94  1  0.50866147  0.16652865  0.18248257  1  -0.182357  0  -0.003053  -0.042589  0  1.537688  0
Cl  Cl95  1  0.49561002  0.88089070  0.97523667  1  -0.178971  0  -0.003679  -0.048083  0  1.54113  0
Cl  Cl96  1  0.50786798  0.87896805  0.18331091  1  -0.167148  0  0.005506  -0.038534  0  1.584339  0
Cl  Cl97  1  0.50867207  0.16905429  0.97453229  1  -0.172683  0  0.007277  -0.038732  0  1.569204  0
O  O98  1  0.62209325  0.69642825  0.49088479  1  -1.145066  0  -0.318609  -0.552297  0  2.36274  0
O  O99  1  0.40104647  0.70008566  0.50965843  1  -1.149625  0  -0.3105  -0.545415  0  2.374226  0
O  O100  1  0.35406583  0.49168352  0.57854198  1  -1.15212  0  -0.326577  -0.556078  0  2.363566  0
O  O101  1  0.57829940  0.51265214  0.57590736  1  -1.17453  0  -0.324642  -0.573681  0  2.392376  0
O  O102  1  0.40488094  0.33331457  0.49619382  1  -1.162846  0  -0.313824  -0.557734  0  2.371427  0
O  O103  1  0.62875638  0.32750719  0.50633161  1  -1.138578  0  -0.317651  -0.539906  0  2.353891  0
O  O104  1  0.57376899  0.49317289  0.42350560  1  -1.170541  0  -0.320109  -0.568993  0  2.449162  0
O  O105  1  0.36194027  0.55704852  0.42510304  1  -1.142729  0  -0.316098  -0.540349  0  2.401413  0
O  O106  1  0.39391894  0.70467926  0.09046145  1  -1.15048  0  -0.318403  -0.552491  0  2.353768  0
O  O107  1  0.61319041  0.70972408  0.06809784  1  -1.152353  0  -0.312123  -0.546412  0  2.376983  0
O  O108  1  0.65622000  0.49592547  0.00018214  1  -1.159695  0  -0.324954  -0.553791  0  2.332712  0
O  O109  1  0.43639243  0.53569336  0.00546323  1  -1.186687  0  -0.328953  -0.581418  0  2.427113  0
O  O110  1  0.61518714  0.34341655  0.08578474  1  -1.164638  0  -0.315195  -0.556621  0  2.375203  0
O  O111  1  0.39300602  0.33588505  0.07131432  1  -1.146882  0  -0.316266  -0.541854  0  2.353253  0
O  O112  1  0.43129727  0.49735065  0.15607568  1  -1.169502  0  -0.324764  -0.571656  0  2.458685  0
O  O113  1  0.64094910  0.56904824  0.15439217  1  -1.150421  0  -0.314011  -0.542994  0  2.417484  0
