# generated using pymatgen
data_AlH8C12SNO5
_symmetry_space_group_name_H-M   'P 1'
_cell_length_a   6.65654237
_cell_length_b   12.69831824
_cell_length_c   16.92432855
_cell_angle_alpha   84.04035776
_cell_angle_beta   82.82240484
_cell_angle_gamma   75.44429516
_symmetry_Int_Tables_number   1
_chemical_formula_structural   AlH8C12SNO5
_chemical_formula_sum   'Al2 H16 C24 S2 N2 O10'
_cell_volume   1369.88200979
_cell_formula_units_Z   2
loop_
 _symmetry_equiv_pos_site_id
 _symmetry_equiv_pos_as_xyz
  1  'x, y, z'
loop_
 _atom_site_type_symbol
 _atom_site_label
 _atom_site_symmetry_multiplicity
 _atom_site_fract_x
 _atom_site_fract_y
 _atom_site_fract_z
 _atom_site_occupancy
 _atom_site_pbe_bader_charge
 _atom_site_pbe_bader_spin_density
 _atom_site_pbe_cm5_charge
 _atom_site_pbe_ddec_charge
 _atom_site_pbe_ddec_spin_density
 _atom_site_pbe_ddec_sum_bond_order
 _atom_site_pbe_magmom
Al  Al0  1  0.50021623  0.49984822  0.49988022  1  2.505141  0  0.397966  1.648089  0  2.579077  0
Al  Al1  1  0.00024574  0.49993450  0.49981592  1  2.503722  0  0.397361  1.651579  0  2.566329  0
H  H2  1  0.21460839  0.61905228  0.43300654  1  0.621845  0  0.351451  0.429093  0  0.86079  0
H  H3  1  0.78390957  0.38354085  0.56980199  1  0.608026  0  0.351793  0.428819  0  0.859151  0
H  H4  1  0.85531574  0.49332920  0.73621322  1  0.101257  0  0.108478  0.112058  0  1.004947  0
H  H5  1  0.79291466  0.49246476  0.88634045  1  0.10025  0  0.103659  0.102611  0  1.038641  0
H  H6  1  0.42539950  0.50997057  0.89519948  1  0.082044  0  0.106994  0.10811  0  1.014263  0
H  H7  1  0.48641142  0.51318547  0.74435098  1  0.100121  0  0.108773  0.113548  0  1.00566  0
H  H8  1  0.57473507  0.48993895  0.10464044  1  0.081787  0  0.107079  0.108249  0  1.014491  0
H  H9  1  0.20726341  0.50737770  0.11357213  1  0.098696  0  0.103698  0.102712  0  1.038778  0
H  H10  1  0.14467212  0.50656955  0.26372762  1  0.103169  0  0.108887  0.112377  0  1.004548  0
H  H11  1  0.51361514  0.48672224  0.25550697  1  0.102882  0  0.108941  0.113815  0  1.004654  0
H  H12  1  0.82670615  0.19582667  0.53214293  1  0.094712  0  0.094915  0.135896  0  1.025278  0
H  H13  1  0.83657465  0.07942594  0.60104774  1  0.03343  0  0.089333  0.127733  0  1.00066  0
H  H14  1  0.65204258  0.20498633  0.62039211  1  0.050985  0  0.100251  0.14365  0  0.978951  0
H  H15  1  0.34735147  0.79478455  0.37977746  1  0.052309  0  0.100731  0.144254  0  0.97806  0
H  H16  1  0.16341391  0.92061397  0.39889185  1  0.033109  0  0.0897  0.12821  0  1.000059  0
H  H17  1  0.17251476  0.80460829  0.46805313  1  0.089798  0  0.094654  0.134587  0  1.026798  0
C  C18  1  0.66277909  0.69563995  0.50188919  1  1.562196  0  0.257383  0.653317  0  4.138568  0
C  C19  1  0.78943095  0.49784619  0.35637103  1  1.587616  0  0.266129  0.636392  0  4.104587  0
C  C20  1  0.33747622  0.30431266  0.49785633  1  1.559964  0  0.25781  0.653681  0  4.138864  0
C  C21  1  0.21072763  0.50186163  0.64349846  1  1.583747  0  0.265599  0.635315  0  4.106455  0
C  C22  1  0.17445495  0.50299222  0.73224674  1  -0.064641  0  -0.010045  -0.036375  0  3.954647  0
C  C23  1  0.97827325  0.49718104  0.77197183  1  -0.005444  0  -0.076892  -0.076644  0  3.964966  0
C  C24  1  0.94348585  0.49670102  0.85442274  1  -0.047781  0  -0.081499  -0.13878  0  3.945799  0
C  C25  1  0.10660289  0.50126490  0.89860491  1  0.348749  0  0.089347  0.173234  0  4.035686  0
C  C26  1  0.30260154  0.50679437  0.85910215  1  -0.094419  0  -0.078071  -0.138223  0  3.948384  0
C  C27  1  0.33605466  0.50826929  0.77627591  1  0.062748  0  -0.078922  -0.081587  0  3.969882  0
C  C28  1  0.69750178  0.49309869  0.14076102  1  -0.094188  0  -0.077875  -0.137841  0  3.948748  0
C  C29  1  0.89356043  0.49859530  0.10129024  1  0.341023  0  0.089426  0.172355  0  4.037287  0
C  C30  1  0.05668675  0.50312753  0.14549035  1  -0.043105  0  -0.081535  -0.138663  0  3.945763  0
C  C31  1  0.02183772  0.50264008  0.22793893  1  -0.004668  0  -0.076819  -0.075878  0  3.963852  0
C  C32  1  0.82560520  0.49682317  0.26761789  1  -0.064668  0  -0.010119  -0.037298  0  3.953861  0
C  C33  1  0.66399402  0.49158279  0.22358833  1  0.062677  0  -0.078584  -0.081241  0  3.968135  0
C  C34  1  0.57667853  0.11661493  0.53097559  1  0.0635  0  -0.004006  0.14598  0  3.966219  0
C  C35  1  0.42321509  0.88335206  0.46900800  1  0.060339  0  -0.004363  0.145628  0  3.966083  0
C  C36  1  0.40369040  0.18519682  0.49820546  1  -0.168447  0  -0.025305  -0.201254  0  3.930224  0
C  C37  1  0.59628000  0.81474427  0.50171427  1  -0.167156  0  -0.025214  -0.20108  0  3.929833  0
C  C38  1  0.41793165  0.99314700  0.48001940  1  -0.112209  0  -0.024869  -0.079403  0  4.078835  0
C  C39  1  0.58197287  0.00680070  0.51997897  1  -0.176621  0  -0.025102  -0.079778  0  4.078813  0
C  C40  1  0.73140803  0.15084560  0.57349482  1  -0.055398  0  -0.235165  -0.401868  0  3.967126  0
C  C41  1  0.26828299  0.84917927  0.42656013  1  -0.052549  0  -0.235384  -0.401729  0  3.966352  0
S  S42  1  0.25195773  0.11697094  0.45576107  1  0.246315  0  0.087677  0.12822  0  2.821634  0
S  S43  1  0.74795101  0.88297014  0.54419728  1  0.245662  0  0.087225  0.127837  0  2.822388  0
N  N44  1  0.09003017  0.50045823  0.98267092  1  -0.476976  0  -0.14843  -0.135736  0  3.275558  0
N  N45  1  0.91017022  0.49940690  0.01722619  1  -0.520132  0  -0.147791  -0.135009  0  3.276526  0
O  O46  1  0.52710663  0.64679965  0.48719042  1  -1.266614  0  -0.232039  -0.588262  0  2.35859  0
O  O47  1  0.93336919  0.51752563  0.39155049  1  -1.266168  0  -0.238497  -0.600787  0  2.359231  0
O  O48  1  0.14987422  0.35048518  0.48390073  1  -1.259961  0  -0.242613  -0.593341  0  2.313137  0
O  O49  1  0.38321973  0.51851003  0.60970534  1  -1.25912  0  -0.237268  -0.589681  0  2.332794  0
O  O50  1  0.47311239  0.35308577  0.51266790  1  -1.265444  0  -0.232323  -0.588591  0  2.359013  0
O  O51  1  0.06666671  0.48230835  0.60829536  1  -1.265468  0  -0.239301  -0.601958  0  2.359289  0
O  O52  1  0.85064117  0.64958967  0.51560977  1  -1.261394  0  -0.243373  -0.594923  0  2.312772  0
O  O53  1  0.61710587  0.48104873  0.39019278  1  -1.259333  0  -0.23691  -0.588687  0  2.331771  0
O  O54  1  0.23779611  0.54938737  0.46396328  1  -1.424969  0  -0.448745  -0.996809  0  2.213341  0
O  O55  1  0.76259992  0.45066088  0.53578777  1  -1.410942  0  -0.448201  -0.995924  0  2.217003  0
