# generated using pymatgen
data_ZnH49C41NO5
_symmetry_space_group_name_H-M   'P 1'
_cell_length_a   10.83887592
_cell_length_b   18.44954185
_cell_length_c   19.38335310
_cell_angle_alpha   90.82832300
_cell_angle_beta   93.88202055
_cell_angle_gamma   92.58825177
_symmetry_Int_Tables_number   1
_chemical_formula_structural   ZnH49C41NO5
_chemical_formula_sum   'Zn2 H98 C82 N2 O10'
_cell_volume   3862.69844252
_cell_formula_units_Z   2
loop_
 _symmetry_equiv_pos_site_id
 _symmetry_equiv_pos_as_xyz
  1  'x, y, z'
loop_
 _atom_site_type_symbol
 _atom_site_label
 _atom_site_symmetry_multiplicity
 _atom_site_fract_x
 _atom_site_fract_y
 _atom_site_fract_z
 _atom_site_occupancy
 _atom_site_pbe_bader_charge
 _atom_site_pbe_bader_spin_density
 _atom_site_pbe_cm5_charge
 _atom_site_pbe_ddec_charge
 _atom_site_pbe_ddec_spin_density
 _atom_site_pbe_ddec_sum_bond_order
 _atom_site_pbe_magmom
Zn  Zn0  1  0.50321638  0.41595755  0.49944373  1  1.313053  0  0.680215  0.856182  0  2.292166  0
Zn  Zn1  1  0.51877081  0.57329720  0.50290570  1  1.281137  0  0.680762  0.81727  0  2.422686  0
H  H2  1  0.55859862  0.15631676  0.59627061  1  0.079266  0  0.108988  0.12098  0  0.995227  0
H  H3  1  0.33490735  0.59554341  0.15879900  1  0.08051  0  0.105285  0.120226  0  0.998259  0
H  H4  1  0.42699101  0.39967135  0.70810561  1  0.091856  0  0.102259  0.108807  0  1.035434  0
H  H5  1  0.53843034  0.39565902  0.27944408  1  0.07198  0  0.101225  0.105929  0  1.017579  0
H  H6  1  0.59757918  0.50035824  0.93934683  1  0.023195  0  0.098923  0.102191  0  0.997599  0
H  H7  1  0.59746973  0.49213941  0.06761918  1  0.069034  0  0.102031  0.104517  0  0.993823  0
H  H8  1  0.25586966  0.68989307  0.65029066  1  0.007021  0  0.082979  0.112743  0  1.006803  0
H  H9  1  0.22045872  0.68006633  0.55957318  1  0.035243  0  0.082315  0.11004  0  1.045024  0
H  H10  1  0.10239747  0.69993454  0.61545159  1  0.008974  0  0.079789  0.105012  0  1.04286  0
H  H11  1  0.11521144  0.57956880  0.66835623  1  0.011232  0  0.089134  0.079478  0  0.982604  0
H  H12  1  0.25219058  0.56326933  0.62893833  1  0.04151  0  0.091724  0.092349  0  1.021477  0
H  H13  1  0.43287721  0.16197530  0.38146434  1  0.045616  0  0.10865  0.123016  0  1.009024  0
H  H14  1  0.96920779  0.69369068  0.53325258  1  0.02441  0  0.080659  0.10768  0  1.041864  0
H  H15  1  0.81823212  0.66076681  0.50360190  1  0.038593  0  0.081914  0.119062  0  1.046772  0
H  H16  1  0.83978273  0.71713409  0.57933810  1  0.003048  0  0.077169  0.102457  0  1.030735  0
H  H17  1  0.79924152  0.58623829  0.60745256  1  0.057593  0  0.092769  0.095447  0  1.004785  0
H  H18  1  0.94483712  0.61959345  0.64323567  1  0.011222  0  0.085777  0.070929  0  1.025769  0
H  H19  1  0.75543441  0.23931749  0.62809375  1  0.017265  0  0.076895  0.094639  0  1.029746  0
H  H20  1  0.76927822  0.32380322  0.58482989  1  0.060814  0  0.088727  0.130176  0  1.027702  0
H  H21  1  0.76039063  0.32253083  0.67591480  1  0.025892  0  0.08927  0.119299  0  0.98932  0
H  H22  1  0.55699847  0.35488764  0.61927347  1  0.094513  0  0.100918  0.118976  0  1.046034  0
H  H23  1  0.54260288  0.27108706  0.66151831  1  0.02829  0  0.093156  0.090387  0  0.979649  0
H  H24  1  0.62245227  0.82001950  0.39857887  1  0.056443  0  0.113819  0.121772  0  0.983546  0
H  H25  1  0.21981787  0.23128511  0.36055651  1  0.032402  0  0.083797  0.108041  0  1.03685  0
H  H26  1  0.24463722  0.29583486  0.29544466  1  0.052996  0  0.094215  0.127882  0  0.986519  0
H  H27  1  0.33619808  0.21904478  0.30148806  1  -0.011417  0  0.080973  0.099061  0  1.025287  0
H  H28  1  0.33410561  0.34817723  0.40480652  1  0.111506  0  0.1068  0.127385  0  0.998673  0
H  H29  1  0.45334458  0.33265779  0.35170929  1  0.063652  0  0.099628  0.11283  0  1.017987  0
H  H30  1  0.17944536  0.97127486  0.49548545  1  0.049475  0  0.084252  0.109015  0  1.022021  0
H  H31  1  0.22119091  0.05452681  0.53922567  1  0.00344  0  0.086241  0.115061  0  1.005227  0
H  H32  1  0.09689863  0.04990215  0.47425830  1  0.001004  0  0.085031  0.113171  0  1.034496  0
H  H33  1  0.28571018  0.10970749  0.43038861  1  0.009267  0  0.088527  0.081674  0  1.050269  0
H  H34  1  0.24528960  0.02944746  0.38313279  1  0.020411  0  0.092788  0.089848  0  0.984477  0
H  H35  1  0.42437369  0.82677582  0.58434661  1  0.080769  0  0.114035  0.122639  0  0.982023  0
H  H36  1  0.84749858  0.00071452  0.47535882  1  4.5e-05  0  0.085026  0.111647  0  1.02265  0
H  H37  1  0.79492417  0.07344270  0.42440406  1  0.038865  0  0.088625  0.121319  0  0.999835  0
H  H38  1  0.91821619  0.08890370  0.48902809  1  0.016042  0  0.085643  0.113142  0  1.049317  0
H  H39  1  0.72232758  0.13551991  0.52834406  1  0.002685  0  0.089807  0.083673  0  1.041958  0
H  H40  1  0.77435658  0.06602076  0.58222064  1  0.035049  0  0.092603  0.08875  0  0.987845  0
H  H41  1  0.36306390  0.95005886  0.30907893  1  0.021468  0  0.083162  0.107675  0  1.011766  0
H  H42  1  0.45197649  0.87335310  0.32687870  1  0.030423  0  0.084006  0.109051  0  1.016816  0
H  H43  1  0.29306251  0.86089807  0.29863853  1  0.022672  0  0.088214  0.116983  0  1.004228  0
H  H44  1  0.32301059  0.84216124  0.42644082  1  0.036017  0  0.090971  0.086122  0  1.015465  0
H  H45  1  0.23110971  0.91626380  0.40830105  1  0.031427  0  0.093017  0.089797  0  1.003125  0
H  H46  1  0.61933957  0.68419470  0.40894136  1  0.130015  0  0.133867  0.110221  0  0.959334  0
H  H47  1  0.74699889  0.90910082  0.67979955  1  -0.007534  0  0.086565  0.115228  0  1.01754  0
H  H48  1  0.66468488  0.98789921  0.65833182  1  0.00721  0  0.083989  0.109044  0  1.011981  0
H  H49  1  0.58792264  0.90103253  0.65072906  1  0.013936  0  0.083993  0.107864  0  1.022004  0
H  H50  1  0.71981570  0.86701810  0.55461528  1  0.035472  0  0.09015  0.08618  0  1.006931  0
H  H51  1  0.80340582  0.95063898  0.56416464  1  0.033167  0  0.09374  0.092114  0  1.002128  0
H  H52  1  0.11155658  0.23606404  0.60033050  1  0.053345  0  0.087808  0.119543  0  0.997614  0
H  H53  1  0.96783817  0.19576191  0.56761318  1  0.033952  0  0.084214  0.112267  0  1.01966  0
H  H54  1  0.10182898  0.14308900  0.57368164  1  0.021075  0  0.079237  0.101019  0  1.041132  0
H  H55  1  0.05936223  0.17973503  0.45009018  1  0.006364  0  0.085737  0.071284  0  1.023758  0
H  H56  1  0.19853120  0.22339065  0.48508352  1  0.037155  0  0.088525  0.085019  0  0.998463  0
H  H57  1  0.44048021  0.69154600  0.59052007  1  0.151277  0  0.129774  0.10507  0  1.002868  0
H  H58  1  0.86381901  0.26992047  0.30987580  1  0.051553  0  0.086726  0.116373  0  0.999366  0
H  H59  1  0.97351158  0.20877405  0.34285062  1  0.009955  0  0.081443  0.105488  0  1.027476  0
H  H60  1  0.81822517  0.17707592  0.32086883  1  0.044892  0  0.079902  0.102682  0  1.014967  0
H  H61  1  0.84990960  0.19258284  0.44895835  1  -0.006785  0  0.086639  0.077097  0  1.043288  0
H  H62  1  0.74409439  0.25502339  0.41598770  1  0.002591  0  0.088676  0.086895  0  0.98443  0
H  H63  1  0.68853892  0.61765395  0.70972413  1  0.046834  0  0.096675  0.062089  0  1.000354  0
H  H64  1  0.66374552  0.65963232  0.79130902  1  0.040697  0  0.089134  0.044294  0  0.984488  0
H  H65  1  0.65920080  0.73159654  0.64955609  1  0.052905  0  0.088745  0.082018  0  1.00381  0
H  H66  1  0.61090532  0.77432517  0.72482355  1  0.009787  0  0.089391  0.080627  0  0.978281  0
H  H67  1  0.82203647  0.76436365  0.78445400  1  0.050377  0  0.083965  0.107982  0  1.005762  0
H  H68  1  0.21739247  0.34883443  0.51043627  1  0.119294  0  0.099124  0.111949  0  1.042812  0
H  H69  1  0.83673712  0.80771609  0.70405569  1  0.004299  0  0.083259  0.106921  0  1.029871  0
H  H70  1  0.87141104  0.71533498  0.71258796  1  0.031658  0  0.08674  0.115162  0  1.018183  0
H  H71  1  0.27192501  0.57116989  0.36857376  1  0.086896  0  0.099593  0.075754  0  1.004328  0
H  H72  1  0.17427483  0.59545159  0.29484007  1  0.020421  0  0.089401  0.045922  0  0.976345  0
H  H73  1  0.32930168  0.70052661  0.39341687  1  0.00454  0  0.086978  0.081356  0  1.000481  0
H  H74  1  0.23620206  0.72662366  0.32035093  1  0.007051  0  0.085554  0.072425  0  0.987253  0
H  H75  1  0.04488739  0.67437545  0.37423295  1  -0.007579  0  0.083868  0.109148  0  1.003223  0
H  H76  1  0.12453477  0.74065341  0.42991401  1  0.032034  0  0.080093  0.102958  0  1.017803  0
H  H77  1  0.13914890  0.64699912  0.44672581  1  0.054113  0  0.087868  0.121512  0  1.024307  0
H  H78  1  0.23904243  0.32718533  0.76765402  1  0.066635  0  0.086697  0.113814  0  1.00293  0
H  H79  1  0.77324211  0.37526267  0.44513255  1  0.09062  0  0.099705  0.112472  0  1.035511  0
H  H80  1  0.38912707  0.29658518  0.75603742  1  0.013437  0  0.082763  0.10559  0  1.026259  0
H  H81  1  0.30485523  0.26238939  0.82466114  1  0.014001  0  0.084678  0.110305  0  1.00434  0
H  H82  1  0.46840090  0.35522417  0.86946685  1  0.02472  0  0.092052  0.087143  0  0.967318  0
H  H83  1  0.31998236  0.38023639  0.88609959  1  0.029334  0  0.090758  0.082745  0  1.011087  0
H  H84  1  0.42432234  0.28587370  0.21312231  1  0.020656  0  0.082641  0.109966  0  1.036186  0
H  H85  1  0.32421000  0.30524814  0.14026834  1  0.019315  0  0.083269  0.108612  0  1.023117  0
H  H86  1  0.45105115  0.24905725  0.13042846  1  0.017128  0  0.082946  0.107578  0  1.005551  0
H  H87  1  0.50060961  0.37287962  0.08715539  1  0.002423  0  0.088353  0.083733  0  1.01678  0
H  H88  1  0.60069854  0.35361121  0.15938093  1  0.045223  0  0.089679  0.083065  0  0.973774  0
H  H89  1  0.12345068  0.38191987  0.04035637  1  0.026684  0  0.081418  0.103534  0  1.024104  0
H  H90  1  0.44605035  0.62616327  0.84750725  1  0.074824  0  0.104536  0.122367  0  0.992797  0
H  H91  1  0.19806853  0.39929298  0.12372526  1  0.045575  0  0.083928  0.111736  0  1.034814  0
H  H92  1  0.03900029  0.41699214  0.10812305  1  0.010318  0  0.085755  0.113646  0  0.999257  0
H  H93  1  0.17145552  0.53174133  0.11127285  1  0.039483  0  0.090428  0.08574  0  1.007272  0
H  H94  1  0.09003014  0.51766060  0.03042216  1  0.008638  0  0.090673  0.084099  0  1.006385  0
H  H95  1  0.13558754  0.42149604  0.85754503  1  0.019886  0  0.085999  0.115912  0  1.024822  0
H  H96  1  0.05822540  0.42771663  0.93516034  1  0.022198  0  0.083516  0.109554  0  1.02866  0
H  H97  1  0.00337939  0.47437593  0.86038092  1  0.044504  0  0.086166  0.113173  0  1.000071  0
H  H98  1  0.11540219  0.56398163  0.94005174  1  -0.008838  0  0.089929  0.080361  0  0.992138  0
H  H99  1  0.19734188  0.55331412  0.86566659  1  0.029087  0  0.090905  0.088639  0  0.99548  0
C  C100  1  0.49278072  0.49906512  0.36793891  1  1.571526  0  0.21493  0.606992  0  4.159631  0
C  C101  1  0.45732009  0.49759728  0.29171178  1  0.047628  0  -0.027492  -0.139059  0  3.947877  0
C  C102  1  0.51100805  0.50114115  0.96495498  1  -0.031645  0  -0.101162  -0.145049  0  4.065425  0
C  C103  1  0.51069695  0.49557976  0.03612486  1  -0.100691  0  -0.09757  -0.138545  0  4.066278  0
C  C104  1  0.39924137  0.49472006  0.06886855  1  0.060997  0  -0.010345  0.019073  0  3.976654  0
C  C105  1  0.39984341  0.50823172  0.92502351  1  0.012317  0  -0.011866  0.016201  0  4.004577  0
C  C106  1  0.28589039  0.50201185  0.02941435  1  0.013331  0  -0.006744  0.024372  0  3.865371  0
C  C107  1  0.28682714  0.51094399  0.95683934  1  -0.097114  0  -0.010366  0.013418  0  3.886762  0
C  C108  1  0.53203247  0.26084133  0.55235989  1  0.540084  0  0.128416  0.290182  0  3.91775  0
C  C109  1  0.44675626  0.26286267  0.43811522  1  0.427435  0  0.123853  0.278678  0  3.923119  0
C  C110  1  0.53096374  0.18504394  0.54937018  1  -0.107167  0  -0.091379  -0.248692  0  3.934727  0
C  C111  1  0.49859656  0.50826245  0.63474135  1  1.576134  0  0.211484  0.597483  0  4.171905  0
C  C112  1  0.45886465  0.18813067  0.43130769  1  -0.01074  0  -0.092829  -0.24859  0  3.932223  0
C  C113  1  0.49939925  0.14648952  0.48761287  1  0.019629  0  0.013715  0.14749  0  4.009855  0
C  C114  1  0.27669820  0.49627598  0.51157992  1  1.52627  0  0.213028  0.591704  0  4.156439  0
C  C115  1  0.74622860  0.49434817  0.51093376  1  1.556072  0  0.220601  0.604861  0  4.155317  0
C  C116  1  0.40635950  0.02155663  0.45438958  1  -0.03226  0  -0.009364  0.02598  0  3.898967  0
C  C117  1  0.61484266  0.03411190  0.51293200  1  0.026323  0  -0.009133  0.029271  0  3.898789  0
C  C118  1  0.41754527  0.94570352  0.45046670  1  0.009779  0  -0.011191  0.025564  0  3.921748  0
C  C119  1  0.61480073  0.95825675  0.52044111  1  -0.015602  0  -0.01216  0.024698  0  3.92627  0
C  C120  1  0.51850973  0.91488582  0.48671649  1  -0.078202  0  -0.013405  -0.058888  0  3.99176  0
C  C121  1  0.50704897  0.06612558  0.48388666  1  -0.01357  0  -0.013277  -0.059793  0  3.939925  0
C  C122  1  0.41058141  0.51006948  0.84886255  1  -0.032625  0  -0.00432  0.046133  0  3.997348  0
C  C123  1  0.57944901  0.79359022  0.44139285  1  0.030614  0  -0.07633  -0.182912  0  3.944134  0
C  C124  1  0.47004970  0.79738433  0.54490941  1  -0.004302  0  -0.076686  -0.18221  0  3.940713  0
C  C125  1  0.57971317  0.71860847  0.44712989  1  0.438173  0  0.064597  0.109438  0  3.928989  0
C  C126  1  0.47691729  0.72251524  0.54832753  1  0.437668  0  0.062318  0.105195  0  3.922657  0
C  C127  1  0.52265395  0.83450964  0.49075820  1  -0.007551  0  0.020878  0.133513  0  4.00438  0
C  C128  1  0.12056479  0.35519576  0.49442778  1  -0.073971  0  -0.10034  -0.189111  0  3.964818  0
C  C129  1  0.87080141  0.36945939  0.46011956  1  -0.022595  0  -0.099399  -0.195314  0  3.979945  0
C  C130  1  0.04708284  0.29443491  0.47453567  1  -0.003751  0  -0.017817  0.059524  0  3.950563  0
C  C131  1  0.92096246  0.30301086  0.45061431  1  -0.042843  0  -0.018716  0.057801  0  3.966794  0
C  C132  1  0.94029752  0.42915201  0.49295671  1  -0.042915  0  -0.00992  0.052097  0  4.019174  0
C  C133  1  0.41069321  0.49027680  0.14562351  1  -0.024439  0  -0.003309  0.048104  0  3.984386  0
C  C134  1  0.07141041  0.42470751  0.50242871  1  -0.030184  0  -0.005465  0.069469  0  3.990836  0
C  C135  1  0.14403976  0.48739976  0.52858623  1  0.005382  0  -0.015523  -0.14102  0  3.890091  0
C  C136  1  0.88462304  0.49139242  0.51925826  1  -0.038575  0  -0.008053  -0.111054  0  3.899135  0
C  C137  1  0.08672026  0.54155998  0.56513591  1  -0.00184  0  0.004465  0.0638  0  3.850808  0
C  C138  1  0.95480269  0.54461044  0.55856454  1  0.009389  0  -0.005855  0.044127  0  3.880529  0
C  C139  1  0.47264073  0.57799159  0.74869655  1  0.445657  0  0.083639  0.242379  0  4.046438  0
C  C140  1  0.39660443  0.55421217  0.25648096  1  0.440157  0  0.086257  0.248186  0  4.043539  0
C  C141  1  0.44158465  0.57550608  0.81745130  1  -0.035867  0  -0.103107  -0.259115  0  4.003694  0
C  C142  1  0.37598482  0.54945496  0.18470157  1  0.007484  0  -0.104475  -0.253732  0  3.999496  0
C  C143  1  0.16242957  0.58751647  0.62008176  1  0.040613  0  -0.161979  -0.129975  0  3.957017  0
C  C144  1  0.40562732  0.44455080  0.80986477  1  -0.038212  0  -0.015242  0.05309  0  3.932302  0
C  C145  1  0.18559591  0.66917012  0.61036829  1  -0.058074  0  -0.250086  -0.356207  0  3.956892  0
C  C146  1  0.89203849  0.60523321  0.59406510  1  -0.013599  0  -0.164386  -0.138952  0  3.957477  0
C  C147  1  0.87942219  0.67347531  0.54988187  1  -0.048645  0  -0.252786  -0.359529  0  3.942859  0
C  C148  1  0.58426006  0.29848785  0.61793049  1  -0.040709  0  -0.165221  -0.199177  0  3.951974  0
C  C149  1  0.72588786  0.29558619  0.62702142  1  -0.050959  0  -0.242278  -0.335432  0  3.931457  0
C  C150  1  0.38283331  0.30435818  0.38093105  1  -0.022967  0  -0.166907  -0.20968  0  3.95433  0
C  C151  1  0.29138947  0.25961744  0.33215573  1  -0.068271  0  -0.242371  -0.343388  0  3.973795  0
C  C152  1  0.28065695  0.05062716  0.43439558  1  0.025312  0  -0.165018  -0.150161  0  3.980504  0
C  C153  1  0.18891656  0.03022011  0.48876450  1  -0.04343  0  -0.243243  -0.348507  0  3.944329  0
C  C154  1  0.73581706  0.07710409  0.52963664  1  0.010204  0  -0.165754  -0.15745  0  3.990722  0
C  C155  1  0.46749468  0.43217457  0.18013685  1  -0.058316  0  -0.016738  0.049279  0  3.935242  0
C  C156  1  0.82967460  0.05881086  0.47668316  1  -0.046247  0  -0.244334  -0.361424  0  3.950204  0
C  C157  1  0.32548531  0.89758318  0.40645978  1  -0.018477  0  -0.164623  -0.152026  0  3.977591  0
C  C158  1  0.36012592  0.89532854  0.33083709  1  -0.065035  0  -0.240053  -0.344507  0  3.956056  0
C  C159  1  0.71143172  0.92445121  0.56843213  1  -0.018174  0  -0.164426  -0.15051  0  3.976212  0
C  C160  1  0.67605323  0.93091205  0.64372970  1  -0.001792  0  -0.241445  -0.345183  0  3.948123  0
C  C161  1  0.09748673  0.22070207  0.48853095  1  -0.010453  0  -0.162555  -0.143441  0  3.98187  0
C  C162  1  0.06809666  0.19703062  0.56169093  1  -0.101614  0  -0.244377  -0.353042  0  3.954801  0
C  C163  1  0.84192826  0.24115404  0.41715894  1  0.024675  0  -0.164464  -0.141129  0  3.981374  0
C  C164  1  0.87617607  0.22301146  0.34351659  1  -0.109918  0  -0.244519  -0.349903  0  3.976352  0
C  C165  1  0.63901009  0.66052149  0.73499730  1  0.389485  0  -0.069841  0.042971  0  3.898285  0
C  C166  1  0.43180696  0.44844604  0.74060955  1  -0.002168  0  -0.089172  -0.131066  0  3.964222  0
C  C167  1  0.67360220  0.73408624  0.70625715  1  -0.008658  0  -0.16899  -0.128072  0  3.976137  0
C  C168  1  0.80821721  0.75665980  0.72804575  1  -0.088004  0  -0.243078  -0.353903  0  3.981435  0
C  C169  1  0.25748907  0.61210681  0.32853745  1  0.391305  0  -0.071188  0.039096  0  3.895701  0
C  C170  1  0.24369182  0.68611258  0.36146712  1  0.037389  0  -0.169275  -0.117753  0  3.975293  0
C  C171  1  0.13197540  0.68705788  0.40541036  1  -0.071039  0  -0.246138  -0.356753  0  3.974808  0
C  C172  1  0.38068024  0.37230947  0.84368994  1  0.014536  0  -0.161523  -0.139098  0  3.993717  0
C  C173  1  0.32551774  0.31139306  0.79521424  1  -0.090554  0  -0.244341  -0.350813  0  3.990517  0
C  C174  1  0.50386245  0.36432128  0.14313493  1  0.000645  0  -0.164248  -0.142835  0  3.992219  0
C  C175  1  0.42123226  0.29727944  0.15761515  1  -0.055009  0  -0.244658  -0.34876  0  3.966337  0
C  C176  1  0.16499798  0.49705487  0.06451137  1  0.002883  0  -0.164527  -0.141943  0  3.980785  0
C  C177  1  0.48986871  0.43824998  0.25189751  1  -0.057248  0  -0.088901  -0.136319  0  3.976582  0
C  C178  1  0.12918813  0.41924987  0.08528391  1  -0.078515  0  -0.243955  -0.350604  0  3.962973  0
C  C179  1  0.17008476  0.52548536  0.91245786  1  0.008441  0  -0.162415  -0.139768  0  3.992298  0
C  C180  1  0.08722592  0.45831925  0.89035344  1  -0.070507  0  -0.243257  -0.351127  0  3.956379  0
C  C181  1  0.46832974  0.51322699  0.70898553  1  -0.010653  0  -0.02729  -0.141164  0  3.967084  0
N  N182  1  0.48951527  0.29968583  0.49732603  1  -1.239956  0  -0.308232  -0.330039  0  3.357797  0
N  N183  1  0.52976343  0.68400321  0.49985862  1  -1.247264  0  -0.326308  -0.211494  0  3.536249  0
O  O184  1  0.53425913  0.44173788  0.39541838  1  -1.183439  0  -0.322569  -0.568248  0  2.317333  0
O  O185  1  0.36271859  0.61757020  0.28667362  1  -1.087601  0  -0.21096  -0.25024  0  2.535144  0
O  O186  1  0.46660678  0.44864940  0.60316073  1  -1.182331  0  -0.313112  -0.556895  0  2.36163  0
O  O187  1  0.47856248  0.55822354  0.40034691  1  -1.160784  0  -0.310458  -0.540512  0  2.41459  0
O  O188  1  0.55217523  0.56283183  0.60774769  1  -1.159549  0  -0.314619  -0.542741  0  2.348743  0
O  O189  1  0.32512546  0.44305778  0.48171137  1  -1.181757  0  -0.324154  -0.567593  0  2.421574  0
O  O190  1  0.68399745  0.43790877  0.52871167  1  -1.166642  0  -0.310874  -0.546114  0  2.370253  0
O  O191  1  0.33192206  0.55838592  0.52178700  1  -1.161491  0  -0.305959  -0.528902  0  2.334105  0
O  O192  1  0.70068428  0.55182731  0.48744417  1  -1.163043  0  -0.305795  -0.530557  0  2.341329  0
O  O193  1  0.50727655  0.64511676  0.72325765  1  -1.07071  0  -0.212817  -0.255769  0  2.498804  0
