# generated using pymatgen
data_GdH5C6N2O7
_symmetry_space_group_name_H-M   'P 1'
_cell_length_a   9.72524267
_cell_length_b   9.72523948
_cell_length_c   9.72524001
_cell_angle_alpha   79.52584408
_cell_angle_beta   79.52578580
_cell_angle_gamma   79.52582392
_symmetry_Int_Tables_number   1
_chemical_formula_structural   GdH5C6N2O7
_chemical_formula_sum   'Gd3 H15 C18 N6 O21'
_cell_volume   878.83158147
_cell_formula_units_Z   3
loop_
 _symmetry_equiv_pos_site_id
 _symmetry_equiv_pos_as_xyz
  1  'x, y, z'
loop_
 _atom_site_type_symbol
 _atom_site_label
 _atom_site_symmetry_multiplicity
 _atom_site_fract_x
 _atom_site_fract_y
 _atom_site_fract_z
 _atom_site_occupancy
 _atom_site_pbe_bader_spin_density
 _atom_site_pbe_cm5_charge
 _atom_site_pbe_ddec_charge
 _atom_site_pbe_ddec_spin_density
 _atom_site_pbe_ddec_sum_bond_order
 _atom_site_pbe_magmom
Gd  Gd0  1  0.50000358  0.00957411  0.99043080  1  0  1.474669  1.971331  0  2.27291  0
Gd  Gd1  1  0.99043173  0.50000216  0.00957549  1  0  1.474657  1.971345  0  2.272878  0
Gd  Gd2  1  0.00957645  0.99042939  0.50000301  1  0  1.474648  1.971291  0  2.272949  0
H  H3  1  0.41227916  0.58772768  0.99999851  1  0  0.126972  0.165043  0  0.986974  0
H  H4  1  0.99999887  0.41227633  0.58772979  1  0  0.127034  0.165124  0  0.986935  0
H  H5  1  0.58772984  0.00000056  0.41227754  1  0  0.127002  0.165088  0  0.986923  0
H  H6  1  0.76618945  0.85505025  0.07481449  1  0  0.304931  0.404516  0  0.921591  0
H  H7  1  0.07481420  0.76618927  0.85505206  1  0  0.30493  0.404492  0  0.92162  0
H  H8  1  0.85505328  0.07481188  0.76619012  1  0  0.304937  0.404485  0  0.921623  0
H  H9  1  0.92519051  0.14495412  0.23381737  1  0  0.304909  0.404442  0  0.921674  0
H  H10  1  0.14495592  0.23381535  0.92519222  1  0  0.304916  0.404458  0  0.921659  0
H  H11  1  0.23381702  0.92519047  0.14495600  1  0  0.304895  0.404418  0  0.921706  0
H  H12  1  0.76761482  0.02396474  0.06252689  1  0  0.2983  0.392444  0  0.947512  0
H  H13  1  0.06252745  0.76761410  0.02396630  1  0  0.298285  0.392432  0  0.947537  0
H  H14  1  0.02396622  0.06252651  0.76761501  1  0  0.29827  0.392397  0  0.947585  0
H  H15  1  0.93747711  0.97604068  0.23239382  1  0  0.298305  0.392477  0  0.947428  0
H  H16  1  0.97604223  0.23239144  0.93747691  1  0  0.298324  0.392511  0  0.947377  0
H  H17  1  0.23239328  0.93747598  0.97604179  1  0  0.298305  0.3925  0  0.947393  0
C  C18  1  0.66883018  0.66569303  0.00179172  1  0  0.249345  0.616576  0  4.147116  0
C  C19  1  0.00179181  0.66882866  0.66569497  1  0  0.249377  0.616575  0  4.146903  0
C  C20  1  0.66569502  0.00179042  0.66882924  1  0  0.249325  0.616516  0  4.147145  0
C  C21  1  0.99821006  0.33431134  0.33117680  1  0  0.249373  0.616596  0  4.146578  0
C  C22  1  0.33431293  0.33117594  0.99820960  1  0  0.249369  0.616521  0  4.146815  0
C  C23  1  0.33117758  0.99820983  0.33431261  1  0  0.249347  0.616523  0  4.146739  0
C  C24  1  0.63801736  0.51949130  0.99950652  1  0  0.133196  0.172876  0  4.019537  0
C  C25  1  0.99950760  0.63801644  0.51949212  1  0  0.13324  0.172937  0  4.019445  0
C  C26  1  0.51949247  0.99950653  0.63801853  1  0  0.133233  0.172899  0  4.019579  0
C  C27  1  0.00049584  0.48051219  0.36198911  1  0  0.133086  0.172668  0  4.019594  0
C  C28  1  0.48051492  0.36198691  0.00049606  1  0  0.133104  0.172639  0  4.019682  0
C  C29  1  0.36198938  0.00049586  0.48051466  1  0  0.133063  0.172642  0  4.019664  0
C  C30  1  0.49965160  0.50035589  0.00000040  1  0  -0.08514  -0.233006  0  3.907085  0
C  C31  1  0.00000047  0.49964908  0.50035780  1  0  -0.085178  -0.233128  0  3.907065  0
C  C32  1  0.50035759  0.00000057  0.49965078  1  0  -0.085175  -0.23307  0  3.907111  0
C  C33  1  0.72122535  0.27877878  0.00000294  1  0  0.340012  0.660914  0  4.056697  0
C  C34  1  0.00000266  0.72122191  0.27878179  1  0  0.339964  0.660887  0  4.056612  0
C  C35  1  0.27878109  0.00000167  0.72122389  1  0  0.33992  0.660831  0  4.056733  0
N  N36  1  0.74735522  0.41361048  0.00130955  1  0  -0.360489  -0.49569  0  3.300435  0
N  N37  1  0.00130962  0.74735296  0.41361244  1  0  -0.360516  -0.495709  0  3.300463  0
N  N38  1  0.41361203  0.00130889  0.74735504  1  0  -0.360467  -0.495651  0  3.300402  0
N  N39  1  0.99869705  0.58639070  0.25265080  1  0  -0.360406  -0.49549  0  3.300455  0
N  N40  1  0.58639335  0.25264948  0.99869635  1  0  -0.360377  -0.495467  0  3.300556  0
N  N41  1  0.25265151  0.99869565  0.58639382  1  0  -0.360309  -0.495419  0  3.300441  0
O  O42  1  0.57397652  0.76843198  0.97291673  1  0  -0.375152  -0.606039  0  2.284349  0
O  O43  1  0.97291635  0.57397604  0.76843409  1  0  -0.375138  -0.606016  0  2.284228  0
O  O44  1  0.76843283  0.97291554  0.57397685  1  0  -0.375115  -0.605961  0  2.284313  0
O  O45  1  0.02708710  0.23157151  0.42602859  1  0  -0.375152  -0.606004  0  2.284035  0
O  O46  1  0.23157408  0.42602841  0.02708695  1  0  -0.375163  -0.60598  0  2.284207  0
O  O47  1  0.42602844  0.02708679  0.23157297  1  0  -0.375173  -0.605996  0  2.284158  0
O  O48  1  0.78770379  0.67429662  0.03533541  1  0  -0.373861  -0.644903  0  2.320096  0
O  O49  1  0.03533637  0.78770227  0.67429813  1  0  -0.373926  -0.64494  0  2.320057  0
O  O50  1  0.67429888  0.03533423  0.78770377  1  0  -0.373892  -0.644928  0  2.320065  0
O  O51  1  0.96466888  0.32570668  0.21230195  1  0  -0.373816  -0.644849  0  2.319802  0
O  O52  1  0.32570860  0.21230021  0.96466946  1  0  -0.373827  -0.644818  0  2.319864  0
O  O53  1  0.21230227  0.96466816  0.32570825  1  0  -0.3738  -0.644804  0  2.319817  0
O  O54  1  0.82366508  0.17633855  0.00000401  1  0  -0.289491  -0.541253  0  2.187635  0
O  O55  1  0.00000347  0.82366213  0.17634139  1  0  -0.289423  -0.541206  0  2.187521  0
O  O56  1  0.17634176  0.00000063  0.82366526  1  0  -0.289428  -0.54118  0  2.18764  0
O  O57  1  0.70830218  0.94613183  0.09366641  1  0  -0.659815  -0.851332  0  2.096649  0
O  O58  1  0.09366572  0.70830057  0.94613413  1  0  -0.659798  -0.85131  0  2.096648  0
O  O59  1  0.94613453  0.09366549  0.70830134  1  0  -0.6598  -0.851278  0  2.096696  0
O  O60  1  0.90633954  0.05387149  0.29170589  1  0  -0.659802  -0.851296  0  2.096749  0
O  O61  1  0.05387364  0.29170406  0.90633921  1  0  -0.659824  -0.851358  0  2.096716  0
O  O62  1  0.29170581  0.90633789  0.05387304  1  0  -0.65979  -0.851311  0  2.096723  0
