# generated using pymatgen
data_Cu2H19C13SI2NO
_symmetry_space_group_name_H-M   'P 1'
_cell_length_a   10.98967757
_cell_length_b   12.12894843
_cell_length_c   16.06556735
_cell_angle_alpha   111.26284547
_cell_angle_beta   99.51510797
_cell_angle_gamma   93.96648583
_symmetry_Int_Tables_number   1
_chemical_formula_structural   Cu2H19C13SI2NO
_chemical_formula_sum   'Cu8 H76 C52 S4 I8 N4 O4'
_cell_volume   1948.68144530
_cell_formula_units_Z   4
loop_
 _symmetry_equiv_pos_site_id
 _symmetry_equiv_pos_as_xyz
  1  'x, y, z'
loop_
 _atom_site_type_symbol
 _atom_site_label
 _atom_site_symmetry_multiplicity
 _atom_site_fract_x
 _atom_site_fract_y
 _atom_site_fract_z
 _atom_site_occupancy
 _atom_site_pbe_bader_charge
 _atom_site_pbe_bader_spin_density
 _atom_site_pbe_cm5_charge
 _atom_site_pbe_ddec_charge
 _atom_site_pbe_ddec_spin_density
 _atom_site_pbe_ddec_sum_bond_order
 _atom_site_pbe_magmom
Cu  Cu0  1  0.79875544  0.27670559  0.75183367  1  0.312403  0  0.183294  0.060879  0  2.880832  0
Cu  Cu1  1  0.20124289  0.72329216  0.24816620  1  0.312325  0  0.183247  0.06083  0  2.880871  0
Cu  Cu2  1  0.64689557  0.25695051  0.60359690  1  0.309532  0  0.18003  0.057054  0  2.830002  0
Cu  Cu3  1  0.35310253  0.74305171  0.39640483  1  0.309645  0  0.180028  0.05704  0  2.83003  0
Cu  Cu4  1  0.63733581  0.42688002  0.75386060  1  0.386782  0  0.234903  0.136866  0  2.805738  0
Cu  Cu5  1  0.36266597  0.57312218  0.24614090  1  0.386614  0  0.234871  0.136827  0  2.805731  0
Cu  Cu6  1  0.82919650  0.43020962  0.67927086  1  0.381801  0  0.231598  0.128518  0  2.733229  0
Cu  Cu7  1  0.17080631  0.56978721  0.32072986  1  0.381792  0  0.231596  0.128523  0  2.733211  0
H  H8  1  0.13105318  0.32412547  0.92523894  1  0.053328  0  0.076611  0.082841  0  1.026565  0
H  H9  1  0.86894677  0.67587673  0.07476360  1  0.05338  0  0.076623  0.082826  0  1.026647  0
H  H10  1  0.08699623  0.32876557  0.81560587  1  0.033883  0  0.08013  0.083968  0  1.022944  0
H  H11  1  0.91300463  0.67123664  0.18439615  1  0.033948  0  0.080145  0.084016  0  1.022915  0
H  H12  1  0.25860616  0.21580913  0.76342592  1  0.020816  0  0.080656  0.079954  0  0.988762  0
H  H13  1  0.74139973  0.78419571  0.23657863  1  0.021053  0  0.080684  0.07999  0  0.988834  0
H  H14  1  0.31978161  0.34063018  0.86425667  1  0.055956  0  0.080745  0.078225  0  1.018048  0
H  H15  1  0.68022073  0.65937558  0.13574775  1  0.056041  0  0.080759  0.078316  0  1.017981  0
H  H16  1  0.32576323  0.21393727  0.95614023  1  -0.02712  0  0.08106  0.072811  0  1.002945  0
H  H17  1  0.67423741  0.78606938  0.04386550  1  -0.027093  0  0.081052  0.072837  0  1.002808  0
H  H18  1  0.40626644  0.15516942  0.86626632  1  0.016133  0  0.074212  0.072505  0  1.028652  0
H  H19  1  0.59373697  0.84483720  0.13374032  1  0.0162  0  0.074211  0.07251  0  1.02863  0
H  H20  1  0.26672268  0.99416979  0.88194738  1  0.015034  0  0.087002  0.079874  0  0.979237  0
H  H21  1  0.73328045  0.00583506  0.11805687  1  0.014995  0  0.086999  0.079869  0  0.979267  0
H  H22  1  0.22196627  0.00391342  0.77459686  1  0.063327  0  0.086824  0.08286  0  0.997686  0
H  H23  1  0.77803975  0.99609232  0.22540733  1  0.063228  0  0.086891  0.082918  0  0.997616  0
H  H24  1  0.03388556  0.98769316  0.84084474  1  0.020056  0  0.083411  0.074505  0  1.029508  0
H  H25  1  0.96611684  0.01230728  0.15915384  1  0.020007  0  0.083415  0.07451  0  1.029486  0
H  H26  1  0.10202524  0.11468852  0.94019546  1  -0.026414  0  0.087224  0.086221  0  0.987347  0
H  H27  1  0.89797257  0.88531192  0.05980449  1  -0.026404  0  0.087229  0.086257  0  0.987314  0
H  H28  1  0.03278332  0.10936994  0.74535910  1  0.040202  0  0.097722  0.084176  0  0.969738  0
H  H29  1  0.96722030  0.89063226  0.25464197  1  0.040174  0  0.097706  0.084165  0  0.969738  0
H  H30  1  0.93883449  0.21041817  0.99006681  1  0.024175  0  0.098665  0.114278  0  0.976162  0
H  H31  1  0.06116662  0.78958585  0.00993263  1  0.024102  0  0.098663  0.114259  0  0.976138  0
H  H32  1  0.95221333  0.34269364  0.96505906  1  0.102644  0  0.083472  0.109531  0  1.043247  0
H  H33  1  0.04778183  0.65730775  0.03493775  1  0.102854  0  0.083498  0.109562  0  1.04327  0
H  H34  1  0.72437897  0.33118623  0.92813427  1  0.081343  0  0.082331  0.053523  0  1.068252  0
H  H35  1  0.27561841  0.66881156  0.07186302  1  0.081206  0  0.082318  0.053524  0  1.068212  0
H  H36  1  0.70315866  0.19881902  0.95219265  1  0.073366  0  0.098197  0.069478  0  0.968366  0
H  H37  1  0.29683818  0.80117521  0.04780233  1  0.073337  0  0.098218  0.069519  0  0.968352  0
H  H38  1  0.80516632  0.48127607  0.23360543  1  0.103346  0  0.109749  0.131653  0  1.025831  0
H  H39  1  0.19483090  0.51871456  0.76639045  1  0.103404  0  0.109726  0.131637  0  1.025845  0
H  H40  1  0.62718696  0.55945766  0.30518531  1  0.067694  0  0.108408  0.085923  0  1.013829  0
H  H41  1  0.37281625  0.44054186  0.69481496  1  0.067661  0  0.108374  0.085891  0  1.013917  0
H  H42  1  0.38118340  0.42369503  0.05541500  1  0.097674  0  0.101182  0.073713  0  1.032865  0
H  H43  1  0.61881628  0.57631168  0.94458566  1  0.097703  0  0.101168  0.073685  0  1.032909  0
H  H44  1  0.54537724  0.33494954  0.97340826  1  0.067014  0  0.107768  0.128329  0  1.036527  0
H  H45  1  0.45461858  0.66505634  0.02658864  1  0.067086  0  0.107763  0.128336  0  1.036431  0
H  H46  1  0.29827236  0.11996642  0.52763278  1  0.013192  0  0.083994  0.091098  0  0.980661  0
H  H47  1  0.70172639  0.88003400  0.47236851  1  0.013171  0  0.083992  0.091087  0  0.980697  0
H  H48  1  0.38172311  0.26514240  0.58776486  1  0.042889  0  0.069938  0.065464  0  1.070906  0
H  H49  1  0.61827286  0.73485806  0.41223489  1  0.04288  0  0.069915  0.065432  0  1.070923  0
H  H50  1  0.15120191  0.26979183  0.56377053  1  0.016272  0  0.075451  0.073509  0  1.023753  0
H  H51  1  0.84879484  0.73020774  0.43622844  1  0.016268  0  0.075455  0.073524  0  1.023776  0
H  H52  1  0.22341895  0.34960971  0.50742697  1  0.023611  0  0.078949  0.073762  0  1.00502  0
H  H53  1  0.77657979  0.65039073  0.49257308  1  0.023623  0  0.078928  0.07373  0  1.00506  0
H  H54  1  0.02943444  0.22071778  0.40480602  1  0.034192  0  0.075228  0.06707  0  1.028245  0
H  H55  1  0.97056612  0.77928268  0.59519175  1  0.034188  0  0.07523  0.06707  0  1.028232  0
H  H56  1  0.08512301  0.09324688  0.41764877  1  0.014704  0  0.0759  0.071519  0  1.006607  0
H  H57  1  0.91487649  0.90675269  0.58234862  1  0.014697  0  0.07592  0.071532  0  1.006559  0
H  H58  1  0.20561046  0.25116359  0.33218862  1  0.023084  0  0.075798  0.073764  0  1.016827  0
H  H59  1  0.79439421  0.74883950  0.66781282  1  0.023133  0  0.075805  0.073747  0  1.016825  0
H  H60  1  0.12451307  0.10481882  0.27206746  1  0.032109  0  0.076967  0.06606  0  1.035349  0
H  H61  1  0.87549145  0.89518340  0.72793184  1  0.031981  0  0.076952  0.066021  0  1.035336  0
H  H62  1  0.28347090  0.02163513  0.35242825  1  0.054785  0  0.075641  0.078024  0  1.035484  0
H  H63  1  0.71653074  0.97836618  0.64757298  1  0.054779  0  0.075638  0.078012  0  1.035515  0
H  H64  1  0.35265037  0.10237671  0.29618187  1  0.025572  0  0.083556  0.084464  0  0.99574  0
H  H65  1  0.64735418  0.89762547  0.70382054  1  0.025504  0  0.08355  0.084456  0  0.995785  0
H  H66  1  0.41806134  0.28015345  0.44456620  1  0.047785  0  0.081047  0.067586  0  1.016621  0
H  H67  1  0.58194032  0.71984784  0.55543627  1  0.047786  0  0.081038  0.067587  0  1.016637  0
H  H68  1  0.68259262  0.06513736  0.38662424  1  0.085131  0  0.100134  0.121085  0  0.980776  0
H  H69  1  0.31740823  0.93486486  0.61337653  1  0.085109  0  0.100159  0.12113  0  0.980764  0
H  H70  1  0.54513053  0.07153426  0.31429381  1  0.068128  0  0.096406  0.118482  0  0.998126  0
H  H71  1  0.45486782  0.92846348  0.68570731  1  0.068145  0  0.096384  0.118473  0  0.998085  0
H  H72  1  0.59777582  0.30049474  0.38135820  1  0.066578  0  0.096097  0.076945  0  0.984446  0
H  H73  1  0.40221417  0.69950312  0.61863582  1  0.066687  0  0.096064  0.076917  0  0.984416  0
H  H74  1  0.73292154  0.28492718  0.45341841  1  0.082322  0  0.081899  0.050755  0  1.074118  0
H  H75  1  0.26707125  0.71507690  0.54657891  1  0.082235  0  0.081887  0.050718  0  1.074037  0
H  H76  1  0.87520215  0.17997176  0.19740702  1  0.069618  0  0.113902  0.132976  0  1.012867  0
H  H77  1  0.12479746  0.82002242  0.80259074  1  0.069757  0  0.113895  0.132963  0  1.012863  0
H  H78  1  0.05353225  0.32491912  0.20481950  1  0.10181  0  0.10175  0.077166  0  1.02432  0
H  H79  1  0.94647040  0.67507054  0.79517982  1  0.101639  0  0.101704  0.077133  0  1.024364  0
H  H80  1  0.98371646  0.58018062  0.43866673  1  0.086733  0  0.105641  0.077251  0  1.035718  0
H  H81  1  0.01628936  0.41981171  0.56133368  1  0.087104  0  0.105649  0.07725  0  1.035769  0
H  H82  1  0.80579018  0.44666281  0.44350663  1  0.092514  0  0.106971  0.127904  0  1.03637  0
H  H83  1  0.19421326  0.55333224  0.55649180  1  0.092521  0  0.106944  0.127895  0  1.03625  0
C  C84  1  0.12680861  0.27406834  0.85198096  1  -0.048116  0  -0.174253  -0.183386  0  3.91464  0
C  C85  1  0.87319133  0.72593386  0.14802096  1  -0.048182  0  -0.174352  -0.183562  0  3.914794  0
C  C86  1  0.25929596  0.25411202  0.83717379  1  -0.06055  0  -0.173228  -0.138035  0  3.92786  0
C  C87  1  0.74070519  0.74589194  0.16283062  1  -0.060832  0  -0.17323  -0.138115  0  3.927829  0
C  C88  1  0.31335083  0.17082227  0.88132123  1  0.017254  0  -0.173669  -0.147598  0  3.948467  0
C  C89  1  0.68665179  0.82918527  0.11868434  1  0.016914  0  -0.173629  -0.147589  0  3.948152  0
C  C90  1  0.22768905  0.05217091  0.84825780  1  -0.056048  0  -0.168413  -0.135639  0  3.94149  0
C  C91  1  0.77231527  0.94783573  0.15174708  1  -0.055711  0  -0.168535  -0.135731  0  3.941439  0
C  C92  1  0.09672769  0.07271174  0.86597602  1  0.012446  0  -0.169524  -0.185803  0  3.949652  0
C  C93  1  0.90327381  0.92728869  0.13402433  1  0.012505  0  -0.169499  -0.185857  0  3.949639  0
C  C94  1  0.04306852  0.15438217  0.82002611  1  -0.057205  0  -0.072817  0.015503  0  3.807833  0
C  C95  1  0.95693311  0.84561915  0.17997449  1  -0.057206  0  -0.072774  0.015643  0  3.807758  0
C  C96  1  0.89446778  0.25709099  0.94862668  1  -0.097543  0  -0.160569  -0.215734  0  3.910741  0
C  C97  1  0.10553001  0.74290949  0.05137079  1  -0.097711  0  -0.160558  -0.21572  0  3.910721  0
C  C98  1  0.76668063  0.28147201  0.96804946  1  0.377818  0  -0.07465  0.033389  0  3.893881  0
C  C99  1  0.23331570  0.71852488  0.03194747  1  0.378102  0  -0.07471  0.033293  0  3.893947  0
C  C100  1  0.68928147  0.39843749  0.09832753  1  0.412653  0  0.103228  0.304042  0  4.050181  0
C  C101  1  0.31071671  0.60155940  0.90166959  1  0.412469  0  0.10319  0.303982  0  4.050225  0
C  C102  1  0.71166240  0.46509362  0.19271231  1  0.078263  0  -0.096648  -0.237282  0  3.953789  0
C  C103  1  0.28833552  0.53490145  0.80728739  1  0.078251  0  -0.096627  -0.237282  0  3.953824  0
C  C104  1  0.61340412  0.50921948  0.23185062  1  0.465414  0  0.03454  0.098972  0  3.951458  0
C  C105  1  0.38659696  0.49077828  0.76814768  1  0.465326  0  0.034593  0.09902  0  3.951557  0
C  C106  1  0.47640661  0.43294975  0.09268680  1  0.501489  0  0.036915  0.106792  0  3.961313  0
C  C107  1  0.52359160  0.56705339  0.90731333  1  0.501484  0  0.036908  0.106874  0  3.961453  0
C  C108  1  0.56860990  0.38345840  0.04700242  1  0.0282  0  -0.107807  -0.275391  0  3.969335  0
C  C109  1  0.43138960  0.61654117  0.95299498  1  0.028165  0  -0.107799  -0.27543  0  3.969419  0
C  C110  1  0.31996361  0.20748209  0.52288169  1  -0.031401  0  -0.17485  -0.172705  0  3.919552  0
C  C111  1  0.68003619  0.79251923  0.47711935  1  -0.031356  0  -0.174806  -0.172644  0  3.919481  0
C  C112  1  0.19954137  0.25954850  0.50716236  1  -0.032028  0  -0.173099  -0.133767  0  3.929201  0
C  C113  1  0.80045828  0.74045194  0.49283716  1  -0.032042  0  -0.173088  -0.133741  0  3.929141  0
C  C114  1  0.11474557  0.18111955  0.41584778  1  -0.046806  0  -0.17638  -0.140416  0  3.937318  0
C  C115  1  0.88525605  0.81888179  0.58415097  1  -0.046852  0  -0.176431  -0.1405  0  3.937187  0
C  C116  1  0.18362311  0.16420910  0.33768439  1  -0.05683  0  -0.171508  -0.13504  0  3.927017  0
C  C117  1  0.81637930  0.83579134  0.66231481  1  -0.056568  0  -0.171471  -0.134916  0  3.927002  0
C  C118  1  0.30474859  0.11204130  0.35285316  1  -0.047914  0  -0.175074  -0.183382  0  3.932909  0
C  C119  1  0.69525398  0.88796000  0.64714879  1  -0.047708  0  -0.17506  -0.18334  0  3.933  0
C  C120  1  0.38815081  0.19135702  0.44442745  1  -0.066517  0  -0.079078  0.010653  0  3.80609  0
C  C121  1  0.61184979  0.80864338  0.55557466  1  -0.066797  0  -0.079111  0.010594  0  3.80607  0
C  C122  1  0.60907229  0.12031222  0.38008805  1  -0.119315  0  -0.157592  -0.220558  0  3.930056  0
C  C123  1  0.39092645  0.87968822  0.61991200  1  -0.119523  0  -0.15763  -0.220652  0  3.930042  0
C  C124  1  0.66716119  0.24113918  0.38760952  1  0.367759  0  -0.076478  0.028162  0  3.881062  0
C  C125  1  0.33283291  0.75886132  0.61238756  1  0.367786  0  -0.076446  0.028258  0  3.880776  0
C  C126  1  0.82671915  0.30032735  0.32025070  1  0.487934  0  0.104904  0.300113  0  4.070953  0
C  C127  1  0.17327875  0.69966776  0.67974589  1  0.488147  0  0.104972  0.30011  0  4.071201  0
C  C128  1  0.89784959  0.26770517  0.25224808  1  0.033739  0  -0.094203  -0.242512  0  3.958143  0
C  C129  1  0.10214924  0.73228992  0.74774923  1  0.033575  0  -0.094216  -0.242479  0  3.958305  0
C  C130  1  0.99647696  0.34771766  0.25650033  1  0.487436  0  0.038833  0.110069  0  3.957066  0
C  C131  1  0.00352635  0.65227649  0.74349845  1  0.487554  0  0.038903  0.110071  0  3.957175  0
C  C132  1  0.95803914  0.48979469  0.38707301  1  0.497039  0  0.037364  0.103035  0  3.955162  0
C  C133  1  0.04196007  0.51019680  0.61292459  1  0.496508  0  0.037326  0.102991  0  3.955265  0
C  C134  1  0.85801748  0.41488984  0.38939809  1  -0.037564  0  -0.106323  -0.275012  0  3.973677  0
C  C135  1  0.14198357  0.58510165  0.61059908  1  -0.037656  0  -0.106286  -0.274959  0  3.973496  0
S  S136  1  0.87961797  0.16559495  0.82878636  1  -0.015472  0  -0.029026  0.058319  0  3.135849  0
S  S137  1  0.12038352  0.83440548  0.17121336  1  -0.01546  0  -0.029027  0.058307  0  3.135763  0
S  S138  1  0.52806621  0.12632721  0.47043149  1  0.014536  0  -0.025987  0.0712  0  3.217958  0
S  S139  1  0.47193190  0.87367499  0.52957147  1  0.014523  0  -0.025968  0.071198  0  3.217929  0
I  I140  1  0.85351307  0.50865326  0.87002894  1  -0.412653  0  -0.155733  -0.276428  0  1.982362  0
I  I141  1  0.14648725  0.49134537  0.12997202  1  -0.412533  0  -0.15573  -0.276427  0  1.982356  0
I  I142  1  0.61721987  0.48487471  0.60633429  1  -0.407112  0  -0.177423  -0.281507  0  1.950796  0
I  I143  1  0.38278192  0.51512749  0.39366782  1  -0.407128  0  -0.177422  -0.281485  0  1.950798  0
I  I144  1  0.55311694  0.19928769  0.73075875  1  -0.395892  0  -0.157067  -0.270086  0  1.998899  0
I  I145  1  0.44688222  0.80071542  0.26924334  1  -0.395844  0  -0.157043  -0.270047  0  1.998897  0
I  I146  1  0.88412491  0.20646867  0.59663214  1  -0.399048  0  -0.157937  -0.245326  0  1.888269  0
I  I147  1  0.11587105  0.79352550  0.40336834  1  -0.399062  0  -0.157923  -0.245292  0  1.888269  0
N  N148  1  0.49611925  0.49368139  0.18338946  1  -1.253616  0  -0.374397  -0.201789  0  3.649334  0
N  N149  1  0.50388104  0.50631727  0.81660901  1  -1.253448  0  -0.374384  -0.201794  0  3.6493  0
N  N150  1  0.02753486  0.45860602  0.32255279  1  -1.248098  0  -0.374442  -0.201415  0  3.628919  0
N  N151  1  0.97246635  0.54138633  0.67744712  1  -1.248019  0  -0.374503  -0.201376  0  3.628922  0
O  O152  1  0.78740002  0.35327674  0.06431080  1  -1.074377  0  -0.169174  -0.181086  0  2.537422  0
O  O153  1  0.21259697  0.64671835  0.93568694  1  -1.074424  0  -0.169112  -0.180996  0  2.537379  0
O  O154  1  0.73326732  0.21755376  0.31332664  1  -1.071917  0  -0.168871  -0.182946  0  2.528031  0
O  O155  1  0.26672717  0.78244314  0.68667071  1  -1.071666  0  -0.168849  -0.182906  0  2.528162  0
