# generated using pymatgen
data_CaH12C12(NO3)2
_symmetry_space_group_name_H-M   'P 1'
_cell_length_a   7.44616467
_cell_length_b   10.44190026
_cell_length_c   10.44205146
_cell_angle_alpha   69.20608962
_cell_angle_beta   88.38834639
_cell_angle_gamma   88.39191581
_symmetry_Int_Tables_number   1
_chemical_formula_structural   CaH12C12(NO3)2
_chemical_formula_sum   'Ca2 H24 C24 N4 O12'
_cell_volume   758.56544325
_cell_formula_units_Z   2
loop_
 _symmetry_equiv_pos_site_id
 _symmetry_equiv_pos_as_xyz
  1  'x, y, z'
loop_
 _atom_site_type_symbol
 _atom_site_label
 _atom_site_symmetry_multiplicity
 _atom_site_fract_x
 _atom_site_fract_y
 _atom_site_fract_z
 _atom_site_occupancy
 _atom_site_hle17_bader_spin_density
 _atom_site_hle17_ddec_charge
 _atom_site_hle17_ddec_spin_density
 _atom_site_hle17_ddec_sum_bond_order
 _atom_site_hle17_magmom
 _atom_site_hse06_10hf_bader_spin_density
 _atom_site_hse06_10hf_ddec_charge
 _atom_site_hse06_10hf_ddec_spin_density
 _atom_site_hse06_10hf_ddec_sum_bond_order
 _atom_site_hse06_10hf_magmom
 _atom_site_hse06_bader_spin_density
 _atom_site_hse06_ddec_charge
 _atom_site_hse06_ddec_spin_density
 _atom_site_hse06_ddec_sum_bond_order
 _atom_site_hse06_magmom
 _atom_site_pbe_bader_spin_density
 _atom_site_pbe_cm5_charge
 _atom_site_pbe_ddec_charge
 _atom_site_pbe_ddec_spin_density
 _atom_site_pbe_ddec_sum_bond_order
 _atom_site_pbe_magmom
Ca  Ca0  1  0.24999249  0.44852776  0.55146566  1  0  1.536465  0  1.119782  0  0  1.407458  0  1.466983  0  0  1.452565  0  1.421135  0  0  0.865904  1.372838  0  1.500184  0
Ca  Ca1  1  0.75001232  0.55146398  0.44853726  1  0  1.536423  0  1.119825  0  0  1.407286  0  1.467246  0  0  1.452405  0  1.421392  0  0  0.865883  1.372667  0  1.500448  0
H  H2  1  0.82540229  0.05798160  0.48039132  1  0  0.078758  0  0.935613  0  0  0.085822  0  1.003246  0  0  0.089008  0  1.000111  0  0  0.116159  0.083393  0  1.005682  0
H  H3  1  0.67460083  0.51960669  0.94200450  1  0  0.078709  0  0.935511  0  0  0.085774  0  1.003174  0  0  0.088962  0  1.000036  0  0  0.116133  0.083347  0  1.005612  0
H  H4  1  0.17462674  0.94201003  0.51961682  1  0  0.078685  0  0.935651  0  0  0.085737  0  1.003302  0  0  0.088922  0  1.000167  0  0  0.116106  0.083306  0  1.005738  0
H  H5  1  0.32537804  0.48039752  0.05798626  1  0  0.078621  0  0.935513  0  0  0.085674  0  1.003182  0  0  0.088859  0  1.000041  0  0  0.1161  0.083245  0  1.005623  0
H  H6  1  0.55829638  0.72358940  0.74832859  1  0  0.08692  0  0.943549  0  0  0.091716  0  1.013967  0  0  0.095218  0  1.010325  0  0  0.117323  0.08914  0  1.016644  0
H  H7  1  0.94170774  0.25170832  0.27638829  1  0  0.086881  0  0.943499  0  0  0.091692  0  1.013924  0  0  0.095188  0  1.010286  0  0  0.117288  0.089119  0  1.016601  0
H  H8  1  0.44171778  0.27640438  0.25167439  1  0  0.086978  0  0.943375  0  0  0.091724  0  1.013862  0  0  0.095223  0  1.010224  0  0  0.117317  0.089153  0  1.016531  0
H  H9  1  0.05827080  0.74830982  0.72361225  1  0  0.086919  0  0.94356  0  0  0.091698  0  1.013997  0  0  0.095195  0  1.01036  0  0  0.117352  0.089132  0  1.016655  0
H  H10  1  0.37484821  0.87265830  0.84814835  1  0  0.102296  0  0.956846  0  0  0.113191  0  1.011874  0  0  0.115803  0  1.012852  0  0  0.105623  0.11133  0  1.011326  0
H  H11  1  0.12514635  0.15187588  0.12733267  1  0  0.102367  0  0.957002  0  0  0.113249  0  1.012028  0  0  0.11586  0  1.013006  0  0  0.105694  0.111391  0  1.011473  0
H  H12  1  0.62516183  0.12733677  0.15184473  1  0  0.102207  0  0.956838  0  0  0.11313  0  1.011834  0  0  0.115743  0  1.012813  0  0  0.105622  0.11127  0  1.011284  0
H  H13  1  0.87485510  0.84814016  0.87267188  1  0  0.102325  0  0.956958  0  0  0.113163  0  1.012033  0  0  0.115774  0  1.01301  0  0  0.105638  0.111304  0  1.01148  0
H  H14  1  0.41790212  0.12900613  0.74885054  1  0  0.11217  0  0.923503  0  0  0.125913  0  0.976833  0  0  0.129336  0  0.973591  0  0  0.123979  0.123386  0  0.979165  0
H  H15  1  0.08209618  0.25113907  0.87098483  1  0  0.112179  0  0.923441  0  0  0.125931  0  0.976763  0  0  0.129356  0  0.973519  0  0  0.123986  0.123404  0  0.979091  0
H  H16  1  0.58210543  0.87098270  0.25114752  1  0  0.112288  0  0.92357  0  0  0.126039  0  0.976898  0  0  0.129462  0  0.973661  0  0  0.124047  0.123514  0  0.979228  0
H  H17  1  0.91790254  0.74887809  0.12901558  1  0  0.112197  0  0.923416  0  0  0.126005  0  0.976698  0  0  0.129395  0  0.973498  0  0  0.124022  0.123474  0  0.979036  0
H  H18  1  0.20095433  0.19719630  0.49260289  1  0  0.381054  0  0.944858  0  0  0.338611  0  1.029245  0  0  0.349935  0  1.013159  0  0  0.278445  0.330503  0  1.040736  0
H  H19  1  0.29903880  0.50738945  0.80279937  1  0  0.38106  0  0.94483  0  0  0.338597  0  1.029248  0  0  0.34992  0  1.013162  0  0  0.278458  0.330487  0  1.04074  0
H  H20  1  0.79905584  0.80279550  0.50739797  1  0  0.381028  0  0.944905  0  0  0.338575  0  1.029308  0  0  0.349898  0  1.013224  0  0  0.278452  0.330467  0  1.040792  0
H  H21  1  0.70095613  0.49261771  0.19719580  1  0  0.381133  0  0.944746  0  0  0.338679  0  1.029145  0  0  0.350002  0  1.013059  0  0  0.278481  0.330571  0  1.040631  0
H  H22  1  0.01336826  0.24775761  0.53502657  1  0  0.415264  0  0.893845  0  0  0.385201  0  0.957436  0  0  0.396201  0  0.941278  0  0  0.290726  0.377327  0  0.969008  0
H  H23  1  0.48662114  0.46495716  0.75224142  1  0  0.415292  0  0.893831  0  0  0.385168  0  0.957526  0  0  0.396173  0  0.941363  0  0  0.290711  0.377282  0  0.969103  0
H  H24  1  0.98663781  0.75223543  0.46496631  1  0  0.415207  0  0.89392  0  0  0.385135  0  0.957528  0  0  0.396137  0  0.941366  0  0  0.290687  0.377258  0  0.969107  0
H  H25  1  0.51337392  0.53504679  0.24775960  1  0  0.415295  0  0.893833  0  0  0.385182  0  0.957507  0  0  0.396186  0  0.941344  0  0  0.290705  0.377297  0  0.969084  0
C  C26  1  0.62718382  0.11188625  0.60875992  1  0  -0.114902  0  3.750865  0  0  -0.08915  0  3.98635  0  0  -0.101238  0  4.009784  0  0  -0.009728  -0.081668  0  3.970924  0
C  C27  1  0.87281101  0.39123353  0.88810741  1  0  -0.11498  0  3.750657  0  0  -0.089201  0  3.986183  0  0  -0.101259  0  4.009578  0  0  -0.009712  -0.08172  0  3.970761  0
C  C28  1  0.37282380  0.88810137  0.39124525  1  0  -0.114824  0  3.750845  0  0  -0.089059  0  3.986392  0  0  -0.101093  0  4.009756  0  0  -0.00969  -0.081574  0  3.970965  0
C  C29  1  0.12717027  0.60877993  0.11187929  1  0  -0.114972  0  3.75022  0  0  -0.089344  0  3.985921  0  0  -0.101367  0  4.009264  0  0  -0.009784  -0.081863  0  3.9705  0
C  C30  1  0.72507907  0.01984529  0.56270118  1  0  0.113438  0  3.706028  0  0  0.07519  0  3.957013  0  0  0.08248  0  3.974693  0  0  0.054152  0.070681  0  3.945029  0
C  C31  1  0.77492135  0.43729971  0.98015030  1  0  0.113541  0  3.705717  0  0  0.075269  0  3.956743  0  0  0.082551  0  3.97441  0  0  0.054091  0.070758  0  3.94477  0
C  C32  1  0.27494070  0.98014120  0.43730887  1  0  0.113522  0  3.705878  0  0  0.075279  0  3.956868  0  0  0.082555  0  3.974532  0  0  0.054124  0.07077  0  3.944881  0
C  C33  1  0.22505882  0.56270647  0.01984266  1  0  0.113621  0  3.70561  0  0  0.07541  0  3.956657  0  0  0.08269  0  3.974309  0  0  0.054138  0.0709  0  3.944682  0
C  C34  1  0.57579130  0.83429821  0.71253880  1  0  0.12574  0  3.701194  0  0  0.090365  0  3.967153  0  0  0.097573  0  3.983636  0  0  0.050441  0.085948  0  3.955818  0
C  C35  1  0.92420911  0.28748740  0.16569078  1  0  0.125974  0  3.701368  0  0  0.090589  0  3.967326  0  0  0.097797  0  3.983806  0  0  0.050537  0.086169  0  3.955996  0
C  C36  1  0.42421642  0.16568719  0.28747284  1  0  0.125501  0  3.700944  0  0  0.090117  0  3.966971  0  0  0.097326  0  3.983457  0  0  0.050315  0.0857  0  3.955638  0
C  C37  1  0.07577335  0.71253388  0.83430672  1  0  0.125684  0  3.70185  0  0  0.090317  0  3.967792  0  0  0.097523  0  3.984277  0  0  0.050352  0.085901  0  3.956455  0
C  C38  1  0.47392330  0.91787121  0.76687245  1  0  -0.135823  0  3.752982  0  0  -0.144721  0  4.004987  0  0  -0.153139  0  4.02726  0  0  -0.085875  -0.139395  0  3.989774  0
C  C39  1  0.02607477  0.23313580  0.08213323  1  0  -0.135992  0  3.753115  0  0  -0.144903  0  4.005176  0  0  -0.153321  0  4.027445  0  0  -0.085992  -0.139576  0  3.989963  0
C  C40  1  0.52609114  0.08211241  0.23313101  1  0  -0.135481  0  3.752394  0  0  -0.144353  0  4.004381  0  0  -0.152771  0  4.02666  0  0  -0.085749  -0.139025  0  3.989168  0
C  C41  1  0.97391187  0.76688042  0.91786393  1  0  -0.135824  0  3.753193  0  0  -0.14466  0  4.005226  0  0  -0.153072  0  4.027487  0  0  -0.085896  -0.139335  0  3.990014  0
C  C42  1  0.49836414  0.05909210  0.71310908  1  0  -0.002171  0  3.686746  0  0  -0.031297  0  3.930441  0  0  -0.025767  0  3.947266  0  0  -0.052652  -0.034367  0  3.918495  0
C  C43  1  0.00163609  0.28688814  0.94090869  1  0  -0.002149  0  3.686576  0  0  -0.031268  0  3.930259  0  0  -0.025745  0  3.947074  0  0  -0.052633  -0.034336  0  3.91831  0
C  C44  1  0.50164499  0.94089035  0.28689968  1  0  -0.0024  0  3.686714  0  0  -0.031577  0  3.930523  0  0  -0.026064  0  3.947332  0  0  -0.052739  -0.034649  0  3.918582  0
C  C45  1  0.99835305  0.71313337  0.05908091  1  0  -0.002237  0  3.686527  0  0  -0.03138  0  3.930282  0  0  -0.025844  0  3.947104  0  0  -0.052722  -0.034447  0  3.918335  0
C  C46  1  0.65791838  0.26249820  0.54279108  1  0  0.669194  0  3.922778  0  0  0.617946  0  4.212499  0  0  0.652917  0  4.205147  0  0  0.222674  0.594198  0  4.216627  0
C  C47  1  0.84207161  0.45720051  0.73748549  1  0  0.668817  0  3.922294  0  0  0.617507  0  4.212125  0  0  0.65247  0  4.204774  0  0  0.22247  0.593759  0  4.216249  0
C  C48  1  0.34209305  0.73749754  0.45721419  1  0  0.669301  0  3.922724  0  0  0.617957  0  4.212621  0  0  0.652909  0  4.205267  0  0  0.222546  0.59421  0  4.216748  0
C  C49  1  0.15792210  0.54280341  0.26251652  1  0  0.668802  0  3.922172  0  0  0.6176  0  4.211928  0  0  0.652552  0  4.204579  0  0  0.222501  0.593851  0  4.216057  0
N  N50  1  0.69938779  0.88446026  0.61172127  1  0  -0.314377  0  3.173301  0  0  -0.25144  0  3.426871  0  0  -0.266344  0  3.443591  0  0  -0.304371  -0.24141  0  3.415209  0
N  N51  1  0.80062580  0.38828553  0.11553050  1  0  -0.314658  0  3.173574  0  0  -0.251732  0  3.4272  0  0  -0.266635  0  3.443916  0  0  -0.30448  -0.241704  0  3.415549  0
N  N52  1  0.30062527  0.11552616  0.38829088  1  0  -0.314493  0  3.173265  0  0  -0.251497  0  3.426788  0  0  -0.266404  0  3.443509  0  0  -0.304332  -0.241467  0  3.415134  0
N  N53  1  0.19934746  0.61172769  0.88446412  1  0  -0.314433  0  3.173582  0  0  -0.251476  0  3.427133  0  0  -0.266378  0  3.443853  0  0  -0.30435  -0.241445  0  3.41548  0
O  O54  1  0.54034771  0.34607555  0.55985682  1  0  -0.717222  0  2.012661  0  0  -0.652106  0  2.259239  0  0  -0.681752  0  2.250732  0  0  -0.371564  -0.630932  0  2.264406  0
O  O55  1  0.95965596  0.44011452  0.65391548  1  0  -0.71691  0  2.012028  0  0  -0.651746  0  2.258619  0  0  -0.6814  0  2.25012  0  0  -0.371371  -0.630568  0  2.263778  0
O  O56  1  0.45965999  0.65391083  0.44015642  1  0  -0.717164  0  2.012381  0  0  -0.651968  0  2.258961  0  0  -0.681615  0  2.250459  0  0  -0.371423  -0.630794  0  2.264128  0
O  O57  1  0.04033095  0.55989160  0.34608022  1  0  -0.716867  0  2.012145  0  0  -0.651741  0  2.258729  0  0  -0.681392  0  2.250232  0  0  -0.37133  -0.63056  0  2.263889  0
O  O58  1  0.80140775  0.30215601  0.47218437  1  0  -0.677965  0  2.007095  0  0  -0.617642  0  2.236283  0  0  -0.644754  0  2.227298  0  0  -0.324451  -0.598192  0  2.241615  0
O  O59  1  0.69859429  0.52781100  0.69785911  1  0  -0.677744  0  2.007204  0  0  -0.617364  0  2.236388  0  0  -0.644483  0  2.227423  0  0  -0.324371  -0.597913  0  2.241711  0
O  O60  1  0.19860776  0.69783597  0.52781056  1  0  -0.677989  0  2.007141  0  0  -0.617659  0  2.236409  0  0  -0.644768  0  2.227433  0  0  -0.324415  -0.598209  0  2.24174  0
O  O61  1  0.30140073  0.47219311  0.30213611  1  0  -0.677759  0  2.007299  0  0  -0.617422  0  2.236449  0  0  -0.644542  0  2.227483  0  0  -0.324371  -0.597973  0  2.241776  0
O  O62  1  0.14146722  0.23261825  0.56148230  1  0  -0.890613  0  1.826578  0  0  -0.841337  0  2.015781  0  0  -0.861747  0  1.982853  0  0  -0.643832  -0.826385  0  2.039273  0
O  O63  1  0.35851660  0.43851001  0.76737763  1  0  -0.890643  0  1.826568  0  0  -0.84128  0  2.01577  0  0  -0.861728  0  1.982893  0  0  -0.643772  -0.826301  0  2.039301  0
O  O64  1  0.85853748  0.76737667  0.43851574  1  0  -0.890561  0  1.826686  0  0  -0.841241  0  2.015873  0  0  -0.861668  0  1.982977  0  0  -0.6438  -0.826289  0  2.039388  0
O  O65  1  0.64147991  0.56149078  0.23262727  1  0  -0.890702  0  1.826535  0  0  -0.841336  0  2.015758  0  0  -0.861779  0  1.982862  0  0  -0.643782  -0.82635  0  2.039283  0
