# generated using pymatgen
data_MnH15C26(NO2)3
_symmetry_space_group_name_H-M   'P 1'
_cell_length_a   6.52510942
_cell_length_b   16.28352078
_cell_length_c   23.64480408
_cell_angle_alpha   89.99970677
_cell_angle_beta   90.00953223
_cell_angle_gamma   89.99427586
_symmetry_Int_Tables_number   1
_chemical_formula_structural   MnH15C26(NO2)3
_chemical_formula_sum   'Mn4 H60 C104 N12 O24'
_cell_volume   2512.30187785
_cell_formula_units_Z   4
loop_
 _symmetry_equiv_pos_site_id
 _symmetry_equiv_pos_as_xyz
  1  'x, y, z'
loop_
 _atom_site_type_symbol
 _atom_site_label
 _atom_site_symmetry_multiplicity
 _atom_site_fract_x
 _atom_site_fract_y
 _atom_site_fract_z
 _atom_site_occupancy
 _atom_site_pbe_bader_charge
 _atom_site_pbe_bader_spin_density
 _atom_site_pbe_cm5_charge
 _atom_site_pbe_ddec_charge
 _atom_site_pbe_ddec_spin_density
 _atom_site_pbe_ddec_sum_bond_order
 _atom_site_pbe_magmom
Mn  Mn0  1  0.11322088  0.11227066  0.17552347  1  1.516403  4.559158  0.597109  0.921324  4.685337  2.350571  4.479
Mn  Mn1  1  0.61319764  0.88772481  0.82446922  1  1.516277  4.559017  0.597103  0.921312  4.685164  2.351001  4.479
Mn  Mn2  1  0.61324463  0.61227150  0.32447233  1  1.516435  4.559051  0.597136  0.921434  4.68518  2.35069  4.479
Mn  Mn3  1  0.11321221  0.38772704  0.67552755  1  1.516361  4.559108  0.597138  0.92137  4.68527  2.350649  4.479
H  H4  1  0.07464494  0.27217388  0.10004524  1  0.652332  0.000298  0.296777  0.369474  0.000676  0.979796  0.0
H  H5  1  0.57463770  0.72784159  0.89996045  1  0.652374  0.000299  0.296794  0.369446  0.000677  0.979804  0.0
H  H6  1  0.57464118  0.77216618  0.39995961  1  0.652386  0.000298  0.296807  0.369483  0.000676  0.979773  0.0
H  H7  1  0.07463074  0.22783210  0.60004058  1  0.652403  0.000298  0.296744  0.369445  0.000676  0.979829  0.0
H  H8  1  0.13443620  0.46989200  0.14757513  1  0.109318  7.5e-05  0.105129  0.107443  3e-05  1.000483  0.0
H  H9  1  0.63443218  0.53013269  0.85242533  1  0.109114  7.5e-05  0.105207  0.107616  3e-05  1.000207  0.0
H  H10  1  0.63443659  0.96987176  0.35242294  1  0.109153  7.5e-05  0.105195  0.107586  3e-05  1.000234  0.0
H  H11  1  0.13443792  0.03011363  0.64757370  1  0.109301  7.5e-05  0.105153  0.10746  3e-05  1.000436  0.0
H  H12  1  0.14370389  0.59301237  0.21015674  1  0.032856  0.000188  0.100789  0.099299  -5.2e-05  1.003727  0.0
H  H13  1  0.64370058  0.40700579  0.78985345  1  0.033053  0.000188  0.100766  0.099302  -5.2e-05  1.003772  0.0
H  H14  1  0.64371241  0.09299633  0.28984774  1  0.033029  0.000188  0.100806  0.099284  -5.2e-05  1.003859  0.0
H  H15  1  0.14370892  0.90698929  0.71015441  1  0.032872  0.000188  0.100762  0.099241  -5.2e-05  1.003799  0.0
H  H16  1  0.08082402  0.31688879  0.29475912  1  0.099585  0.000216  0.101571  0.092613  -3.8e-05  1.081479  0.0
H  H17  1  0.58081397  0.68312275  0.70522698  1  0.09935  0.000216  0.101579  0.09262  -3.7e-05  1.081421  0.0
H  H18  1  0.58081116  0.81688069  0.20522852  1  0.099455  0.000216  0.101583  0.092607  -3.7e-05  1.08153  0.0
H  H19  1  0.08082070  0.18311672  0.79475969  1  0.09971  0.000216  0.101628  0.09271  -3.7e-05  1.081494  0.0
H  H20  1  0.17600357  0.55056930  0.40517040  1  0.120999  0.000132  0.113281  0.128808  -0.000417  1.023909  0.0
H  H21  1  0.67599599  0.44942543  0.59483370  1  0.120899  0.000133  0.113288  0.128918  -0.000417  1.023866  0.0
H  H22  1  0.67599669  0.05057252  0.09482814  1  0.120966  0.000132  0.113277  0.128836  -0.000417  1.023844  0.0
H  H23  1  0.17600134  0.94942713  0.90516623  1  0.120877  0.000133  0.113245  0.128841  -0.000417  1.023859  0.0
H  H24  1  0.16319090  0.50996434  0.50582146  1  0.083305  0.000208  0.107502  0.10544  -6.4e-05  1.006882  0.0
H  H25  1  0.66319836  0.49003092  0.49418288  1  0.083384  0.000208  0.10751  0.105472  -6.4e-05  1.006789  0.0
H  H26  1  0.66320346  0.00997010  0.99417814  1  0.083147  0.000208  0.107537  0.105486  -6.4e-05  1.006979  0.0
H  H27  1  0.16319040  0.99003437  0.00581689  1  0.083417  0.000208  0.107551  0.105497  -6.4e-05  1.006868  0.0
H  H28  1  0.00557550  0.26601192  0.45315461  1  0.090986  6.4e-05  0.105992  0.072697  -1.1e-05  1.017223  0.0
H  H29  1  0.50554547  0.73399287  0.54683134  1  0.090729  6.4e-05  0.105929  0.072591  -1.1e-05  1.017246  0.0
H  H30  1  0.50555044  0.76601975  0.04682502  1  0.091038  6.4e-05  0.105977  0.072668  -1.1e-05  1.017076  0.0
H  H31  1  0.00555673  0.23399794  0.95314782  1  0.090822  6.4e-05  0.105952  0.072607  -1.1e-05  1.017348  0.0
H  H32  1  0.15974075  0.20006291  0.29867620  1  0.097683  0.00096  0.117138  0.085625  0.000237  1.04211  0.001
H  H33  1  0.65976587  0.79992942  0.70134236  1  0.097952  0.00096  0.117075  0.085502  0.000237  1.042235  0.001
H  H34  1  0.65974704  0.70006467  0.20132781  1  0.097524  0.00096  0.117107  0.085613  0.000237  1.042221  0.001
H  H35  1  0.15974118  0.29993135  0.79866875  1  0.098109  0.00096  0.117141  0.085644  0.000237  1.042093  0.001
H  H36  1  0.17845590  0.16069535  0.40114024  1  0.08155  0.000664  0.109814  0.116457  0.000374  1.00481  0.0
H  H37  1  0.67845392  0.83928823  0.59887708  1  0.081556  0.000664  0.109774  0.116388  0.000374  1.004742  0.0
H  H38  1  0.67845080  0.66070033  0.09886564  1  0.081628  0.000664  0.109822  0.116464  0.000374  1.004804  0.0
H  H39  1  0.17845748  0.33929123  0.90113392  1  0.081843  0.000664  0.109763  0.116396  0.000374  1.004752  0.0
H  H40  1  0.15743694  0.01079015  0.42708947  1  0.090265  6.1e-05  0.113977  0.112566  -1e-06  0.971813  0.0
H  H41  1  0.65742761  0.98919368  0.57292390  1  0.090237  6.2e-05  0.11399  0.112536  -1e-06  0.971858  0.0
H  H42  1  0.65742419  0.51079655  0.07291679  1  0.090435  6.1e-05  0.113986  0.112537  -1e-06  0.971812  0.0
H  H43  1  0.15743729  0.48919772  0.92708643  1  0.090417  6.1e-05  0.113999  0.112576  -1e-06  0.971726  0.0
H  H44  1  0.12350950  0.86360469  0.39426389  1  0.088295  0.000266  0.113162  0.120218  0.000155  0.970361  0.0
H  H45  1  0.62348952  0.13638790  0.60574620  1  0.088703  0.000266  0.113201  0.120267  0.000156  0.970355  0.0
H  H46  1  0.62349373  0.36360782  0.10574377  1  0.088574  0.000266  0.113183  0.120203  0.000155  0.970353  0.0
H  H47  1  0.12350835  0.63638907  0.89426210  1  0.08841  0.000266  0.113157  0.120154  0.000156  0.970386  0.0
H  H48  1  0.09100257  0.76447045  0.31629988  1  0.131605  0.000482  0.109851  0.126465  -0.00041  1.031024  0.0
H  H49  1  0.59100904  0.23552470  0.68370827  1  0.131519  0.000482  0.109872  0.126455  -0.000409  1.031185  0.0
H  H50  1  0.59101439  0.26447546  0.18370534  1  0.131626  0.000482  0.109851  0.126455  -0.000409  1.031065  0.0
H  H51  1  0.09100948  0.73552952  0.81629773  1  0.131552  0.000482  0.109844  0.126436  -0.000409  1.031136  0.0
H  H52  1  0.06912101  0.73699197  0.21164006  1  0.079818  6.4e-05  0.111872  0.11017  -9.4e-05  0.990319  0.0
H  H53  1  0.56912428  0.26300284  0.78837214  1  0.079701  6.4e-05  0.111873  0.110133  -9.4e-05  0.99041  0.0
H  H54  1  0.56912865  0.23699743  0.28836677  1  0.079889  6.4e-05  0.111832  0.110092  -9.4e-05  0.990441  0.0
H  H55  1  0.06912736  0.76300967  0.71163400  1  0.079815  6.4e-05  0.111862  0.110151  -9.4e-05  0.99038  0.0
H  H56  1  0.06369033  0.79362517  0.11249585  1  0.086866  0.000761  0.111702  0.11529  0.000431  0.978496  0.0
H  H57  1  0.56368617  0.20636127  0.88751313  1  0.087037  0.000762  0.111658  0.115219  0.000431  0.978544  0.0
H  H58  1  0.56368289  0.29363419  0.38750883  1  0.087087  0.000762  0.111692  0.115261  0.000432  0.978358  0.0
H  H59  1  0.06369821  0.70637375  0.61249126  1  0.086716  0.000762  0.111696  0.115252  0.000431  0.978502  0.0
H  H60  1  0.08370878  0.94655304  0.09896792  1  0.124578  0.000962  0.118859  0.086882  0.000198  1.011698  0.001
H  H61  1  0.58368851  0.05342767  0.90103523  1  0.124693  0.000963  0.118894  0.087008  0.000198  1.0115  0.001
H  H62  1  0.58371238  0.44656441  0.40103293  1  0.12494  0.000962  0.11889  0.086878  0.000198  1.011637  0.001
H  H63  1  0.08371555  0.55344332  0.59896599  1  0.1248  0.000963  0.118867  0.086837  0.000199  1.011614  0.001
C  C64  1  0.10316179  0.31068616  0.18118121  1  1.561804  0.00623  0.238896  0.593907  0.006082  4.131337  0.006
C  C65  1  0.60315745  0.68932445  0.81881735  1  1.561642  0.006244  0.238903  0.593861  0.006095  4.131861  0.006
C  C66  1  0.60314083  0.81068029  0.31881722  1  1.561574  0.006242  0.239039  0.59415  0.006092  4.131147  0.006
C  C67  1  0.10316309  0.18931374  0.68117754  1  1.561262  0.006238  0.239049  0.593975  0.006088  4.131472  0.006
C  C68  1  0.10657633  0.38533382  0.21731468  1  -0.034554  0.002088  -0.024679  -0.06562  0.001413  4.029231  0.001
C  C69  1  0.60657191  0.61468280  0.78268108  1  -0.034323  0.002087  -0.024718  -0.065753  0.001412  4.029446  0.001
C  C70  1  0.60657237  0.88532023  0.28268027  1  -0.034829  0.002087  -0.024728  -0.065857  0.001413  4.029205  0.001
C  C71  1  0.10657894  0.11467182  0.71731338  1  -0.034209  0.002088  -0.024642  -0.065521  0.001413  4.029398  0.001
C  C72  1  0.12382840  0.46363726  0.19329191  1  0.016586  0.001972  -0.082023  -0.083983  0.001468  3.995982  0.001
C  C73  1  0.62382808  0.53638356  0.80670720  1  0.016588  0.001974  -0.082013  -0.083942  0.00147  3.995806  0.001
C  C74  1  0.62383707  0.96361981  0.30670568  1  0.016887  0.001973  -0.082014  -0.083971  0.001469  3.995814  0.001
C  C75  1  0.12382860  0.03636785  0.69329089  1  0.016826  0.001973  -0.081987  -0.083946  0.001469  3.996066  0.001
C  C76  1  0.12865950  0.53181762  0.22842859  1  -0.042214  -3.8e-05  -0.092489  -0.117317  -0.000479  4.01258  0.0
C  C77  1  0.62866118  0.46819687  0.77157455  1  -0.041354  -3.9e-05  -0.092491  -0.117413  -0.00048  4.012487  0.0
C  C78  1  0.62867411  0.03180478  0.27157160  1  -0.041338  -3.8e-05  -0.092555  -0.117341  -0.00048  4.012598  0.0
C  C79  1  0.12866190  0.96818453  0.72842731  1  -0.042326  -3.9e-05  -0.092479  -0.117297  -0.000479  4.012552  0.0
C  C80  1  0.11471177  0.52407612  0.28735539  1  -0.096159  0.004106  0.001844  -0.050175  0.002968  3.919697  0.002
C  C81  1  0.61471359  0.47592973  0.71264710  1  -0.09547  0.004106  0.00171  -0.050445  0.002969  3.9197  0.002
C  C82  1  0.61472534  0.02407108  0.21264206  1  -0.096779  0.004105  0.001918  -0.050143  0.002968  3.919583  0.002
C  C83  1  0.11470769  0.97592371  0.78735408  1  -0.095662  0.004106  0.00178  -0.050214  0.002969  3.919728  0.002
C  C84  1  0.11343187  0.60374491  0.31945783  1  1.597476  0.011977  0.220124  0.583539  0.012168  4.235112  0.012
C  C85  1  0.61341729  0.39626222  0.68054841  1  1.596933  0.011987  0.220069  0.583671  0.012177  4.234707  0.012
C  C86  1  0.61341271  0.10373643  0.18054435  1  1.597298  0.011988  0.219871  0.583167  0.01218  4.235202  0.012
C  C87  1  0.11341346  0.89625841  0.81945596  1  1.596908  0.01198  0.219818  0.583245  0.012173  4.235632  0.012
C  C88  1  0.09953508  0.44535134  0.31226973  1  0.034203  0.000331  -0.005728  0.00683  6e-06  3.933939  0.0
C  C89  1  0.59953677  0.55465758  0.68772908  1  0.033758  0.000331  -0.005598  0.007095  5e-06  3.933487  0.0
C  C90  1  0.59953795  0.94534461  0.18772425  1  0.034495  0.000331  -0.005721  0.006895  5e-06  3.933773  0.0
C  C91  1  0.09953237  0.05465204  0.81226526  1  0.034426  0.000332  -0.005688  0.007046  6e-06  3.934021  0.0
C  C92  1  0.09523998  0.37738224  0.27590151  1  -0.047521  0.001236  -0.077374  -0.117542  0.000642  3.955453  0.001
C  C93  1  0.59523584  0.62263178  0.72409330  1  -0.048183  0.001237  -0.077368  -0.117477  0.000643  3.955024  0.001
C  C94  1  0.59523824  0.87737277  0.22409167  1  -0.047843  0.001236  -0.077346  -0.117458  0.000643  3.955253  0.001
C  C95  1  0.09523758  0.12262220  0.77589891  1  -0.048387  0.001237  -0.077562  -0.117859  0.000643  3.955625  0.001
C  C96  1  0.09218840  0.42892423  0.37414534  1  0.473911  0.001093  0.11992  0.203353  0.000773  3.981671  0.001
C  C97  1  0.59217565  0.57107947  0.62584932  1  0.474324  0.001092  0.119981  0.203445  0.000773  3.98154  0.001
C  C98  1  0.59217776  0.92892532  0.12584666  1  0.474032  0.001093  0.119909  0.203407  0.000773  3.981675  0.001
C  C99  1  0.09218169  0.07107899  0.87414293  1  0.473758  0.001092  0.11996  0.203189  0.000772  3.981872  0.001
C  C100  1  0.13385723  0.48802223  0.41602857  1  -0.00413  0.000131  -0.08121  -0.161914  -0.000214  3.912908  0.0
C  C101  1  0.63384948  0.51197546  0.58397101  1  -0.003969  0.00013  -0.081277  -0.162153  -0.000215  3.912965  0.0
C  C102  1  0.63384641  0.98802609  0.08396645  1  -0.003642  0.00013  -0.081261  -0.162019  -0.000215  3.912966  0.0
C  C103  1  0.13385570  0.01197774  0.91602467  1  -0.004057  0.000131  -0.080996  -0.161649  -0.000214  3.912969  0.0
C  C104  1  0.12845305  0.46542075  0.47277964  1  -0.039046  0.000923  -0.065865  -0.043395  0.000506  3.960544  0.0
C  C105  1  0.62844925  0.53457716  0.52722011  1  -0.039018  0.000923  -0.065911  -0.043373  0.000506  3.960193  0.0
C  C106  1  0.62845014  0.96542565  0.02721436  1  -0.039263  0.000923  -0.065918  -0.043423  0.000506  3.960606  0.0
C  C107  1  0.12845062  0.03457902  0.97277524  1  -0.038936  0.000922  -0.066117  -0.043631  0.000506  3.960502  0.0
C  C108  1  0.08209712  0.38443978  0.48740685  1  0.009922  0.0022  -0.021169  -0.095258  0.001484  3.98546  0.001
C  C109  1  0.58209103  0.61556249  0.51258945  1  0.010128  0.0022  -0.020959  -0.095215  0.001484  3.985121  0.001
C  C110  1  0.58209171  0.88444417  0.01258441  1  0.009804  0.0022  -0.020929  -0.095278  0.001484  3.985269  0.001
C  C111  1  0.08209184  0.11556424  0.98740217  1  0.010101  0.0022  -0.021121  -0.095411  0.001484  3.984943  0.001
C  C112  1  0.04286526  0.32971487  0.44290492  1  0.483685  0.001621  0.04297  0.070016  0.001264  4.01384  0.001
C  C113  1  0.54283991  0.67029024  0.55708574  1  0.48404  0.001621  0.043111  0.070463  0.001264  4.013582  0.001
C  C114  1  0.54284318  0.82972015  0.05708131  1  0.483916  0.001621  0.04302  0.070343  0.001264  4.013511  0.001
C  C115  1  0.04285126  0.17029232  0.94290046  1  0.483995  0.00162  0.043016  0.070221  0.001263  4.013581  0.001
C  C116  1  0.07908709  0.35413290  0.54725339  1  1.564098  0.007317  0.221846  0.596299  0.007464  4.198648  0.007
C  C117  1  0.57912261  0.64587809  0.45274320  1  1.563969  0.007319  0.221934  0.596486  0.007465  4.198697  0.007
C  C118  1  0.57910373  0.85412542  0.95273979  1  1.564872  0.007318  0.221824  0.596529  0.007466  4.198704  0.007
C  C119  1  0.07909371  0.14586592  0.04725130  1  1.563841  0.007315  0.221877  0.596387  0.007462  4.198611  0.007
C  C120  1  0.15195635  0.13594544  0.31166672  1  0.557092  0.008393  0.057524  0.102821  0.006591  3.943777  0.005
C  C121  1  0.65197199  0.86404353  0.68834597  1  0.557538  0.008408  0.057542  0.102816  0.006604  3.943542  0.005
C  C122  1  0.65195804  0.63595221  0.18833715  1  0.557833  0.008401  0.05757  0.102911  0.006597  3.943638  0.005
C  C123  1  0.15195190  0.36404904  0.81166243  1  0.55692  0.008399  0.057466  0.102644  0.006596  3.94384  0.005
C  C124  1  0.16220727  0.11317967  0.36899799  1  -0.102188  5e-05  -0.088126  -0.138419  -0.000531  3.994577  0.0
C  C125  1  0.66221421  0.88680703  0.63101730  1  -0.102783  4.8e-05  -0.087969  -0.138199  -0.000535  3.994135  0.0
C  C126  1  0.66220580  0.61318318  0.13100898  1  -0.102686  5e-05  -0.088171  -0.138561  -0.000532  3.994596  0.0
C  C127  1  0.16220495  0.38681028  0.86899320  1  -0.102656  4.9e-05  -0.088003  -0.138282  -0.000533  3.99436  0.0
C  C128  1  0.15029520  0.03081254  0.38306776  1  0.006463  0.007285  -0.062199  -0.074885  0.005631  3.938501  0.004
C  C129  1  0.65029526  0.96917404  0.61694359  1  0.006007  0.007302  -0.062154  -0.074836  0.005644  3.938614  0.004
C  C130  1  0.65029003  0.53081738  0.11693641  1  0.005542  0.007294  -0.062115  -0.074723  0.005637  3.938365  0.004
C  C131  1  0.15029276  0.46917779  0.88306394  1  0.005887  0.007292  -0.062235  -0.074929  0.005636  3.938401  0.004
C  C132  1  0.12933312  0.97147211  0.33988191  1  -0.016973  0.000136  0.000501  0.043217  -0.000288  4.018454  0.0
C  C133  1  0.62932854  0.02851840  0.66012549  1  -0.015941  0.000134  0.000544  0.043389  -0.00029  4.018659  0.0
C  C134  1  0.62932796  0.47147790  0.16012141  1  -0.016402  0.000136  0.000597  0.043463  -0.000289  4.018412  0.0
C  C135  1  0.12932756  0.52852243  0.83988050  1  -0.016609  0.000136  0.000528  0.043283  -0.000289  4.018739  0.0
C  C136  1  0.12187910  0.00055100  0.28316486  1  0.484798  0.005819  0.124444  0.124096  0.004642  3.976626  0.004
C  C137  1  0.62188013  0.99944166  0.71684262  1  0.483962  0.005832  0.124288  0.123606  0.004654  3.976773  0.004
C  C138  1  0.62187767  0.50055387  0.21683935  1  0.483961  0.005823  0.124216  0.123517  0.004647  3.976959  0.004
C  C139  1  0.12187082  0.49944493  0.78316389  1  0.483778  0.005826  0.124395  0.123907  0.004647  3.976598  0.004
C  C140  1  0.11683665  0.88521702  0.35064397  1  -0.008114  0.000192  -0.0778  -0.109222  1.2e-05  3.961683  0.0
C  C141  1  0.61682773  0.11477584  0.64936496  1  -0.008227  0.000193  -0.077931  -0.109262  1.3e-05  3.961762  0.0
C  C142  1  0.61682975  0.38522106  0.14936077  1  -0.008029  0.000192  -0.077848  -0.109156  1.2e-05  3.961675  0.0
C  C143  1  0.11683463  0.61477795  0.85064098  1  -0.007947  0.000193  -0.077846  -0.109081  1.3e-05  3.961722  0.0
C  C144  1  0.09960176  0.83007590  0.30734197  1  -0.031664  0.000182  -0.077047  -0.102062  -0.000326  3.9291  0.0
C  C145  1  0.59960189  0.16992074  0.69266531  1  -0.031294  0.000181  -0.077105  -0.102234  -0.000328  3.929319  0.0
C  C146  1  0.59960507  0.33007777  0.19266215  1  -0.031724  0.000182  -0.077109  -0.102265  -0.000327  3.92918  0.0
C  C147  1  0.09960165  0.66992194  0.80734005  1  -0.03147  0.000182  -0.077029  -0.102127  -0.000328  3.929372  0.0
C  C148  1  0.09374864  0.85734306  0.24986277  1  0.000774  0.000302  0.004069  0.049818  -0.000178  3.990473  0.0
C  C149  1  0.59375713  0.14265382  0.75014931  1  0.000367  0.000301  0.00434  0.049953  -0.000178  3.990596  0.0
C  C150  1  0.59376133  0.35734573  0.25014563  1  0.000318  0.000301  0.004292  0.050108  -0.000179  3.990367  0.0
C  C151  1  0.09374903  0.64265852  0.74985884  1  0.000611  0.000302  0.004203  0.049845  -0.000178  3.990553  0.0
C  C152  1  0.10422027  0.94253454  0.23748256  1  0.493644  0.006008  0.122785  0.122481  0.004816  3.969234  0.004
C  C153  1  0.60421541  0.05746191  0.76252494  1  0.494563  0.006015  0.122673  0.122636  0.00482  3.969116  0.004
C  C154  1  0.60422800  0.44254081  0.26251842  1  0.494638  0.006014  0.122739  0.12262  0.004819  3.969289  0.004
C  C155  1  0.10421381  0.55746608  0.73747892  1  0.494711  0.006009  0.122766  0.122577  0.004817  3.969074  0.004
C  C156  1  0.07798249  0.80284183  0.20354323  1  -0.093417  0.006949  -0.055618  -0.05709  0.005256  3.893066  0.004
C  C157  1  0.57798511  0.19715201  0.79646684  1  -0.093359  0.006955  -0.055768  -0.057227  0.00526  3.893717  0.004
C  C158  1  0.57799185  0.30284784  0.29646293  1  -0.093431  0.006956  -0.055726  -0.057322  0.005261  3.893691  0.004
C  C159  1  0.07798647  0.69715828  0.70353783  1  -0.093492  0.00695  -0.0557  -0.057236  0.005257  3.893205  0.004
C  C160  1  0.07440260  0.83382558  0.14918992  1  0.064033  -4.2e-05  -0.077274  -0.114514  -0.000566  3.975644  0.0
C  C161  1  0.57439884  0.16616411  0.85081617  1  0.063929  -4.3e-05  -0.077203  -0.114343  -0.000566  3.975918  0.0
C  C162  1  0.57440876  0.33383671  0.35081173  1  0.063842  -4.4e-05  -0.077205  -0.114243  -0.000568  3.97567  0.0
C  C163  1  0.07440953  0.66617324  0.64918633  1  0.064113  -4.2e-05  -0.077193  -0.114245  -0.000565  3.975372  0.0
C  C164  1  0.08580111  0.91933452  0.14110243  1  0.495403  0.008661  0.063008  0.114075  0.006934  3.933232  0.006
C  C165  1  0.58578615  0.08065470  0.85890378  1  0.494576  0.00867  0.063007  0.113909  0.006939  3.933024  0.006
C  C166  1  0.58580745  0.41934007  0.35890115  1  0.49477  0.008669  0.063025  0.113997  0.00694  3.93297  0.006
C  C167  1  0.08580433  0.58066635  0.64110167  1  0.495083  0.008661  0.062993  0.114021  0.006933  3.933077  0.006
N  N168  1  0.04784432  0.35030081  0.38848586  1  -1.196042  0.000471  -0.322282  -0.316093  0.000233  3.379177  0.0
N  N169  1  0.54781930  0.64970409  0.61150377  1  -1.196391  0.000471  -0.322476  -0.316537  0.000233  3.379377  0.0
N  N170  1  0.54782062  0.85030385  0.11150012  1  -1.196081  0.000471  -0.322336  -0.316309  0.000232  3.379423  0.0
N  N171  1  0.04783380  0.14970535  0.88848274  1  -1.195985  0.000471  -0.322288  -0.316025  0.000233  3.379138  0.0
N  N172  1  0.13216709  0.08154990  0.26996375  1  -1.268392  0.047773  -0.306084  -0.278329  0.033179  3.504705  0.017
N  N173  1  0.63217264  0.91844172  0.73004802  1  -1.268701  0.047791  -0.305992  -0.277999  0.033183  3.504536  0.017
N  N174  1  0.63216426  0.58155759  0.23003939  1  -1.268168  0.04779  -0.305992  -0.278116  0.033182  3.504251  0.017
N  N175  1  0.13215861  0.41844631  0.76995926  1  -1.268409  0.047789  -0.306056  -0.278105  0.03318  3.504598  0.017
N  N176  1  0.09966297  0.97230113  0.18380464  1  -1.252221  0.051108  -0.304984  -0.281817  0.035803  3.496722  0.018
N  N177  1  0.59964950  0.02768814  0.81620137  1  -1.252131  0.051109  -0.305061  -0.281854  0.035809  3.496496  0.018
N  N178  1  0.59967170  0.47230883  0.31619940  1  -1.252321  0.051104  -0.305063  -0.281896  0.035807  3.496422  0.018
N  N179  1  0.09965915  0.52769763  0.68380280  1  -1.252343  0.051106  -0.305089  -0.281897  0.035805  3.496746  0.018
O  O180  1  0.11275360  0.24082998  0.20309631  1  -1.185712  0.052127  -0.280621  -0.504441  0.036668  2.339923  0.023
O  O181  1  0.61273619  0.75918761  0.79690059  1  -1.185763  0.052164  -0.28072  -0.504514  0.036692  2.339857  0.023
O  O182  1  0.61268293  0.74081445  0.29690112  1  -1.185708  0.052154  -0.280796  -0.504677  0.036684  2.339448  0.023
O  O183  1  0.11277928  0.25917428  0.70309408  1  -1.185545  0.052153  -0.280762  -0.504532  0.036677  2.339721  0.023
O  O184  1  0.09038563  0.32541686  0.12706456  1  -1.170997  0.003746  -0.31959  -0.49173  0.002453  2.330475  0.003
O  O185  1  0.59040453  0.67459981  0.87292833  1  -1.170841  0.003752  -0.319516  -0.491625  0.002457  2.330829  0.003
O  O186  1  0.59040731  0.82540321  0.37292857  1  -1.17092  0.00375  -0.319536  -0.491672  0.002456  2.330744  0.003
O  O187  1  0.09037212  0.17458705  0.62706389  1  -1.170706  0.003748  -0.319535  -0.49166  0.002454  2.33056  0.003
O  O188  1  0.28451130  0.63796062  0.32941154  1  -1.179169  0.063208  -0.30277  -0.543736  0.045535  2.298825  0.032
O  O189  1  0.78450378  0.36202352  0.67060907  1  -1.179322  0.06321  -0.302647  -0.543638  0.045534  2.298508  0.032
O  O190  1  0.78449087  0.13797494  0.17060870  1  -1.17957  0.063206  -0.302522  -0.543399  0.045529  2.298587  0.032
O  O191  1  0.28449662  0.86201535  0.82939752  1  -1.179701  0.063196  -0.302589  -0.543593  0.045536  2.298876  0.032
O  O192  1  0.94157900  0.63471504  0.33254899  1  -1.184652  0.064227  -0.30091  -0.537861  0.045797  2.296789  0.032
O  O193  1  0.44155494  0.36530197  0.66744515  1  -1.184338  0.064201  -0.300887  -0.537944  0.045798  2.296468  0.032
O  O194  1  0.44153670  0.13469952  0.16743506  1  -1.184143  0.064217  -0.300892  -0.537767  0.045798  2.296513  0.032
O  O195  1  0.94156353  0.86531073  0.83256034  1  -1.183945  0.064208  -0.300727  -0.537691  0.045796  2.296874  0.032
O  O196  1  0.10891248  0.40629961  0.58643977  1  -1.201372  0.060398  -0.307971  -0.548783  0.041572  2.331931  0.026
O  O197  1  0.60903261  0.59371630  0.41355822  1  -1.20161  0.060409  -0.308118  -0.548996  0.041578  2.33189  0.026
O  O198  1  0.60898111  0.90628136  0.91355293  1  -1.201943  0.06042  -0.308058  -0.549043  0.041577  2.332139  0.026
O  O199  1  0.10893334  0.09369586  0.08643491  1  -1.201478  0.060412  -0.307995  -0.548802  0.041568  2.332128  0.026
O  O200  1  0.04733167  0.27757085  0.55331161  1  -1.175901  0.007257  -0.318744  -0.547189  0.004912  2.229069  0.005
O  O201  1  0.54732047  0.72243837  0.44668433  1  -1.175788  0.007257  -0.318748  -0.547174  0.004912  2.229262  0.005
O  O202  1  0.54731409  0.77756587  0.94668584  1  -1.176217  0.007258  -0.318695  -0.547145  0.004912  2.229226  0.005
O  O203  1  0.04733806  0.22243291  0.05331349  1  -1.17584  0.007258  -0.31877  -0.547238  0.004913  2.228798  0.005
