# generated using pymatgen
data_Cu2H7C10N6Cl
_symmetry_space_group_name_H-M   'P 1'
_cell_length_a   9.26292161
_cell_length_b   10.47225775
_cell_length_c   11.26847789
_cell_angle_alpha   90.00002960
_cell_angle_beta   105.10311351
_cell_angle_gamma   89.99995536
_symmetry_Int_Tables_number   1
_chemical_formula_structural   Cu2H7C10N6Cl
_chemical_formula_sum   'Cu8 H28 C40 N24 Cl4'
_cell_volume   1055.32728552
_cell_formula_units_Z   4
loop_
 _symmetry_equiv_pos_site_id
 _symmetry_equiv_pos_as_xyz
  1  'x, y, z'
loop_
 _atom_site_type_symbol
 _atom_site_label
 _atom_site_symmetry_multiplicity
 _atom_site_fract_x
 _atom_site_fract_y
 _atom_site_fract_z
 _atom_site_occupancy
 _atom_site_hle17_bader_spin_density
 _atom_site_hle17_ddec_charge
 _atom_site_hle17_ddec_spin_density
 _atom_site_hle17_ddec_sum_bond_order
 _atom_site_hle17_magmom
 _atom_site_hse06_10hf_bader_spin_density
 _atom_site_hse06_10hf_ddec_charge
 _atom_site_hse06_10hf_ddec_spin_density
 _atom_site_hse06_10hf_ddec_sum_bond_order
 _atom_site_hse06_10hf_magmom
 _atom_site_hse06_bader_spin_density
 _atom_site_hse06_ddec_charge
 _atom_site_hse06_ddec_spin_density
 _atom_site_hse06_ddec_sum_bond_order
 _atom_site_hse06_magmom
 _atom_site_pbe_bader_spin_density
 _atom_site_pbe_cm5_charge
 _atom_site_pbe_ddec_charge
 _atom_site_pbe_ddec_spin_density
 _atom_site_pbe_ddec_sum_bond_order
 _atom_site_pbe_magmom
Cu  Cu0  1  0.09440662  0.41675166  0.40132799  1  0  0.416981  0  2.044835  0  0  0.300419  0  2.548225  0  0  0.289257  0  2.510418  0  0  0.522136  0.312253  0  2.570109  0
Cu  Cu1  1  0.40559290  0.91675171  0.59867201  1  0  0.416957  0  2.044737  0  0  0.300368  0  2.548114  0  0  0.289215  0  2.510313  0  0  0.522097  0.312208  0  2.570003  0
Cu  Cu2  1  0.90559411  0.58324848  0.59867332  1  0  0.417036  0  2.044751  0  0  0.300474  0  2.54815  0  0  0.289288  0  2.510322  0  0  0.522122  0.312281  0  2.570023  0
Cu  Cu3  1  0.59440672  0.08324938  0.40132906  1  0  0.41701  0  2.044817  0  0  0.300458  0  2.54822  0  0  0.289267  0  2.510385  0  0  0.522129  0.312268  0  2.57008  0
Cu  Cu4  1  0.29657320  0.28987345  0.20579822  1  0  0.441478  0  1.719068  0  0  0.315491  0  2.167627  0  0  0.325582  0  2.121691  0  0  0.477973  0.30992  0  2.199222  0
Cu  Cu5  1  0.20342642  0.78987375  0.79420174  1  0  0.441501  0  1.719016  0  0  0.31551  0  2.167565  0  0  0.325599  0  2.121624  0  0  0.477958  0.30992  0  2.199162  0
Cu  Cu6  1  0.70342641  0.71012573  0.79420285  1  0  0.441524  0  1.718991  0  0  0.315533  0  2.167535  0  0  0.325621  0  2.121602  0  0  0.477951  0.309933  0  2.19914  0
Cu  Cu7  1  0.79657430  0.21012734  0.20579779  1  0  0.441472  0  1.719057  0  0  0.315485  0  2.167606  0  0  0.325578  0  2.121671  0  0  0.477968  0.309906  0  2.199206  0
H  H8  1  0.39472985  0.45230168  0.41033677  1  0  0.088763  0  0.99288  0  0  0.091891  0  1.068416  0  0  0.095581  0  1.064736  0  0  0.096017  0.089091  0  1.071151  0
H  H9  1  0.10526964  0.95230480  0.58966235  1  0  0.088752  0  0.992867  0  0  0.09188  0  1.068415  0  0  0.095579  0  1.064709  0  0  0.096025  0.08908  0  1.071151  0
H  H10  1  0.60527086  0.54769464  0.58966187  1  0  0.08872  0  0.992893  0  0  0.091857  0  1.068434  0  0  0.095555  0  1.064723  0  0  0.096025  0.089057  0  1.071169  0
H  H11  1  0.89472884  0.04769725  0.41033671  1  0  0.088769  0  0.992868  0  0  0.091901  0  1.068396  0  0  0.095594  0  1.064708  0  0  0.096023  0.089102  0  1.071128  0
H  H12  1  0.53685468  0.43530238  0.25476193  1  0  0.101054  0  0.97156  0  0  0.106832  0  1.045133  0  0  0.110922  0  1.041448  0  0  0.099605  0.103552  0  1.04835  0
H  H13  1  0.96314696  0.93530152  0.74523724  1  0  0.101056  0  0.971551  0  0  0.106837  0  1.045125  0  0  0.110926  0  1.041443  0  0  0.099616  0.103556  0  1.048343  0
H  H14  1  0.46314601  0.56469680  0.74523582  1  0  0.101056  0  0.971562  0  0  0.106831  0  1.045138  0  0  0.110925  0  1.041447  0  0  0.099611  0.103551  0  1.048358  0
H  H15  1  0.03685376  0.06469862  0.25476229  1  0  0.101045  0  0.971571  0  0  0.106825  0  1.045146  0  0  0.110913  0  1.041463  0  0  0.0996  0.103543  0  1.048364  0
H  H16  1  0.34976394  0.85811674  0.34868437  1  0  0.092625  0  0.966087  0  0  0.094631  0  1.047447  0  0  0.099517  0  1.041747  0  0  0.098105  0.091001  0  1.051704  0
H  H17  1  0.15023563  0.35811774  0.65131650  1  0  0.092605  0  0.966092  0  0  0.094613  0  1.047453  0  0  0.099501  0  1.041751  0  0  0.098101  0.090984  0  1.051707  0
H  H18  1  0.65023679  0.14188149  0.65131694  1  0  0.092636  0  0.966039  0  0  0.094654  0  1.047392  0  0  0.099525  0  1.041709  0  0  0.098125  0.091008  0  1.051662  0
H  H19  1  0.84976397  0.64188431  0.34868368  1  0  0.092629  0  0.966096  0  0  0.094627  0  1.047474  0  0  0.099512  0  1.041776  0  0  0.09811  0.090998  0  1.051727  0
H  H20  1  0.49337606  0.84356678  0.19438823  1  0  0.112698  0  0.989253  0  0  0.119747  0  1.05775  0  0  0.123018  0  1.056715  0  0  0.094169  0.117177  0  1.058785  0
H  H21  1  0.00662577  0.34356606  0.80561399  1  0  0.112721  0  0.98925  0  0  0.119706  0  1.057803  0  0  0.122974  0  1.056772  0  0  0.094156  0.117138  0  1.05884  0
H  H22  1  0.50662467  0.15643240  0.80561308  1  0  0.112678  0  0.989252  0  0  0.119728  0  1.057748  0  0  0.123  0  1.056712  0  0  0.094164  0.11716  0  1.058782  0
H  H23  1  0.99337495  0.65643313  0.19438643  1  0  0.112723  0  0.989205  0  0  0.119722  0  1.057748  0  0  0.12299  0  1.056717  0  0  0.094173  0.117154  0  1.058785  0
H  H24  1  0.51873220  0.78827424  0.99941962  1  0  0.103549  0  0.975183  0  0  0.110829  0  1.042801  0  0  0.113947  0  1.038868  0  0  0.123574  0.108501  0  1.04551  0
H  H25  1  0.98126956  0.28827274  0.00058039  1  0  0.103544  0  0.97525  0  0  0.11083  0  1.042852  0  0  0.113949  0  1.03892  0  0  0.123576  0.108505  0  1.045559  0
H  H26  1  0.48126962  0.21172590  0.00057925  1  0  0.103558  0  0.975192  0  0  0.110817  0  1.042815  0  0  0.113936  0  1.038884  0  0  0.123568  0.10849  0  1.045525  0
H  H27  1  0.01873004  0.71172645  0.99941890  1  0  0.103554  0  0.975214  0  0  0.110839  0  1.04282  0  0  0.113958  0  1.038889  0  0  0.123581  0.10851  0  1.045529  0
H  H28  1  0.72579948  0.45198924  0.17879618  1  0  0.098751  0  1.005138  0  0  0.100775  0  1.0873  0  0  0.104805  0  1.082649  0  0  0.109392  0.097673  0  1.090941  0
H  H29  1  0.77419883  0.95198951  0.82120586  1  0  0.098754  0  1.005103  0  0  0.100782  0  1.087263  0  0  0.104813  0  1.08261  0  0  0.109394  0.097683  0  1.090905  0
H  H30  1  0.27419903  0.54800994  0.82120555  1  0  0.098735  0  1.005112  0  0  0.100759  0  1.087277  0  0  0.104788  0  1.082628  0  0  0.109385  0.097658  0  1.09092  0
H  H31  1  0.22579965  0.04801063  0.17879321  1  0  0.098732  0  1.005146  0  0  0.100763  0  1.087299  0  0  0.104793  0  1.082648  0  0  0.109391  0.097663  0  1.090936  0
H  H32  1  0.81550512  0.49257953  0.96726486  1  0  0.110545  0  0.9883  0  0  0.118689  0  1.050272  0  0  0.120617  0  1.050513  0  0  0.102263  0.117249  0  1.050155  0
H  H33  1  0.68449315  0.99258229  0.03273630  1  0  0.110568  0  0.98829  0  0  0.118682  0  1.0503  0  0  0.120611  0  1.050539  0  0  0.102264  0.117242  0  1.050183  0
H  H34  1  0.18449451  0.50741966  0.03273710  1  0  0.110578  0  0.988272  0  0  0.118683  0  1.050289  0  0  0.120606  0  1.050534  0  0  0.102264  0.117243  0  1.050173  0
H  H35  1  0.31550420  0.00741976  0.96726164  1  0  0.110556  0  0.988266  0  0  0.118664  0  1.050273  0  0  0.120587  0  1.050517  0  0  0.102262  0.117223  0  1.050157  0
C  C36  1  0.41484956  0.53760418  0.36195552  1  0  -0.082082  0  3.774993  0  0  -0.10042  0  4.019974  0  0  -0.099161  0  4.037288  0  0  -0.090968  -0.101107  0  4.008217  0
C  C37  1  0.08515025  0.03760617  0.63804347  1  0  -0.082125  0  3.774933  0  0  -0.100475  0  4.019926  0  0  -0.099218  0  4.03725  0  0  -0.090996  -0.10116  0  4.008168  0
C  C38  1  0.58515115  0.46239310  0.63804312  1  0  -0.082105  0  3.774961  0  0  -0.100466  0  4.01996  0  0  -0.099205  0  4.037279  0  0  -0.090994  -0.101151  0  4.008201  0
C  C39  1  0.91484935  0.96239588  0.36195582  1  0  -0.082133  0  3.774973  0  0  -0.100469  0  4.019959  0  0  -0.099212  0  4.037272  0  0  -0.090995  -0.101153  0  4.008202  0
C  C40  1  0.27347559  0.66196522  0.48053528  1  0  0.291938  0  3.738789  0  0  0.270047  0  3.995297  0  0  0.278112  0  4.013008  0  0  0.222183  0.264612  0  3.984023  0
C  C41  1  0.22652412  0.16196514  0.51946375  1  0  0.291911  0  3.738801  0  0  0.270024  0  3.995302  0  0  0.278086  0  4.013015  0  0  0.222189  0.264582  0  3.98403  0
C  C42  1  0.72652626  0.33803492  0.51946626  1  0  0.291986  0  3.738767  0  0  0.270057  0  3.995306  0  0  0.278115  0  4.013021  0  0  0.222217  0.264621  0  3.98403  0
C  C43  1  0.77347548  0.83803596  0.48053555  1  0  0.291894  0  3.738836  0  0  0.269955  0  3.995414  0  0  0.278014  0  4.013128  0  0  0.222172  0.264522  0  3.984131  0
C  C44  1  0.35904390  0.65561792  0.38869856  1  0  -0.00736  0  3.788759  0  0  0.014307  0  4.013568  0  0  0.010403  0  4.037221  0  0  -0.010801  0.016573  0  3.997931  0
C  C45  1  0.14095468  0.15561986  0.61129935  1  0  -0.007361  0  3.788757  0  0  0.014313  0  4.01356  0  0  0.010415  0  4.037214  0  0  -0.010817  0.016582  0  3.997922  0
C  C46  1  0.64095681  0.34437936  0.61130097  1  0  -0.007419  0  3.788793  0  0  0.014276  0  4.013599  0  0  0.010377  0  4.037248  0  0  -0.010869  0.016539  0  3.997958  0
C  C47  1  0.85904491  0.84438124  0.38869906  1  0  -0.007353  0  3.78876  0  0  0.014331  0  4.013574  0  0  0.010428  0  4.037229  0  0  -0.010818  0.016597  0  3.997937  0
C  C48  1  0.49639674  0.52834824  0.27500298  1  0  -0.146397  0  3.736162  0  0  -0.165897  0  3.987298  0  0  -0.170659  0  4.007044  0  0  -0.098604  -0.162373  0  3.973831  0
C  C49  1  0.00360307  0.02834939  0.72499690  1  0  -0.146337  0  3.736151  0  0  -0.165847  0  3.987301  0  0  -0.170609  0  4.007043  0  0  -0.098588  -0.16233  0  3.973844  0
C  C50  1  0.50360173  0.47164999  0.72499609  1  0  -0.146318  0  3.736086  0  0  -0.165809  0  3.987219  0  0  -0.170578  0  4.006972  0  0  -0.09856  -0.162287  0  3.973752  0
C  C51  1  0.99639764  0.97165171  0.27500263  1  0  -0.146364  0  3.736136  0  0  -0.165863  0  3.987274  0  0  -0.170627  0  4.007029  0  0  -0.098588  -0.162338  0  3.973803  0
C  C52  1  0.38907960  0.76493815  0.32729481  1  0  -0.058774  0  3.711999  0  0  -0.0857  0  3.970547  0  0  -0.084429  0  3.98802  0  0  -0.085656  -0.086878  0  3.959915  0
C  C53  1  0.11092005  0.26493824  0.67270603  1  0  -0.058765  0  3.712009  0  0  -0.085694  0  3.97054  0  0  -0.084427  0  3.988016  0  0  -0.085656  -0.086872  0  3.959904  0
C  C54  1  0.61092113  0.23506008  0.67270561  1  0  -0.058788  0  3.711904  0  0  -0.085728  0  3.970431  0  0  -0.084445  0  3.987917  0  0  -0.085681  -0.08689  0  3.959801  0
C  C55  1  0.88907957  0.73506190  0.32729505  1  0  -0.058793  0  3.712006  0  0  -0.085721  0  3.970527  0  0  -0.084446  0  3.987996  0  0  -0.085671  -0.086895  0  3.959891  0
C  C56  1  0.52071377  0.63753098  0.21109794  1  0  0.194385  0  3.753949  0  0  0.189047  0  3.994001  0  0  0.195954  0  4.016426  0  0  0.098525  0.18385  0  3.979068  0
C  C57  1  0.97928700  0.13753087  0.78890357  1  0  0.194263  0  3.753934  0  0  0.188948  0  3.993958  0  0  0.195856  0  4.016386  0  0  0.098497  0.183751  0  3.979024  0
C  C58  1  0.47928583  0.36246821  0.78890225  1  0  0.194352  0  3.753929  0  0  0.189014  0  3.993993  0  0  0.195919  0  4.01642  0  0  0.098519  0.183817  0  3.97906  0
C  C59  1  0.02071260  0.86246927  0.21109662  1  0  0.194335  0  3.753869  0  0  0.188992  0  3.993934  0  0  0.195898  0  4.016358  0  0  0.098513  0.183799  0  3.979001  0
C  C60  1  0.46918627  0.75645951  0.23873605  1  0  -0.139988  0  3.701062  0  0  -0.16117  0  3.952903  0  0  -0.166037  0  3.97355  0  0  -0.093593  -0.158235  0  3.940277  0
C  C61  1  0.03081450  0.25645970  0.76126502  1  0  -0.139969  0  3.701089  0  0  -0.161096  0  3.952935  0  0  -0.165965  0  3.973587  0  0  -0.093576  -0.158165  0  3.94031  0
C  C62  1  0.53081334  0.24354063  0.76126414  1  0  -0.139957  0  3.701033  0  0  -0.161137  0  3.952879  0  0  -0.166003  0  3.973522  0  0  -0.093591  -0.158204  0  3.940248  0
C  C63  1  0.96918622  0.74354044  0.23873540  1  0  -0.139981  0  3.701049  0  0  -0.161107  0  3.95289  0  0  -0.165974  0  3.973537  0  0  -0.093588  -0.158179  0  3.940268  0
C  C64  1  0.58892367  0.70406192  0.01985946  1  0  0.166262  0  3.60086  0  0  0.108014  0  3.860295  0  0  0.122426  0  3.871123  0  0  0.139319  0.098954  0  3.852494  0
C  C65  1  0.91107816  0.20406292  0.98014141  1  0  0.166244  0  3.600849  0  0  0.108004  0  3.860298  0  0  0.122416  0  3.871127  0  0  0.139329  0.09894  0  3.852501  0
C  C66  1  0.41107817  0.29593726  0.98014119  1  0  0.166292  0  3.600807  0  0  0.108082  0  3.860262  0  0  0.122497  0  3.871087  0  0  0.139353  0.099022  0  3.852465  0
C  C67  1  0.08892031  0.79593818  0.01985676  1  0  0.16626  0  3.600891  0  0  0.108016  0  3.860323  0  0  0.122426  0  3.871153  0  0  0.139327  0.09896  0  3.852524  0
C  C68  1  0.69301492  0.52519790  0.10925412  1  0  -0.050219  0  3.672034  0  0  -0.086269  0  3.931558  0  0  -0.086456  0  3.951465  0  0  -0.00247  -0.086418  0  3.918642  0
C  C69  1  0.80698593  0.02519892  0.89074647  1  0  -0.050224  0  3.67193  0  0  -0.086282  0  3.931468  0  0  -0.086468  0  3.951367  0  0  -0.002476  -0.086436  0  3.918553  0
C  C70  1  0.30698469  0.47480129  0.89074695  1  0  -0.050151  0  3.67197  0  0  -0.086195  0  3.931489  0  0  -0.086379  0  3.951388  0  0  -0.002435  -0.086346  0  3.918574  0
C  C71  1  0.19301366  0.97480217  0.10925194  1  0  -0.050178  0  3.672032  0  0  -0.086226  0  3.931555  0  0  -0.08641  0  3.951449  0  0  -0.002444  -0.086372  0  3.918641  0
C  C72  1  0.73864942  0.54658866  0.00531094  1  0  0.00304  0  3.729945  0  0  -0.029107  0  3.983398  0  0  -0.027896  0  4.004883  0  0  -0.011866  -0.030414  0  3.96958  0
C  C73  1  0.76135142  0.04659072  0.99469054  1  0  0.003035  0  3.729869  0  0  -0.02907  0  3.983324  0  0  -0.027861  0  4.004816  0  0  -0.011846  -0.030377  0  3.969509  0
C  C74  1  0.26135131  0.45340957  0.99469037  1  0  0.002992  0  3.729921  0  0  -0.029112  0  3.983393  0  0  -0.027897  0  4.00488  0  0  -0.011869  -0.030417  0  3.969575  0
C  C75  1  0.23864706  0.95340942  0.00530852  1  0  0.003063  0  3.729889  0  0  -0.029048  0  3.983363  0  0  -0.027832  0  4.004849  0  0  -0.011849  -0.030353  0  3.969545  0
N  N76  1  0.17142900  0.57413128  0.49399939  1  0  -0.272712  0  3.250359  0  0  -0.22155  0  3.574279  0  0  -0.226447  0  3.574456  0  0  -0.264092  -0.219749  0  3.574544  0
N  N77  1  0.32857077  0.07413399  0.50599872  1  0  -0.272632  0  3.250326  0  0  -0.221465  0  3.574232  0  0  -0.226367  0  3.574421  0  0  -0.264045  -0.219656  0  3.574496  0
N  N78  1  0.82857285  0.42586599  0.50600215  1  0  -0.272732  0  3.250372  0  0  -0.221537  0  3.574276  0  0  -0.22643  0  3.574452  0  0  -0.264075  -0.219727  0  3.574532  0
N  N79  1  0.67142993  0.92586806  0.49399903  1  0  -0.272665  0  3.250525  0  0  -0.221496  0  3.57445  0  0  -0.226379  0  3.57461  0  0  -0.264069  -0.219691  0  3.5747  0
N  N80  1  0.59799272  0.62513914  0.11824089  1  0  -0.090655  0  3.600746  0  0  0.000732  0  3.802384  0  0  -0.015515  0  3.830687  0  0  -0.223274  0.01189  0  3.782961  0
N  N81  1  0.90200695  0.12513913  0.88176127  1  0  -0.090558  0  3.600641  0  0  0.000821  0  3.802284  0  0  -0.015424  0  3.83059  0  0  -0.223238  0.011985  0  3.782857  0
N  N82  1  0.40200689  0.37486005  0.88176018  1  0  -0.09068  0  3.600745  0  0  0.000697  0  3.802399  0  0  -0.015549  0  3.830702  0  0  -0.223289  0.011857  0  3.782973  0
N  N83  1  0.09799264  0.87486292  0.11823803  1  0  -0.090608  0  3.600716  0  0  0.000771  0  3.802367  0  0  -0.015474  0  3.830673  0  0  -0.223265  0.011923  0  3.782946  0
N  N84  1  0.28755619  0.75375824  0.56667075  1  0  -0.273291  0  3.219174  0  0  -0.224992  0  3.529784  0  0  -0.229077  0  3.532422  0  0  -0.263035  -0.223016  0  3.528189  0
N  N85  1  0.21244344  0.25376003  0.43332742  1  0  -0.273209  0  3.219268  0  0  -0.224926  0  3.529888  0  0  -0.229004  0  3.532516  0  0  -0.262993  -0.222937  0  3.528279  0
N  N86  1  0.71244341  0.24624094  0.43332855  1  0  -0.273308  0  3.21912  0  0  -0.225017  0  3.529769  0  0  -0.22909  0  3.532387  0  0  -0.263026  -0.223031  0  3.52815  0
N  N87  1  0.78755838  0.74624202  0.56667056  1  0  -0.273238  0  3.219241  0  0  -0.224935  0  3.529877  0  0  -0.22901  0  3.532503  0  0  -0.263003  -0.222958  0  3.528263  0
N  N88  1  0.12061960  0.61374934  0.58942357  1  0  -0.078952  0  3.199827  0  0  -0.045348  0  3.520167  0  0  -0.037356  0  3.516072  0  0  -0.15313  -0.051482  0  3.523302  0
N  N89  1  0.37938016  0.11374909  0.41057722  1  0  -0.079095  0  3.199785  0  0  -0.045502  0  3.520144  0  0  -0.037513  0  3.516054  0  0  -0.153207  -0.051649  0  3.523289  0
N  N90  1  0.87938113  0.38624985  0.41057774  1  0  -0.078947  0  3.199762  0  0  -0.045348  0  3.520089  0  0  -0.037365  0  3.516012  0  0  -0.153141  -0.051498  0  3.523246  0
N  N91  1  0.62062055  0.88625200  0.58942142  1  0  -0.078874  0  3.199773  0  0  -0.045226  0  3.520052  0  0  -0.037246  0  3.515979  0  0  -0.153081  -0.051371  0  3.523203  0
N  N92  1  0.19298225  0.72050185  0.63505785  1  0  -0.092635  0  3.302814  0  0  -0.03746  0  3.620364  0  0  -0.037044  0  3.617511  0  0  -0.17847  -0.038081  0  3.623075  0
N  N93  1  0.30701630  0.22050354  0.36494185  1  0  -0.092549  0  3.302777  0  0  -0.037364  0  3.620303  0  0  -0.036948  0  3.617456  0  0  -0.178442  -0.037998  0  3.62302  0
N  N94  1  0.80701733  0.27949924  0.36494055  1  0  -0.092594  0  3.302682  0  0  -0.037411  0  3.62023  0  0  -0.036997  0  3.61738  0  0  -0.178472  -0.038044  0  3.622953  0
N  N95  1  0.69298442  0.77949851  0.63505768  1  0  -0.092739  0  3.302825  0  0  -0.037574  0  3.620387  0  0  -0.03716  0  3.617538  0  0  -0.178508  -0.038192  0  3.623099  0
N  N96  1  0.67296773  0.65820098  0.94957828  1  0  -0.346086  0  3.405715  0  0  -0.263827  0  3.711388  0  0  -0.2793  0  3.719836  0  0  -0.395682  -0.253798  0  3.70581  0
N  N97  1  0.82703303  0.15820248  0.05042324  1  0  -0.346103  0  3.405652  0  0  -0.263882  0  3.711359  0  0  -0.279355  0  3.719802  0  0  -0.395748  -0.253868  0  3.705794  0
N  N98  1  0.32703413  0.34179725  0.05042415  1  0  -0.346116  0  3.405635  0  0  -0.263897  0  3.711339  0  0  -0.279369  0  3.719778  0  0  -0.395739  -0.253885  0  3.705773  0
N  N99  1  0.17296545  0.84179862  0.94957582  1  0  -0.346159  0  3.405736  0  0  -0.263913  0  3.711421  0  0  -0.279385  0  3.71986  0  0  -0.395736  -0.253894  0  3.705851  0
Cl  Cl100  1  0.06586056  0.42374533  0.19037173  1  0  -0.582983  0  1.231637  0  0  -0.519758  0  1.598952  0  0  -0.530808  0  1.566214  0  0  -0.311602  -0.51076  0  1.620475  0
Cl  Cl101  1  0.43414121  0.92374739  0.80962963  1  0  -0.582961  0  1.231596  0  0  -0.519736  0  1.598901  0  0  -0.53079  0  1.566171  0  0  -0.311593  -0.510736  0  1.620427  0
Cl  Cl102  1  0.93414241  0.57625195  0.80963004  1  0  -0.582983  0  1.231568  0  0  -0.519767  0  1.59888  0  0  -0.530808  0  1.56613  0  0  -0.311602  -0.510757  0  1.620396  0
Cl  Cl103  1  0.56585841  0.07625371  0.19037145  1  0  -0.582961  0  1.231587  0  0  -0.519742  0  1.598897  0  0  -0.530789  0  1.566164  0  0  -0.311595  -0.510734  0  1.620409  0
