# generated using pymatgen
data_GdH8C8NO9
_symmetry_space_group_name_H-M   'P 1'
_cell_length_a   7.30827136
_cell_length_b   8.93999707
_cell_length_c   10.45174787
_cell_angle_alpha   114.13884959
_cell_angle_beta   111.87647995
_cell_angle_gamma   94.26905447
_symmetry_Int_Tables_number   1
_chemical_formula_structural   GdH8C8NO9
_chemical_formula_sum   'Gd2 H16 C16 N2 O18'
_cell_volume   557.15925903
_cell_formula_units_Z   2
loop_
 _symmetry_equiv_pos_site_id
 _symmetry_equiv_pos_as_xyz
  1  'x, y, z'
loop_
 _atom_site_type_symbol
 _atom_site_label
 _atom_site_symmetry_multiplicity
 _atom_site_fract_x
 _atom_site_fract_y
 _atom_site_fract_z
 _atom_site_occupancy
 _atom_site_hle17_bader_spin_density
 _atom_site_hle17_ddec_charge
 _atom_site_hle17_ddec_spin_density
 _atom_site_hle17_ddec_sum_bond_order
 _atom_site_hle17_magmom
 _atom_site_hse06_10hf_bader_spin_density
 _atom_site_hse06_10hf_ddec_charge
 _atom_site_hse06_10hf_ddec_spin_density
 _atom_site_hse06_10hf_ddec_sum_bond_order
 _atom_site_hse06_10hf_magmom
 _atom_site_hse06_bader_spin_density
 _atom_site_hse06_ddec_charge
 _atom_site_hse06_ddec_spin_density
 _atom_site_hse06_ddec_sum_bond_order
 _atom_site_hse06_magmom
 _atom_site_pbe_bader_spin_density
 _atom_site_pbe_cm5_charge
 _atom_site_pbe_ddec_charge
 _atom_site_pbe_ddec_spin_density
 _atom_site_pbe_ddec_sum_bond_order
 _atom_site_pbe_magmom
Gd  Gd0  1  0.09336841  0.15295921  0.85915578  1  0  2.176125  0  1.772576  0  0  2.090748  0  2.125733  0  0  2.141992  0  2.072026  0  0  1.445581  2.051217  0  2.168191  0
Gd  Gd1  1  0.90663241  0.84704254  0.14084344  1  0  2.176069  0  1.772684  0  0  2.090809  0  2.125666  0  0  2.142002  0  2.072029  0  0  1.44552  2.051252  0  2.168174  0
H  H2  1  0.43732350  0.39948098  0.77090632  1  0  0.15339  0  0.96138  0  0  0.159276  0  1.022013  0  0  0.164338  0  1.019559  0  0  0.119746  0.155648  0  1.02407  0
H  H3  1  0.56266429  0.60051593  0.22909395  1  0  0.153433  0  0.96132  0  0  0.159285  0  1.022  0  0  0.164346  0  1.019547  0  0  0.119754  0.155657  0  1.024059  0
H  H4  1  0.37317402  0.18812536  0.49985576  1  0  0.104162  0  0.921616  0  0  0.117616  0  0.974734  0  0  0.120875  0  0.971646  0  0  0.116885  0.115121  0  0.977168  0
H  H5  1  0.62681020  0.81186912  0.50014572  1  0  0.104115  0  0.921675  0  0  0.117594  0  0.974778  0  0  0.120847  0  0.97169  0  0  0.116914  0.115105  0  0.977208  0
H  H6  1  0.14503940  0.54165842  0.33842852  1  0  0.113894  0  0.921174  0  0  0.12272  0  0.983191  0  0  0.126385  0  0.978979  0  0  0.136023  0.119905  0  0.986378  0
H  H7  1  0.85496038  0.45833461  0.66157326  1  0  0.113921  0  0.921105  0  0  0.122735  0  0.983139  0  0  0.1264  0  0.978927  0  0  0.135991  0.119924  0  0.986322  0
H  H8  1  0.20337875  0.72739944  0.59424878  1  0  0.317166  0  0.895615  0  0  0.29541  0  0.958755  0  0  0.305646  0  0.950328  0  0  0.31423  0.288089  0  0.964908  0
H  H9  1  0.79661836  0.27259981  0.40574968  1  0  0.317203  0  0.895664  0  0  0.295445  0  0.958807  0  0  0.305681  0  0.950376  0  0  0.314247  0.288159  0  0.964909  0
H  H10  1  0.50466005  0.16802217  0.82613198  1  0  0.455006  0  0.793951  0  0  0.436107  0  0.846536  0  0  0.445129  0  0.836348  0  0  0.331164  0.429538  0  0.854085  0
H  H11  1  0.49535757  0.83198087  0.17387450  1  0  0.454961  0  0.793946  0  0  0.436045  0  0.84657  0  0  0.445067  0  0.836381  0  0  0.331131  0.429472  0  0.854131  0
H  H12  1  0.52715216  0.29316678  0.99013427  1  0  0.448656  0  0.845244  0  0  0.415666  0  0.911843  0  0  0.427371  0  0.894666  0  0  0.309602  0.407381  0  0.924008  0
H  H13  1  0.47285209  0.70683126  0.00986834  1  0  0.448612  0  0.8453  0  0  0.415605  0  0.911929  0  0  0.42731  0  0.894753  0  0  0.309566  0.407322  0  0.924087  0
H  H14  1  0.28491874  0.86889237  0.89663675  1  0  0.452292  0  0.845863  0  0  0.419248  0  0.911114  0  0  0.430971  0  0.894086  0  0  0.302309  0.410911  0  0.923211  0
H  H15  1  0.71508081  0.13110948  0.10336509  1  0  0.452223  0  0.845948  0  0  0.419177  0  0.911209  0  0  0.430901  0  0.894179  0  0  0.302287  0.410839  0  0.923306  0
H  H16  1  0.23512160  0.98042488  0.04120553  1  0  0.431209  0  0.871727  0  0  0.400649  0  0.935652  0  0  0.411942  0  0.918923  0  0  0.304005  0.392605  0  0.947532  0
H  H17  1  0.76487621  0.01957685  0.95879203  1  0  0.431204  0  0.871729  0  0  0.40063  0  0.935676  0  0  0.411923  0  0.918947  0  0  0.304003  0.392589  0  0.947552  0
C  C18  1  0.31817879  0.58050400  0.70012407  1  0  0.567744  0  3.816259  0  0  0.520917  0  4.099765  0  0  0.549173  0  4.103005  0  0  0.233765  0.502314  0  4.096769  0
C  C19  1  0.68181539  0.41949028  0.29987489  1  0  0.567724  0  3.816256  0  0  0.520924  0  4.099739  0  0  0.549199  0  4.102957  0  0  0.233754  0.502335  0  4.096727  0
C  C20  1  0.37224207  0.42392945  0.67159803  1  0  -0.234005  0  3.650741  0  0  -0.251864  0  3.913864  0  0  -0.265301  0  3.931536  0  0  -0.09062  -0.243432  0  3.902283  0
C  C21  1  0.62775426  0.57607121  0.32840456  1  0  -0.234027  0  3.650665  0  0  -0.251869  0  3.913814  0  0  -0.265304  0  3.931475  0  0  -0.090596  -0.243441  0  3.90223  0
C  C22  1  0.33579503  0.30959858  0.52328005  1  0  0.016222  0  3.732226  0  0  -0.016193  0  3.991496  0  0  -0.007518  0  4.008262  0  0  -0.061843  -0.021609  0  3.98014  0
C  C23  1  0.66419563  0.69039829  0.47671992  1  0  0.016249  0  3.732277  0  0  -0.016221  0  3.991591  0  0  -0.007539  0  4.008348  0  0  -0.061887  -0.021641  0  3.980244  0
C  C24  1  0.24969798  0.34542276  0.39612133  1  0  -0.175888  0  3.790097  0  0  -0.159066  0  4.048714  0  0  -0.176006  0  4.073958  0  0  -0.032623  -0.148221  0  4.031711  0
C  C25  1  0.75029597  0.65457533  0.60387887  1  0  -0.175818  0  3.789969  0  0  -0.158933  0  4.048527  0  0  -0.175874  0  4.073769  0  0  -0.032612  -0.148089  0  4.031531  0
C  C26  1  0.20851589  0.50133958  0.42722896  1  0  0.1628  0  3.63035  0  0  0.108246  0  3.89324  0  0  0.12188  0  3.906959  0  0  0.065088  0.099726  0  3.883608  0
C  C27  1  0.79148347  0.49865718  0.57277110  1  0  0.162649  0  3.630332  0  0  0.108096  0  3.893212  0  0  0.121736  0  3.90693  0  0  0.065052  0.099567  0  3.883592  0
C  C28  1  0.19830069  0.21699458  0.23393488  1  0  0.718469  0  3.866461  0  0  0.667072  0  4.165573  0  0  0.703764  0  4.155128  0  0  0.231118  0.642144  0  4.171747  0
C  C29  1  0.80170852  0.78301085  0.76606469  1  0  0.718441  0  3.866433  0  0  0.667021  0  4.165563  0  0  0.703712  0  4.155126  0  0  0.231144  0.642092  0  4.17174  0
C  C30  1  0.11110790  0.54605598  0.02430309  1  0  0.565411  0  3.912984  0  0  0.521247  0  4.219403  0  0  0.551471  0  4.210017  0  0  0.219125  0.500833  0  4.224513  0
C  C31  1  0.88889282  0.45393287  0.97568695  1  0  0.565206  0  3.913233  0  0  0.521121  0  4.219563  0  0  0.551347  0  4.210174  0  0  0.21905  0.500709  0  4.224656  0
C  C32  1  0.05289502  0.92860205  0.50292887  1  0  0.548376  0  3.945218  0  0  0.505919  0  4.250684  0  0  0.534829  0  4.243565  0  0  0.215955  0.486248  0  4.254645  0
C  C33  1  0.94709952  0.07141133  0.49707665  1  0  0.548357  0  3.945221  0  0  0.505801  0  4.250806  0  0  0.534723  0  4.243671  0  0  0.21589  0.486129  0  4.254772  0
N  N34  1  0.24211270  0.61260593  0.57359086  1  0  -0.355196  0  3.357263  0  0  -0.284352  0  3.590776  0  0  -0.306017  0  3.60041  0  0  -0.362679  -0.269912  0  3.58384  0
N  N35  1  0.75788645  0.38739074  0.42640625  1  0  -0.355172  0  3.35735  0  0  -0.284341  0  3.590874  0  0  -0.30601  0  3.600495  0  0  -0.362663  -0.269928  0  3.583917  0
O  O36  1  0.16621916  0.26402512  0.13059798  1  0  -0.694943  0  2.036405  0  0  -0.652312  0  2.286372  0  0  -0.679033  0  2.27856  0  0  -0.368143  -0.633723  0  2.291544  0
O  O37  1  0.83379469  0.73597539  0.86940675  1  0  -0.694943  0  2.036188  0  0  -0.65237  0  2.286213  0  0  -0.679084  0  2.278406  0  0  -0.368171  -0.633776  0  2.291389  0
O  O38  1  0.42574292  0.22852799  0.87717121  1  0  -0.892718  0  1.898404  0  0  -0.855368  0  2.102686  0  0  -0.874262  0  2.072898  0  0  -0.640241  -0.84161  0  2.123702  0
O  O39  1  0.57426674  0.77146872  0.12283126  1  0  -0.892622  0  1.898482  0  0  -0.855259  0  2.102728  0  0  -0.874148  0  2.072954  0  0  -0.640157  -0.841488  0  2.123749  0
O  O40  1  0.18914132  0.06136662  0.20792759  1  0  -0.760097  0  2.032621  0  0  -0.709241  0  2.277384  0  0  -0.73503  0  2.26258  0  0  -0.395322  -0.690579  0  2.287097  0
O  O41  1  0.81085824  0.93863132  0.79207005  1  0  -0.76004  0  2.032721  0  0  -0.709142  0  2.277481  0  0  -0.734938  0  2.262674  0  0  -0.395305  -0.690485  0  2.287195  0
O  O42  1  0.25428491  0.97806208  0.95152741  1  0  -0.937387  0  1.917741  0  0  -0.897007  0  2.121197  0  0  -0.916645  0  2.086893  0  0  -0.672464  -0.882659  0  2.145432  0
O  O43  1  0.74572081  0.02194095  0.04847436  1  0  -0.937297  0  1.917788  0  0  -0.896918  0  2.12124  0  0  -0.916546  0  2.086939  0  0  -0.672428  -0.882569  0  2.145478  0
O  O44  1  0.33427707  0.68838843  0.83089834  1  0  -0.594701  0  2.037487  0  0  -0.52962  0  2.252922  0  0  -0.554618  0  2.244746  0  0  -0.282989  -0.512389  0  2.258102  0
O  O45  1  0.66572703  0.31161455  0.16910111  1  0  -0.594685  0  2.037502  0  0  -0.529627  0  2.252943  0  0  -0.554644  0  2.244769  0  0  -0.282998  -0.512395  0  2.258117  0
O  O46  1  0.21767403  0.45365834  0.97555833  1  0  -0.635609  0  2.053867  0  0  -0.595754  0  2.3001  0  0  -0.6198  0  2.291825  0  0  -0.36893  -0.578582  0  2.305346  0
O  O47  1  0.78231854  0.54634195  0.02443175  1  0  -0.63557  0  2.053706  0  0  -0.595768  0  2.299939  0  0  -0.61981  0  2.291665  0  0  -0.368898  -0.578592  0  2.305178  0
O  O48  1  0.11821042  0.92241578  0.63112461  1  0  -0.640312  0  2.064001  0  0  -0.593323  0  2.295318  0  0  -0.617977  0  2.288855  0  0  -0.335327  -0.575684  0  2.299411  0
O  O49  1  0.88177520  0.07758974  0.36886848  1  0  -0.640444  0  2.063781  0  0  -0.593387  0  2.295068  0  0  -0.618036  0  2.288596  0  0  -0.335352  -0.575762  0  2.299181  0
O  O50  1  0.06602169  0.82972109  0.38091966  1  0  -0.650943  0  2.028838  0  0  -0.617655  0  2.270768  0  0  -0.640828  0  2.26283  0  0  -0.362486  -0.601212  0  2.276053  0
O  O51  1  0.93398317  0.17028940  0.61907868  1  0  -0.650922  0  2.029086  0  0  -0.617588  0  2.271061  0  0  -0.640771  0  2.263115  0  0  -0.362457  -0.60115  0  2.276349  0
O  O52  1  0.16720559  0.70658664  0.10895915  1  0  -0.658998  0  2.029151  0  0  -0.618995  0  2.268283  0  0  -0.642625  0  2.258016  0  0  -0.370852  -0.601967  0  2.274832  0
O  O53  1  0.83280084  0.29341387  0.89104289  1  0  -0.658946  0  2.029559  0  0  -0.618962  0  2.268679  0  0  -0.642595  0  2.258408  0  0  -0.370859  -0.601936  0  2.275213  0
