# generated using pymatgen
data_CdH20C20(NO)4
_symmetry_space_group_name_H-M   'P 1'
_cell_length_a   7.83789835
_cell_length_b   10.34772912
_cell_length_c   13.59417719
_cell_angle_alpha   91.84132367
_cell_angle_beta   91.00387507
_cell_angle_gamma   99.01715662
_symmetry_Int_Tables_number   1
_chemical_formula_structural   CdH20C20(NO)4
_chemical_formula_sum   'Cd2 H40 C40 N8 O8'
_cell_volume   1088.07592059
_cell_formula_units_Z   2
loop_
 _symmetry_equiv_pos_site_id
 _symmetry_equiv_pos_as_xyz
  1  'x, y, z'
loop_
 _atom_site_type_symbol
 _atom_site_label
 _atom_site_symmetry_multiplicity
 _atom_site_fract_x
 _atom_site_fract_y
 _atom_site_fract_z
 _atom_site_occupancy
 _atom_site_hle17_bader_spin_density
 _atom_site_hle17_ddec_charge
 _atom_site_hle17_ddec_spin_density
 _atom_site_hle17_ddec_sum_bond_order
 _atom_site_hle17_magmom
 _atom_site_hse06_10hf_bader_spin_density
 _atom_site_hse06_10hf_ddec_charge
 _atom_site_hse06_10hf_ddec_spin_density
 _atom_site_hse06_10hf_ddec_sum_bond_order
 _atom_site_hse06_10hf_magmom
 _atom_site_hse06_bader_spin_density
 _atom_site_hse06_ddec_charge
 _atom_site_hse06_ddec_spin_density
 _atom_site_hse06_ddec_sum_bond_order
 _atom_site_hse06_magmom
 _atom_site_pbe_bader_spin_density
 _atom_site_pbe_cm5_charge
 _atom_site_pbe_ddec_charge
 _atom_site_pbe_ddec_spin_density
 _atom_site_pbe_ddec_sum_bond_order
 _atom_site_pbe_magmom
Cd  Cd0  1  0.54706380  0.42033029  0.27390705  1  0  1.073686  0  1.695919  0  0  0.882092  0  2.137835  0  0  0.941179  0  2.087541  0  0  0.758454  0.840804  0  2.171292  0
Cd  Cd1  1  0.45292974  0.57966861  0.72608305  1  0  1.073613  0  1.695969  0  0  0.881997  0  2.137927  0  0  0.941085  0  2.087629  0  0  0.75842  0.840712  0  2.171387  0
H  H2  1  0.03686354  0.83196420  0.38928535  1  0  0.08723  0  0.962472  0  0  0.101444  0  1.022718  0  0  0.104381  0  1.021082  0  0  0.103014  0.099603  0  1.023242  0
H  H3  1  0.96312822  0.16802295  0.61072251  1  0  0.08724  0  0.962488  0  0  0.101429  0  1.022757  0  0  0.104365  0  1.02112  0  0  0.103023  0.099591  0  1.023278  0
H  H4  1  0.06548165  0.69584360  0.68477978  1  0  0.108045  0  0.93828  0  0  0.121455  0  0.994707  0  0  0.124816  0  0.992476  0  0  0.107564  0.118915  0  0.996819  0
H  H5  1  0.93449312  0.30415342  0.31522077  1  0  0.108058  0  0.938343  0  0  0.121398  0  0.994852  0  0  0.124759  0  0.992619  0  0  0.107539  0.118856  0  0.996967  0
H  H6  1  0.27417959  0.88888520  0.73082566  1  0  0.101634  0  0.962829  0  0  0.109528  0  1.026416  0  0  0.112484  0  1.025013  0  0  0.102286  0.107283  0  1.027502  0
H  H7  1  0.72580577  0.11110790  0.26917865  1  0  0.101677  0  0.962948  0  0  0.109569  0  1.026494  0  0  0.112523  0  1.025094  0  0  0.102267  0.107325  0  1.027576  0
H  H8  1  0.36520792  0.06132560  0.61027092  1  0  0.094864  0  0.951686  0  0  0.10801  0  1.010595  0  0  0.11058  0  1.009968  0  0  0.102085  0.106015  0  1.011633  0
H  H9  1  0.63479236  0.93867506  0.38974302  1  0  0.094799  0  0.951742  0  0  0.107977  0  1.010641  0  0  0.110538  0  1.010008  0  0  0.102069  0.105983  0  1.011676  0
H  H10  1  0.23967270  0.18221896  0.20047056  1  0  0.111832  0  0.927982  0  0  0.122081  0  0.984046  0  0  0.125276  0  0.980314  0  0  0.145556  0.119772  0  0.986564  0
H  H11  1  0.76034678  0.81775892  0.79953682  1  0  0.111795  0  0.927803  0  0  0.122112  0  0.983785  0  0  0.12531  0  0.98005  0  0  0.145554  0.119804  0  0.986302  0
H  H12  1  0.45953249  0.21248619  0.48665015  1  0  0.101112  0  0.954982  0  0  0.114589  0  1.010946  0  0  0.116418  0  1.010609  0  0  0.117974  0.113104  0  1.011636  0
H  H13  1  0.54045896  0.78752737  0.51335760  1  0  0.101078  0  0.95486  0  0  0.114553  0  1.010837  0  0  0.116383  0  1.010499  0  0  0.117961  0.113064  0  1.01153  0
H  H14  1  0.62677462  0.37979587  0.53682201  1  0  0.086926  0  0.950233  0  0  0.097836  0  1.011496  0  0  0.099934  0  1.009241  0  0  0.133674  0.095929  0  1.013812  0
H  H15  1  0.37320830  0.62020005  0.46316544  1  0  0.08698  0  0.950151  0  0  0.097911  0  1.011393  0  0  0.100007  0  1.009141  0  0  0.13366  0.096003  0  1.013708  0
H  H16  1  0.85043670  0.65849893  0.33904133  1  0  0.118613  0  0.952003  0  0  0.127895  0  1.012047  0  0  0.131217  0  1.009167  0  0  0.119814  0.12538  0  1.014509  0
H  H17  1  0.14955345  0.34150607  0.66096152  1  0  0.118619  0  0.952091  0  0  0.127891  0  1.012128  0  0  0.13121  0  1.009258  0  0  0.119812  0.125378  0  1.014593  0
H  H18  1  0.64113197  0.16274563  0.71658115  1  0  0.054327  0  0.940406  0  0  0.063928  0  1.006209  0  0  0.065683  0  1.006098  0  0  0.087834  0.062731  0  1.006288  0
H  H19  1  0.35887107  0.83726488  0.28341423  1  0  0.054317  0  0.940333  0  0  0.063932  0  1.006162  0  0  0.06569  0  1.006049  0  0  0.087846  0.062747  0  1.006225  0
H  H20  1  0.83329300  0.14734576  0.86061955  1  0  0.046049  0  0.93474  0  0  0.063447  0  0.999036  0  0  0.064633  0  0.998648  0  0  0.078695  0.062524  0  0.999349  0
H  H21  1  0.16672057  0.85267371  0.13937658  1  0  0.046029  0  0.93479  0  0  0.063389  0  0.999157  0  0  0.064574  0  0.998769  0  0  0.078698  0.062465  0  0.999476  0
H  H22  1  0.88332694  0.30427379  0.80867949  1  0  0.07289  0  0.934611  0  0  0.089872  0  0.994993  0  0  0.091879  0  0.993805  0  0  0.088152  0.088332  0  0.996008  0
H  H23  1  0.11667729  0.69574272  0.19131403  1  0  0.072744  0  0.934792  0  0  0.08982  0  0.995103  0  0  0.091827  0  0.993916  0  0  0.08811  0.088298  0  0.996098  0
H  H24  1  0.71127426  0.39943481  0.93713983  1  0  0.084843  0  0.913734  0  0  0.106229  0  0.96553  0  0  0.10708  0  0.966193  0  0  0.097521  0.105589  0  0.965061  0
H  H25  1  0.28873193  0.60057104  0.06285245  1  0  0.084826  0  0.913735  0  0  0.10623  0  0.965522  0  0  0.107048  0  0.966227  0  0  0.097552  0.105583  0  0.965051  0
H  H26  1  0.87459002  0.32463537  0.99278059  1  0  0.081003  0  0.920375  0  0  0.0995  0  0.974617  0  0  0.101127  0  0.974256  0  0  0.09466  0.098275  0  0.974971  0
H  H27  1  0.12541976  0.67537802  0.00721806  1  0  0.081016  0  0.920366  0  0  0.099507  0  0.974631  0  0  0.101118  0  0.974283  0  0  0.094644  0.098278  0  0.974992  0
H  H28  1  0.67060050  0.12812610  0.02542385  1  0  0.061638  0  0.922258  0  0  0.075787  0  0.978955  0  0  0.07681  0  0.979366  0  0  0.094694  0.074973  0  0.978823  0
H  H29  1  0.32942297  0.87186848  0.97456536  1  0  0.061575  0  0.922223  0  0  0.075698  0  0.978996  0  0  0.076713  0  0.979415  0  0  0.094644  0.074884  0  0.978866  0
H  H30  1  0.38438344  0.26367067  0.93810076  1  0  0.090998  0  0.934049  0  0  0.107171  0  0.992165  0  0  0.109489  0  0.990713  0  0  0.093385  0.10544  0  0.993266  0
H  H31  1  0.61562518  0.73632823  0.06189417  1  0  0.090949  0  0.934036  0  0  0.107054  0  0.992208  0  0  0.109371  0  0.990759  0  0  0.093347  0.105322  0  0.993308  0
H  H32  1  0.35831230  0.10575576  0.98538285  1  0  0.054279  0  0.9418  0  0  0.070324  0  1.006877  0  0  0.071383  0  1.00645  0  0  0.08105  0.069589  0  1.007076  0
H  H33  1  0.64170439  0.89424608  0.01461465  1  0  0.054329  0  0.941865  0  0  0.070362  0  1.006915  0  0  0.071421  0  1.006487  0  0  0.081069  0.069625  0  1.007113  0
H  H34  1  0.35601362  0.10421777  0.80044688  1  0  0.061053  0  0.94661  0  0  0.078471  0  1.009758  0  0  0.07994  0  1.008888  0  0  0.083325  0.077364  0  1.010494  0
H  H35  1  0.64400670  0.89577624  0.19955179  1  0  0.061101  0  0.946569  0  0  0.078465  0  1.009767  0  0  0.079942  0  1.008902  0  0  0.083313  0.077359  0  1.010503  0
H  H36  1  0.52256341  0.02522049  0.84846204  1  0  0.054071  0  0.938348  0  0  0.071488  0  1.004788  0  0  0.071778  0  1.005735  0  0  0.080673  0.071278  0  1.003999  0
H  H37  1  0.47745044  0.97478712  0.15153643  1  0  0.054039  0  0.938305  0  0  0.071456  0  1.004739  0  0  0.071751  0  1.005696  0  0  0.080695  0.071247  0  1.003954  0
H  H38  1  0.09933129  0.98346174  0.29371951  1  0  0.303154  0  0.863314  0  0  0.296894  0  0.905611  0  0  0.302547  0  0.902494  0  0  0.34072  0.292945  0  0.90786  0
H  H39  1  0.90069450  0.01652745  0.70627979  1  0  0.303171  0  0.863039  0  0  0.296875  0  0.905405  0  0  0.302556  0  0.902253  0  0  0.340689  0.2929  0  0.9077  0
H  H40  1  0.83310375  0.53611950  0.63485093  1  0  0.328597  0  0.867071  0  0  0.312807  0  0.92302  0  0  0.320596  0  0.916337  0  0  0.331097  0.30729  0  0.927852  0
H  H41  1  0.16686857  0.46386988  0.36514547  1  0  0.328704  0  0.866981  0  0  0.312914  0  0.922949  0  0  0.320703  0  0.916265  0  0  0.331115  0.307399  0  0.927778  0
C  C42  1  0.20873819  0.95840443  0.49006126  1  0  0.028693  0  3.87305  0  0  0.04415  0  4.112501  0  0  0.045024  0  4.136058  0  0  -0.013919  0.043714  0  4.095926  0
C  C43  1  0.79126124  0.04158890  0.50994344  1  0  0.028662  0  3.873297  0  0  0.044152  0  4.112779  0  0  0.045023  0  4.136335  0  0  -0.013914  0.043714  0  4.096203  0
C  C44  1  0.09013188  0.84649268  0.46414374  1  0  -0.154251  0  3.712067  0  0  -0.185596  0  3.963011  0  0  -0.189263  0  3.983258  0  0  -0.093665  -0.181145  0  3.947517  0
C  C45  1  0.90986986  0.15349881  0.53585945  1  0  -0.154313  0  3.712216  0  0  -0.185617  0  3.963094  0  0  -0.189291  0  3.983365  0  0  -0.093697  -0.181166  0  3.947598  0
C  C46  1  0.03245388  0.75181750  0.53298695  1  0  0.037212  0  3.851835  0  0  0.05493  0  4.088288  0  0  0.055803  0  4.112074  0  0  -0.010299  0.054513  0  4.071523  0
C  C47  1  0.96753589  0.24817782  0.46701392  1  0  0.037077  0  3.851729  0  0  0.054878  0  4.088169  0  0  0.055736  0  4.111955  0  0  -0.010312  0.05446  0  4.071401  0
C  C48  1  0.10146467  0.76846910  0.62942187  1  0  -0.108656  0  3.714483  0  0  -0.137236  0  3.973439  0  0  -0.139628  0  3.992838  0  0  -0.094498  -0.136911  0  3.960684  0
C  C49  1  0.89852002  0.23153304  0.37057773  1  0  -0.108521  0  3.714531  0  0  -0.137061  0  3.973445  0  0  -0.139446  0  3.99284  0  0  -0.094457  -0.136738  0  3.960689  0
C  C50  1  0.22082965  0.87954183  0.65594520  1  0  -0.065865  0  3.786774  0  0  -0.080107  0  4.045344  0  0  -0.080924  0  4.065786  0  0  -0.094368  -0.07862  0  4.031528  0
C  C51  1  0.77914854  0.12046177  0.34406167  1  0  -0.066014  0  3.787048  0  0  -0.080216  0  4.045579  0  0  -0.081028  0  4.066007  0  0  -0.094268  -0.078733  0  4.031761  0
C  C52  1  0.27307280  0.97475747  0.58795975  1  0  -0.119439  0  3.73877  0  0  -0.14228  0  3.991241  0  0  -0.145313  0  4.012416  0  0  -0.095852  -0.141596  0  3.977827  0
C  C53  1  0.72692110  0.02524832  0.41204766  1  0  -0.119376  0  3.739041  0  0  -0.142284  0  3.991565  0  0  -0.145299  0  4.012726  0  0  -0.095937  -0.141599  0  3.978142  0
C  C54  1  0.26743668  0.16015944  0.27608709  1  0  0.225919  0  3.66132  0  0  0.166187  0  3.935266  0  0  0.180066  0  3.948086  0  0  0.150433  0.157572  0  3.925876  0
C  C55  1  0.73255984  0.83983271  0.72392042  1  0  0.225864  0  3.661115  0  0  0.166085  0  3.93505  0  0  0.179956  0  3.947882  0  0  0.150464  0.15747  0  3.925657  0
C  C56  1  0.37750086  0.17289613  0.42456121  1  0  -0.028124  0  3.709127  0  0  -0.068058  0  3.977999  0  0  -0.066469  0  3.998934  0  0  0.004757  -0.068884  0  3.963552  0
C  C57  1  0.62250338  0.82709617  0.57544578  1  0  -0.028082  0  3.708988  0  0  -0.067975  0  3.977886  0  0  -0.066384  0  3.998822  0  0  0.004756  -0.068797  0  3.963434  0
C  C58  1  0.26141976  0.05729299  0.41825260  1  0  0.117476  0  3.774595  0  0  0.107075  0  4.031618  0  0  0.109553  0  4.053709  0  0  0.085037  0.105448  0  4.016272  0
C  C59  1  0.73858505  0.94270229  0.58175382  1  0  0.117485  0  3.77455  0  0  0.106994  0  4.031679  0  0  0.109465  0  4.053778  0  0  0.085099  0.105373  0  4.016325  0
C  C60  1  0.70677695  0.46215362  0.50549436  1  0  0.230047  0  3.699673  0  0  0.165575  0  3.980764  0  0  0.179637  0  3.994528  0  0  0.142222  0.15606  0  3.971541  0
C  C61  1  0.29320644  0.53783996  0.49450034  1  0  0.230073  0  3.699569  0  0  0.16561  0  3.980638  0  0  0.179672  0  3.994405  0  0  0.142325  0.156095  0  3.971416  0
C  C62  1  0.82873410  0.60918469  0.40786213  1  0  -0.045175  0  3.68997  0  0  -0.08572  0  3.956028  0  0  -0.084207  0  3.975629  0  0  -0.001688  -0.086902  0  3.943689  0
C  C63  1  0.17125357  0.39081099  0.59213133  1  0  -0.045432  0  3.690167  0  0  -0.085901  0  3.956293  0  0  -0.084398  0  3.975887  0  0  -0.001761  -0.087088  0  3.943962  0
C  C64  1  0.90252505  0.64179544  0.50065867  1  0  0.122671  0  3.773162  0  0  0.110458  0  4.028301  0  0  0.112988  0  4.051187  0  0  0.082167  0.108996  0  4.012739  0
C  C65  1  0.09746187  0.35819793  0.49934127  1  0  0.123014  0  3.773228  0  0  0.110612  0  4.028574  0  0  0.113169  0  4.051429  0  0  0.082141  0.109153  0  4.013011  0
C  C66  1  0.61553313  0.21160852  0.78706062  1  0  -0.116727  0  3.648239  0  0  -0.11429  0  3.89177  0  0  -0.120504  0  3.907135  0  0  -0.094489  -0.110154  0  3.881236  0
C  C67  1  0.38447930  0.78840500  0.21293664  1  0  -0.116543  0  3.647942  0  0  -0.114207  0  3.891652  0  0  -0.120409  0  3.907023  0  0  -0.094464  -0.110077  0  3.881126  0
C  C68  1  0.78468302  0.24043404  0.84865864  1  0  -0.10816  0  3.68541  0  0  -0.15411  0  3.949416  0  0  -0.154586  0  3.963405  0  0  -0.165474  -0.153613  0  3.939823  0
C  C69  1  0.21532363  0.75958239  0.15133714  1  0  -0.107888  0  3.685463  0  0  -0.153903  0  3.949573  0  0  -0.154374  0  3.963551  0  0  -0.165381  -0.153419  0  3.939977  0
C  C70  1  0.75417711  0.30433857  0.94854370  1  0  -0.116049  0  3.638195  0  0  -0.156515  0  3.89072  0  0  -0.157651  0  3.90508  0  0  -0.159107  -0.15559  0  3.880796  0
C  C71  1  0.24582880  0.69566785  0.05145596  1  0  -0.116107  0  3.638355  0  0  -0.156581  0  3.890956  0  0  -0.157681  0  3.90531  0  0  -0.159104  -0.15564  0  3.881024  0
C  C72  1  0.61591130  0.21650451  0.00634964  1  0  -0.106187  0  3.636782  0  0  -0.105606  0  3.879544  0  0  -0.111802  0  3.895243  0  0  -0.090319  -0.101374  0  3.8687  0
C  C73  1  0.38409947  0.78349407  0.99365196  1  0  -0.106029  0  3.636989  0  0  -0.105465  0  3.87974  0  0  -0.111648  0  3.895428  0  0  -0.090353  -0.101231  0  3.868889  0
C  C74  1  0.44822762  0.17722975  0.94547953  1  0  -0.125546  0  3.680145  0  0  -0.169641  0  3.939416  0  0  -0.170277  0  3.953031  0  0  -0.173388  -0.169074  0  3.930083  0
C  C75  1  0.55178413  0.82277217  0.05451490  1  0  -0.125622  0  3.680346  0  0  -0.169593  0  3.939457  0  0  -0.170219  0  3.953079  0  0  -0.173348  -0.169023  0  3.930124  0
C  C76  1  0.47877691  0.12114819  0.84274683  1  0  -0.108694  0  3.679467  0  0  -0.155099  0  3.941854  0  0  -0.155245  0  3.956113  0  0  -0.168852  -0.154864  0  3.931981  0
C  C77  1  0.52123823  0.87885861  0.15724868  1  0  -0.108716  0  3.679534  0  0  -0.155069  0  3.941887  0  0  -0.15525  0  3.956192  0  0  -0.168866  -0.154849  0  3.93204  0
C  C78  1  0.55688516  0.34041926  0.75870035  1  0  0.65389  0  3.846408  0  0  0.60817  0  4.141482  0  0  0.641035  0  4.137381  0  0  0.194584  0.585815  0  4.143515  0
C  C79  1  0.44311369  0.65959005  0.24129780  1  0  0.653829  0  3.846504  0  0  0.608148  0  4.141586  0  0  0.641014  0  4.137483  0  0  0.194619  0.585792  0  4.14362  0
C  C80  1  0.58689077  0.28716038  0.10323315  1  0  0.644655  0  3.861005  0  0  0.596604  0  4.161117  0  0  0.629985  0  4.157119  0  0  0.18897  0.57408  0  4.162648  0
C  C81  1  0.41311603  0.71283802  0.89677054  1  0  0.644419  0  3.861305  0  0  0.596391  0  4.161391  0  0  0.629771  0  4.157397  0  0  0.18889  0.573871  0  4.162916  0
N  N82  1  0.19543024  0.05183509  0.32254948  1  0  -0.322505  0  3.456261  0  0  -0.264212  0  3.693583  0  0  -0.279966  0  3.709154  0  0  -0.376971  -0.253861  0  3.682948  0
N  N83  1  0.80457130  0.94815705  0.67745964  1  0  -0.322449  0  3.455997  0  0  -0.264112  0  3.693354  0  0  -0.27988  0  3.70891  0  0  -0.376982  -0.253745  0  3.682752  0
N  N84  1  0.37966916  0.23528050  0.33666809  1  0  -0.38218  0  3.235506  0  0  -0.308909  0  3.522333  0  0  -0.329899  0  3.54067  0  0  -0.352097  -0.294463  0  3.508797  0
N  N85  1  0.62031972  0.76471237  0.66334146  1  0  -0.38209  0  3.235615  0  0  -0.30883  0  3.522482  0  0  -0.329816  0  3.540803  0  0  -0.352097  -0.294382  0  3.508949  0
N  N86  1  0.82194526  0.54619652  0.56056603  1  0  -0.326292  0  3.449202  0  0  -0.264677  0  3.687049  0  0  -0.280483  0  3.701429  0  0  -0.374726  -0.253983  0  3.677241  0
N  N87  1  0.17803628  0.45379488  0.43943220  1  0  -0.32645  0  3.449294  0  0  -0.264813  0  3.687217  0  0  -0.280629  0  3.701597  0  0  -0.374707  -0.25411  0  3.677383  0
N  N88  1  0.70825057  0.49761911  0.41211426  1  0  -0.396578  0  3.275503  0  0  -0.317391  0  3.562635  0  0  -0.339909  0  3.581529  0  0  -0.361489  -0.302263  0  3.549306  0
N  N89  1  0.29174214  0.50237575  0.58787782  1  0  -0.396562  0  3.275375  0  0  -0.317354  0  3.562459  0  0  -0.339872  0  3.581353  0  0  -0.361493  -0.302229  0  3.549137  0
O  O90  1  0.66871837  0.42941163  0.72292281  1  0  -0.680566  0  1.945536  0  0  -0.623456  0  2.187535  0  0  -0.650883  0  2.177019  0  0  -0.349782  -0.604385  0  2.194202  0
O  O91  1  0.33128072  0.57060119  0.27708289  1  0  -0.680671  0  1.945662  0  0  -0.623573  0  2.187654  0  0  -0.651002  0  2.177143  0  0  -0.349855  -0.604507  0  2.194325  0
O  O92  1  0.40074216  0.35563868  0.77101455  1  0  -0.629309  0  1.940812  0  0  -0.565653  0  2.170541  0  0  -0.593753  0  2.161168  0  0  -0.331235  -0.546093  0  2.176171  0
O  O93  1  0.59925288  0.64436208  0.22897790  1  0  -0.629348  0  1.94099  0  0  -0.565663  0  2.170676  0  0  -0.593766  0  2.161308  0  0  -0.331265  -0.546105  0  2.176304  0
O  O94  1  0.44297376  0.32672708  0.11745311  1  0  -0.634906  0  1.925621  0  0  -0.574346  0  2.154559  0  0  -0.60261  0  2.145124  0  0  -0.336484  -0.554649  0  2.159987  0
O  O95  1  0.55702474  0.67326900  0.88255465  1  0  -0.634799  0  1.925796  0  0  -0.574241  0  2.154705  0  0  -0.602502  0  2.145277  0  0  -0.336433  -0.55455  0  2.16013  0
O  O96  1  0.71092167  0.30703820  0.16755840  1  0  -0.662147  0  1.915362  0  0  -0.601035  0  2.151192  0  0  -0.629886  0  2.140648  0  0  -0.351669  -0.580846  0  2.157521  0
O  O97  1  0.28908320  0.69296153  0.83243794  1  0  -0.662119  0  1.915173  0  0  -0.601011  0  2.150993  0  0  -0.629863  0  2.140447  0  0  -0.351652  -0.580823  0  2.157322  0
