# generated using pymatgen
data_NdH5C10O9
_symmetry_space_group_name_H-M   'P 1'
_cell_length_a   6.31617518
_cell_length_b   9.38795506
_cell_length_c   9.67409300
_cell_angle_alpha   87.79527204
_cell_angle_beta   73.93251860
_cell_angle_gamma   76.84141530
_symmetry_Int_Tables_number   1
_chemical_formula_structural   NdH5C10O9
_chemical_formula_sum   'Nd2 H10 C20 O18'
_cell_volume   536.56875412
_cell_formula_units_Z   2
loop_
 _symmetry_equiv_pos_site_id
 _symmetry_equiv_pos_as_xyz
  1  'x, y, z'
loop_
 _atom_site_type_symbol
 _atom_site_label
 _atom_site_symmetry_multiplicity
 _atom_site_fract_x
 _atom_site_fract_y
 _atom_site_fract_z
 _atom_site_occupancy
 _atom_site_pbe_bader_charge
 _atom_site_pbe_bader_spin_density
 _atom_site_pbe_cm5_charge
 _atom_site_pbe_ddec_charge
 _atom_site_pbe_ddec_spin_density
 _atom_site_pbe_ddec_sum_bond_order
 _atom_site_pbe_magmom
Nd  Nd0  1  0.84722822  0.44117344  0.22108744  1  2.264634  0  1.514581  2.13968  0  2.113437  0
Nd  Nd1  1  0.15277007  0.55882794  0.77890335  1  2.264694  0  1.514616  2.139641  0  2.113437  0
H  H2  1  0.01478243  0.92178037  0.76279815  1  0.667284  0  0.317235  0.382463  0  0.958877  0
H  H3  1  0.98521702  0.07821771  0.23720392  1  0.667308  0  0.317249  0.382492  0  0.958836  0
H  H4  1  0.29715690  0.55221770  0.13602268  1  0.664351  0  0.32398  0.42972  0  0.884854  0
H  H5  1  0.70283707  0.44779133  0.86397067  1  0.664368  0  0.32397  0.42972  0  0.884843  0
H  H6  1  0.17826875  0.59586217  0.29844799  1  0.646385  0  0.343432  0.443548  0  0.835995  0
H  H7  1  0.82173081  0.40414030  0.70154563  1  0.64634  0  0.343415  0.443554  0  0.836059  0
H  H8  1  0.32281925  0.84273466  0.38963594  1  0.125163  0  0.114723  0.127985  0  1.009458  0
H  H9  1  0.67717767  0.15726123  0.61036563  1  0.12525  0  0.114701  0.127986  0  1.009396  0
H  H10  1  0.79068829  0.93480791  0.13287935  1  0.083063  0  0.118105  0.129158  0  0.977173  0
H  H11  1  0.20931748  0.06519566  0.86711414  1  0.083036  0  0.118118  0.129191  0  0.977143  0
C  C12  1  0.83121960  0.87436969  0.65052838  1  1.4989  0  0.251581  0.613917  0  4.08181  0
C  C13  1  0.16877989  0.12561416  0.34947730  1  1.498984  0  0.251643  0.613951  0  4.081535  0
C  C14  1  0.66155511  0.93645530  0.57173171  1  -0.015332  0  -0.006336  -0.058534  0  3.943374  0
C  C15  1  0.33844143  0.06354169  0.42826886  1  -0.015284  0  -0.006316  -0.05866  0  3.943447  0
C  C16  1  0.39978875  0.91109878  0.44005905  1  -0.010453  0  -0.072981  -0.112791  0  3.923437  0
C  C17  1  0.60020411  0.08889931  0.55994318  1  -0.010784  0  -0.07296  -0.112858  0  3.923477  0
C  C18  1  0.56025787  0.84494010  0.51093898  1  0.008851  0  0.009469  -0.022612  0  3.862307  0
C  C19  1  0.43974476  0.15505360  0.48906164  1  0.008092  0  0.009383  -0.022589  0  3.862159  0
C  C20  1  0.60878690  0.67900223  0.51850789  1  1.681524  0  0.248101  0.682986  0  4.149563  0
C  C21  1  0.39121002  0.32099366  0.48149265  1  1.681587  0  0.248172  0.683092  0  4.149303  0
C  C22  1  0.69088487  0.22299010  0.08741139  1  1.55128  0  0.214636  0.599868  0  4.178647  0
C  C23  1  0.30911419  0.77700908  0.91258554  1  1.550925  0  0.214572  0.59986  0  4.178752  0
C  C24  1  0.59245773  0.10937924  0.04060285  1  -0.017662  0  -0.00299  -0.04358  0  3.931051  0
C  C25  1  0.40754210  0.89061776  0.95939299  1  -0.017965  0  -0.002957  -0.043594  0  3.931232  0
C  C26  1  0.42737982  0.14594871  0.96538591  1  -0.00466  0  0.009153  -0.016715  0  3.909842  0
C  C27  1  0.57261974  0.85405375  0.03460978  1  -0.004652  0  0.009177  -0.016698  0  3.910164  0
C  C28  1  0.34555409  0.29692901  0.91787541  1  1.595084  0  0.22134  0.626455  0  4.193217  0
C  C29  1  0.65445333  0.70307456  0.08211882  1  1.59503  0  0.221313  0.626391  0  4.193258  0
C  C30  1  0.66358427  0.96319757  0.07391513  1  0.039422  0  -0.068656  -0.101644  0  3.916737  0
C  C31  1  0.33641035  0.03680489  0.92608766  1  0.039765  0  -0.068655  -0.101673  0  3.916648  0
O  O32  1  0.77816361  0.60559259  0.42630447  1  -1.203116  0  -0.38524  -0.650418  0  2.255819  0
O  O33  1  0.22184484  0.39440332  0.57368985  1  -1.203149  0  -0.385267  -0.650419  0  2.256058  0
O  O34  1  0.46627718  0.62594595  0.61238364  1  -1.209307  0  -0.400507  -0.678809  0  2.32014  0
O  O35  1  0.53373177  0.37405324  0.38761150  1  -1.209221  0  -0.40054  -0.678876  0  2.319832  0
O  O36  1  0.89410057  0.74007956  0.66430951  1  -1.167539  0  -0.330432  -0.59025  0  2.276872  0
O  O37  1  0.10589214  0.25992837  0.33569342  1  -1.167493  0  -0.330588  -0.590392  0  2.27608  0
O  O38  1  0.90797107  0.97315234  0.70488477  1  -1.169969  0  -0.31326  -0.470835  0  2.307898  0
O  O39  1  0.09202344  0.02684574  0.29512130  1  -1.170096  0  -0.3132  -0.4708  0  2.308247  0
O  O40  1  0.84978204  0.18305490  0.14922317  1  -1.201354  0  -0.369714  -0.663589  0  2.378918  0
O  O41  1  0.15022032  0.81694428  0.85077213  1  -1.201026  0  -0.369685  -0.663591  0  2.379006  0
O  O42  1  0.61747912  0.35758013  0.06785672  1  -1.1723  0  -0.330132  -0.589696  0  2.24356  0
O  O43  1  0.38251791  0.64242014  0.93214467  1  -1.172269  0  -0.330118  -0.589715  0  2.243573  0
O  O44  1  0.45408721  0.33921920  0.79898787  1  -1.178538  0  -0.357069  -0.613409  0  2.245612  0
O  O45  1  0.54591400  0.66078326  0.20101165  1  -1.178367  0  -0.357105  -0.61343  0  2.245372  0
O  O46  1  0.15540317  0.37477553  0.98998806  1  -1.214113  0  -0.409486  -0.709346  0  2.372375  0
O  O47  1  0.84460184  0.62523022  0.01000859  1  -1.214054  0  -0.409489  -0.709329  0  2.372527  0
O  O48  1  0.15449499  0.56184437  0.21149523  1  -1.261336  0  -0.639512  -0.853403  0  2.103129  0
O  O49  1  0.84550484  0.43815263  0.78850061  1  -1.261276  0  -0.639471  -0.8534  0  2.103118  0
