# generated using pymatgen
data_ZnH36C26S2(N3O2)2
_symmetry_space_group_name_H-M   'P 1'
_cell_length_a   9.51118923
_cell_length_b   10.31038011
_cell_length_c   14.83230000
_cell_angle_alpha   86.65933714
_cell_angle_beta   87.98949196
_cell_angle_gamma   85.21749298
_symmetry_Int_Tables_number   1
_chemical_formula_structural   ZnH36C26S2(N3O2)2
_chemical_formula_sum   'Zn2 H72 C52 S4 N12 O8'
_cell_volume   1446.31921674
_cell_formula_units_Z   2
loop_
 _symmetry_equiv_pos_site_id
 _symmetry_equiv_pos_as_xyz
  1  'x, y, z'
loop_
 _atom_site_type_symbol
 _atom_site_label
 _atom_site_symmetry_multiplicity
 _atom_site_fract_x
 _atom_site_fract_y
 _atom_site_fract_z
 _atom_site_occupancy
 _atom_site_hle17_bader_spin_density
 _atom_site_hle17_ddec_charge
 _atom_site_hle17_ddec_spin_density
 _atom_site_hle17_ddec_sum_bond_order
 _atom_site_hle17_magmom
 _atom_site_hse06_10hf_bader_spin_density
 _atom_site_hse06_10hf_ddec_charge
 _atom_site_hse06_10hf_ddec_spin_density
 _atom_site_hse06_10hf_ddec_sum_bond_order
 _atom_site_hse06_10hf_magmom
 _atom_site_hse06_bader_spin_density
 _atom_site_hse06_ddec_charge
 _atom_site_hse06_ddec_spin_density
 _atom_site_hse06_ddec_sum_bond_order
 _atom_site_hse06_magmom
 _atom_site_pbe_bader_charge
 _atom_site_pbe_bader_spin_density
 _atom_site_pbe_cm5_charge
 _atom_site_pbe_ddec_charge
 _atom_site_pbe_ddec_spin_density
 _atom_site_pbe_ddec_sum_bond_order
 _atom_site_pbe_magmom
Zn  Zn0  1  0.64916740  0.57146275  0.72822858  1  0  0.977633  0  2.072765  0  0  0.780921  0  2.584344  0  0  0.821771  0  2.532514  0  1.247748  0  0.753871  0.753854  0  2.618693  0
Zn  Zn1  1  0.35083611  0.42853784  0.27177192  1  0  0.977563  0  2.072714  0  0  0.780834  0  2.584334  0  0  0.821678  0  2.532491  0  1.247634  0  0.753808  0.75376  0  2.61868  0
H  H2  1  0.87779184  0.56104418  0.86327254  1  0  0.087699  0  0.946886  0  0  0.092687  0  1.017559  0  0  0.095623  0  1.014344  0  0.105197  0  0.120086  0.09045  0  1.020174  0
H  H3  1  0.12220633  0.43895739  0.13672805  1  0  0.087668  0  0.946928  0  0  0.09267  0  1.017581  0  0  0.095601  0  1.014369  0  0.105213  0  0.120089  0.090433  0  1.020196  0
H  H4  1  0.97665083  0.40425091  0.98423800  1  0  0.126306  0  0.977111  0  0  0.124885  0  1.053895  0  0  0.129817  0  1.05018  0  0.142101  0  0.114314  0.121076  0  1.057133  0
H  H5  1  0.02334848  0.59574968  0.01576125  1  0  0.12633  0  0.97708  0  0  0.124881  0  1.053898  0  0  0.129812  0  1.050182  0  0.142025  0  0.114313  0.121071  0  1.057138  0
H  H6  1  0.66915363  0.14220941  0.91960764  1  0  0.10272  0  0.969723  0  0  0.108485  0  1.041075  0  0  0.111851  0  1.040207  0  0.110547  0  0.098774  0.105971  0  1.041756  0
H  H7  1  0.33084681  0.85779021  0.08039163  1  0  0.102709  0  0.969709  0  0  0.108476  0  1.041062  0  0  0.111843  0  1.040196  0  0.11055  0  0.098765  0.105962  0  1.041743  0
H  H8  1  0.59005659  0.30356275  0.79610420  1  0  0.076751  0  0.949063  0  0  0.086914  0  1.011648  0  0  0.088887  0  1.009877  0  0.117905  0  0.116266  0.085231  0  1.013363  0
H  H9  1  0.40994166  0.69643784  0.20389575  1  0  0.076772  0  0.949036  0  0  0.08694  0  1.011616  0  0  0.088914  0  1.009845  0  0.117895  0  0.11628  0.085258  0  1.01333  0
H  H10  1  0.79658816  0.12412020  0.07397453  1  0  0.064924  0  0.959702  0  0  0.077263  0  1.033816  0  0  0.078198  0  1.033416  0  0.069152  0  0.096667  0.076662  0  1.033783  0
H  H11  1  0.20341123  0.87587941  0.92602476  1  0  0.064965  0  0.959722  0  0  0.077253  0  1.033859  0  0  0.078186  0  1.033463  0  0.06916  0  0.096659  0.07665  0  1.033825  0
H  H12  1  0.94499128  0.08630219  0.00395588  1  0  0.058243  0  0.966729  0  0  0.077269  0  1.032545  0  0  0.077804  0  1.031819  0  0.051896  0  0.10237  0.076711  0  1.033543  0
H  H13  1  0.05500908  0.91369840  0.99604334  1  0  0.058281  0  0.966704  0  0  0.077282  0  1.032518  0  0  0.077818  0  1.031792  0  0.051815  0  0.102366  0.076722  0  1.033517  0
H  H14  1  0.98798151  0.29499433  0.22635634  1  0  0.058745  0  0.957101  0  0  0.074266  0  1.025889  0  0  0.07373  0  1.028207  0  0.032082  0  0.098692  0.074468  0  1.024517  0
H  H15  1  0.01201885  0.70500626  0.77364288  1  0  0.05875  0  0.957088  0  0  0.074269  0  1.025871  0  0  0.073733  0  1.028188  0  0.032075  0  0.098687  0.074472  0  1.024496  0
H  H16  1  0.88262778  0.16098877  0.22558819  1  0  0.058058  0  0.935227  0  0  0.069602  0  1.008474  0  0  0.071161  0  1.007219  0  0.051873  0  0.09189  0.068504  0  1.009202  0
H  H17  1  0.11737258  0.83901182  0.77441104  1  0  0.058046  0  0.935225  0  0  0.069597  0  1.008458  0  0  0.071157  0  1.007204  0  0.051859  0  0.09188  0.068496  0  1.009187  0
H  H18  1  0.70025548  0.30118231  0.13817719  1  0  0.038054  0  0.954695  0  0  0.052736  0  1.02246  0  0  0.05206  0  1.023689  0  0.040614  0  0.092108  0.053128  0  1.021598  0
H  H19  1  0.29974496  0.69881731  0.86182208  1  0  0.03806  0  0.954704  0  0  0.052742  0  1.022463  0  0  0.052068  0  1.023692  0  0.04062  0  0.09211  0.053134  0  1.021601  0
H  H20  1  0.72811020  0.35056135  0.24808583  1  0  0.044457  0  0.931515  0  0  0.059865  0  0.996376  0  0  0.059603  0  0.997028  0  0.03419  0  0.092893  0.059866  0  0.996307  0
H  H21  1  0.27188919  0.64943827  0.75191346  1  0  0.044538  0  0.931461  0  0  0.059931  0  0.996334  0  0  0.059671  0  0.996989  0  0.034178  0  0.092902  0.059931  0  0.996264  0
H  H22  1  0.60638528  0.54214199  0.17944126  1  0  0.041903  0  0.970121  0  0  0.056023  0  1.041109  0  0  0.055383  0  1.041847  0  0.054352  0  0.093062  0.056184  0  1.041087  0
H  H23  1  0.39361298  0.45785860  0.82055869  1  0  0.041914  0  0.970088  0  0  0.056014  0  1.04108  0  0  0.055373  0  1.041819  0  0.05436  0  0.093063  0.056169  0  1.041062  0
H  H24  1  0.63003056  0.50048038  0.06400878  1  0  0.050322  0  0.914542  0  0  0.064105  0  0.978252  0  0  0.065249  0  0.977172  0  0.038201  0  0.094933  0.063179  0  0.979205  0
H  H25  1  0.36996980  0.49952021  0.93599180  1  0  0.050331  0  0.914532  0  0  0.064086  0  0.978246  0  0  0.06523  0  0.977166  0  0.038182  0  0.094935  0.06316  0  0.979195  0
H  H26  1  0.12151862  0.05448402  0.12436825  1  0  0.034724  0  0.944276  0  0  0.04955  0  1.017845  0  0  0.050481  0  1.016809  0  0.014365  0  0.0846  0.04885  0  1.018372  0
H  H27  1  0.87848077  0.94551559  0.87563037  1  0  0.03469  0  0.944306  0  0  0.049503  0  1.017869  0  0  0.050434  0  1.016832  0  0.014372  0  0.084583  0.048801  0  1.018395  0
H  H28  1  0.17558700  0.20521603  0.15545357  1  0  0.070947  0  0.94001  0  0  0.087476  0  1.005537  0  0  0.087442  0  1.006427  0  0.065275  0  0.104457  0.08766  0  1.004629  0
H  H29  1  0.82441248  0.79478261  0.84454575  1  0  0.070919  0  0.940083  0  0  0.087428  0  1.00561  0  0  0.087392  0  1.006504  0  0.065241  0  0.104435  0.087612  0  1.0047  0
H  H30  1  0.30677832  0.11293642  0.02252253  1  0  0.037848  0  0.953797  0  0  0.048486  0  1.029486  0  0  0.048877  0  1.029362  0  0.040979  0  0.084985  0.048001  0  1.029858  0
H  H31  1  0.69322317  0.88706320  0.97747738  1  0  0.037842  0  0.953793  0  0  0.048461  0  1.029504  0  0  0.048848  0  1.029376  0  0.041  0  0.084985  0.047976  0  1.029876  0
H  H32  1  0.14962489  0.13035594  0.95953655  1  0  0.029657  0  0.943689  0  0  0.043878  0  1.014121  0  0  0.044357  0  1.013572  0  0.016013  0  0.088489  0.04346  0  1.014616  0
H  H33  1  0.85037661  0.86964367  0.04046202  1  0  0.02967  0  0.943687  0  0  0.043898  0  1.014109  0  0  0.044375  0  1.013558  0  0.016214  0  0.088495  0.043481  0  1.014604  0
H  H34  1  0.22751273  0.28026328  0.85312583  1  0  0.040915  0  0.942984  0  0  0.056595  0  1.010069  0  0  0.057296  0  1.008837  0  0.019863  0  0.093695  0.0561  0  1.010616  0
H  H35  1  0.77248763  0.71973731  0.14687340  1  0  0.040923  0  0.942978  0  0  0.0566  0  1.010067  0  0  0.0573  0  1.008836  0  0.019871  0  0.093697  0.056107  0  1.010612  0
H  H36  1  0.39574122  0.25760913  0.90403611  1  0  0.04119  0  0.940629  0  0  0.057605  0  1.006251  0  0  0.056974  0  1.007049  0  0.037126  0  0.091716  0.057995  0  1.005602  0
H  H37  1  0.60425809  0.74239146  0.09596314  1  0  0.041191  0  0.940638  0  0  0.057608  0  1.006254  0  0  0.056978  0  1.007051  0  0.037117  0  0.091719  0.057998  0  1.005607  0
H  H38  1  0.74810338  0.80287923  0.62408353  1  0  0.073451  0  0.946372  0  0  0.084723  0  1.008502  0  0  0.086491  0  1.00704  0  0.094495  0  0.11517  0.083688  0  1.008952  0
H  H39  1  0.25189610  0.19711941  0.37591647  1  0  0.073437  0  0.946409  0  0  0.084711  0  1.008538  0  0  0.086478  0  1.007078  0  0.094475  0  0.11517  0.08368  0  1.008989  0
H  H40  1  0.96627961  0.86265149  0.53403393  1  0  0.128145  0  0.943461  0  0  0.130939  0  1.013427  0  0  0.135824  0  1.009853  0  0.120043  0  0.1151  0.127263  0  1.016473  0
H  H41  1  0.03371882  0.13734715  0.46596542  1  0  0.12814  0  0.943455  0  0  0.130929  0  1.013429  0  0  0.135815  0  1.009855  0  0.120033  0  0.115102  0.127253  0  1.016475  0
H  H42  1  0.14744225  0.47207106  0.59516836  1  0  0.102412  0  0.994308  0  0  0.108393  0  1.062483  0  0  0.111827  0  1.061958  0  0.125797  0  0.095685  0.106605  0  1.062239  0
H  H43  1  0.85255819  0.52792856  0.40483090  1  0  0.102447  0  0.994297  0  0  0.108429  0  1.062468  0  0  0.111863  0  1.061945  0  0.12581  0  0.095687  0.106642  0  1.062224  0
H  H44  1  0.92339129  0.42706201  0.68059773  1  0  0.081923  0  0.961421  0  0  0.088411  0  1.029768  0  0  0.091109  0  1.027285  0  0.11551  0  0.118614  0.086284  0  1.031873  0
H  H45  1  0.07660810  0.57293761  0.31940223  1  0  0.081919  0  0.961389  0  0  0.088404  0  1.029741  0  0  0.091102  0  1.027258  0  0.115517  0  0.118608  0.086277  0  1.031845  0
H  H46  1  0.29421808  0.63560890  0.52361833  1  0  0.065714  0  0.950688  0  0  0.077479  0  1.023056  0  0  0.077388  0  1.024226  0  0.064909  0  0.093629  0.07723  0  1.022487  0
H  H47  1  0.70578140  0.36438974  0.47638167  1  0  0.065719  0  0.95069  0  0  0.077482  0  1.023049  0  0  0.077389  0  1.02422  0  0.06496  0  0.093627  0.077232  0  1.02248  0
H  H48  1  0.18316785  0.67348443  0.43148893  1  0  0.08831  0  0.956991  0  0  0.10287  0  1.023409  0  0  0.103593  0  1.02315  0  0.081184  0  0.11289  0.102312  0  1.023494  0
H  H49  1  0.81683251  0.32651616  0.56850963  1  0  0.088341  0  0.956973  0  0  0.102888  0  1.023392  0  0  0.103617  0  1.023127  0  0.081204  0  0.112902  0.102328  0  1.023479  0
H  H50  1  0.42676021  0.84319173  0.55981806  1  0  0.045409  0  0.943476  0  0  0.057201  0  1.01748  0  0  0.057921  0  1.017148  0  0.029685  0  0.084915  0.056949  0  1.017359  0
H  H51  1  0.57323927  0.15680691  0.44018329  1  0  0.045415  0  0.943435  0  0  0.057228  0  1.017464  0  0  0.057951  0  1.017122  0  0.029683  0  0.084923  0.056978  0  1.017341  0
H  H52  1  0.28255859  0.80353331  0.63156379  1  0  0.07111  0  0.930299  0  0  0.090632  0  0.989591  0  0  0.090903  0  0.990065  0  0.041428  0  0.106152  0.090144  0  0.989769  0
H  H53  1  0.71744097  0.19646435  0.36843692  1  0  0.071117  0  0.930272  0  0  0.090658  0  0.989596  0  0  0.090899  0  0.990106  0  0.041337  0  0.106163  0.090171  0  0.989775  0
H  H54  1  0.37329692  0.02528804  0.64706656  1  0  0.036496  0  0.95369  0  0  0.048269  0  1.027081  0  0  0.048184  0  1.027389  0  0.038914  0  0.08679  0.048022  0  1.027328  0
H  H55  1  0.62670361  0.97471060  0.35293409  1  0  0.036507  0  0.953711  0  0  0.048247  0  1.027124  0  0  0.048158  0  1.027437  0  0.038926  0  0.086781  0.048002  0  1.02737  0
H  H56  1  0.29616046  0.07716547  0.54222107  1  0  0.033187  0  0.954039  0  0  0.047218  0  1.025525  0  0  0.047476  0  1.025076  0  0.040491  0  0.08454  0.046789  0  1.026188  0
H  H57  1  0.70383805  0.92283220  0.45778102  1  0  0.033161  0  0.954037  0  0  0.047228  0  1.02546  0  0  0.047492  0  1.025005  0  0.040438  0  0.084549  0.0468  0  1.026124  0
H  H58  1  0.14556866  0.22989190  0.63444408  1  0  0.044007  0  0.952291  0  0  0.056364  0  1.02278  0  0  0.056939  0  1.022816  0  0.035367  0  0.086985  0.055936  0  1.02267  0
H  H59  1  0.85443309  0.77010479  0.36555729  1  0  0.044061  0  0.952132  0  0  0.056379  0  1.022661  0  0  0.05696  0  1.0227  0  0.035378  0  0.086986  0.055951  0  1.022554  0
H  H60  1  0.23008503  0.15591985  0.73211551  1  0  0.036453  0  0.951184  0  0  0.047282  0  1.025931  0  0  0.048005  0  1.024785  0  0.02358  0  0.087054  0.046682  0  1.026791  0
H  H61  1  0.76991638  0.84408074  0.26788639  1  0  0.036424  0  0.951213  0  0  0.047269  0  1.02593  0  0  0.047995  0  1.024787  0  0.02363  0  0.087067  0.046671  0  1.026791  0
H  H62  1  0.37088653  0.81136771  0.38207112  1  0  0.053811  0  0.946645  0  0  0.068169  0  1.016337  0  0  0.068666  0  1.016428  0  0.055557  0  0.089748  0.067622  0  1.016855  0
H  H63  1  0.62911488  0.18863288  0.61792943  1  0  0.05382  0  0.946606  0  0  0.068171  0  1.016303  0  0  0.068671  0  1.016389  0  0.055555  0  0.089739  0.067624  0  1.016822  0
H  H64  1  0.34268110  0.97146747  0.41842635  1  0  0.060448  0  0.933814  0  0  0.082941  0  0.992105  0  0  0.082496  0  0.992629  0  0.033384  0  0.104083  0.083284  0  0.991619  0
H  H65  1  0.65732048  0.02853117  0.58157427  1  0  0.06047  0  0.933784  0  0  0.082955  0  0.992079  0  0  0.082507  0  0.992604  0  0.033389  0  0.104082  0.083298  0  0.991592  0
H  H66  1  0.09458198  0.98772991  0.36549692  1  0  0.053618  0  0.966789  0  0  0.063281  0  1.041723  0  0  0.064533  0  1.040452  0  0.078501  0  0.097069  0.062032  0  1.043253  0
H  H67  1  0.90542048  0.01227068  0.63450293  1  0  0.053603  0  0.966838  0  0  0.063258  0  1.041769  0  0  0.064512  0  1.040497  0  0.078481  0  0.097064  0.062008  0  1.043298  0
H  H68  1  0.22962700  0.96849630  0.27827269  1  0  0.03631  0  0.937477  0  0  0.047484  0  1.011269  0  0  0.047627  0  1.011272  0  0.040374  0  0.086995  0.047574  0  1.010653  0
H  H69  1  0.77037450  0.03150331  0.72172789  1  0  0.036325  0  0.937476  0  0  0.047484  0  1.011267  0  0  0.047629  0  1.01127  0  0.040383  0  0.086986  0.047576  0  1.010652  0
H  H70  1  0.99066235  0.74970727  0.21608946  1  0  0.054998  0  0.939891  0  0  0.068537  0  1.009177  0  0  0.067758  0  1.010555  0  0.052057  0  0.09941  0.06923  0  1.007826  0
H  H71  1  0.00933810  0.25029234  0.78391183  1  0  0.054974  0  0.939875  0  0  0.068539  0  1.009174  0  0  0.067759  0  1.010553  0  0.052037  0  0.099412  0.069234  0  1.007821  0
H  H72  1  0.00813357  0.92050049  0.21205937  1  0  0.048992  0  0.938641  0  0  0.06528  0  1.004533  0  0  0.065813  0  1.003511  0  0.049037  0  0.096276  0.064751  0  1.005512  0
H  H73  1  0.99186687  0.07949912  0.78794124  1  0  0.04904  0  0.93856  0  0  0.06531  0  1.004512  0  0  0.065842  0  1.00349  0  0.049021  0  0.096286  0.064781  0  1.005491  0
C  C74  1  0.52858456  0.83689360  0.80236758  1  0  0.334677  0  4.058497  0  0  0.317337  0  4.348942  0  0  0.341308  0  4.361347  0  0.533951  0  0.156245  0.301191  0  4.340136  0
C  C75  1  0.47141842  0.16310114  0.19763047  1  0  0.334639  0  4.058404  0  0  0.317294  0  4.348862  0  0  0.341273  0  4.36126  0  0.533777  0  0.156199  0.301147  0  4.34005  0
C  C76  1  0.46070271  0.42113820  0.61366668  1  0  0.326002  0  4.0757  0  0  0.303938  0  4.376663  0  0  0.328774  0  4.388313  0  0.511965  0  0.154159  0.287643  0  4.368105  0
C  C77  1  0.53929520  0.57886629  0.38633447  1  0  0.325998  0  4.075839  0  0  0.303938  0  4.376782  0  0  0.328772  0  4.388431  0  0.51204  0  0.154106  0.287645  0  4.368223  0
C  C78  1  0.83468356  0.46717468  0.87709185  1  0  0.146615  0  3.681912  0  0  0.111473  0  3.943344  0  0  0.120712  0  3.958052  0  0.45206  0  0.051959  0.105263  0  3.933618  0
C  C79  1  0.16531583  0.53282494  0.12290878  1  0  0.146643  0  3.681989  0  0  0.111494  0  3.943416  0  0  0.120737  0  3.958121  0  0.452019  0  0.051962  0.105283  0  3.93369  0
C  C80  1  0.88881778  0.38109669  0.94490421  1  0  -0.141531  0  3.674483  0  0  -0.165893  0  3.931603  0  0  -0.17256  0  3.949037  0  0.078988  0  -0.077738  -0.161651  0  3.920199  0
C  C81  1  0.11118178  0.61890098  0.05509583  1  0  -0.141505  0  3.67432  0  0  -0.165847  0  3.931459  0  0  -0.172515  0  3.948893  0  0.079008  0  -0.077707  -0.161604  0  3.920054  0
C  C82  1  0.82933602  0.26277747  0.96324765  1  0  0.138385  0  3.689286  0  0  0.155346  0  3.922734  0  0  0.160435  0  3.944609  0  -0.106041  0  0.016397  0.152113  0  3.907875  0
C  C83  1  0.17066434  0.73722312  0.03675158  1  0  0.138342  0  3.689198  0  0  0.155282  0  3.922633  0  0  0.160372  0  3.944509  0  -0.106026  0  0.016369  0.152048  0  3.907773  0
C  C84  1  0.71905052  0.23379302  0.90941407  1  0  -0.177616  0  3.714398  0  0  -0.193366  0  3.959087  0  0  -0.202486  0  3.981315  0  -0.008878  0  -0.087363  -0.187306  0  3.943997  0
C  C85  1  0.28094887  0.76620660  0.09058522  1  0  -0.177596  0  3.714342  0  0  -0.193347  0  3.959035  0  0  -0.202468  0  3.981264  0  -0.008866  0  -0.087359  -0.187288  0  3.943949  0
C  C86  1  0.67280040  0.32340950  0.84120482  1  0  0.134464  0  3.727042  0  0  0.101456  0  3.977248  0  0  0.109372  0  3.995739  0  0.445802  0  0.044396  0.09591  0  3.96537  0
C  C87  1  0.32719891  0.67659109  0.15879577  1  0  0.134423  0  3.726972  0  0  0.101413  0  3.977174  0  0  0.109328  0  3.995666  0  0.445812  0  0.044372  0.095866  0  3.965297  0
C  C88  1  0.88607839  0.16783083  0.03742100  1  0  -0.056058  0  3.701919  0  0  -0.114512  0  3.942474  0  0  -0.111914  0  3.954036  0  0.287307  0  -0.059983  -0.116112  0  3.934566  0
C  C89  1  0.11392101  0.83216879  0.96257829  1  0  -0.056199  0  3.70203  0  0  -0.114551  0  3.942508  0  0  -0.111948  0  3.954062  0  0.287299  0  -0.05999  -0.116137  0  3.934592  0
C  C90  1  0.91111809  0.25078071  0.18648537  1  0  -0.032723  0  3.696543  0  0  -0.094675  0  3.964798  0  0  -0.091757  0  3.976248  0  0.31196  0  -0.073195  -0.096688  0  3.95727  0
C  C91  1  0.08888227  0.74921988  0.81351386  1  0  -0.03269  0  3.696402  0  0  -0.094632  0  3.964631  0  0  -0.091715  0  3.976083  0  0.311983  0  -0.073142  -0.096635  0  3.957095  0
C  C92  1  0.77801717  0.34202510  0.17994439  1  0  0.070399  0  3.668611  0  0  0.013717  0  3.939848  0  0  0.020441  0  3.947077  0  0.435031  0  -0.075151  0.009243  0  3.934716  0
C  C93  1  0.22198319  0.65797549  0.82005483  1  0  0.070261  0  3.668606  0  0  0.013569  0  3.939841  0  0  0.020279  0  3.947081  0  0.434994  0  -0.075206  0.009094  0  3.934711  0
C  C94  1  0.68040934  0.54319867  0.12034219  1  0  0.05622  0  3.685619  0  0  -0.002054  0  3.956852  0  0  0.004091  0  3.96342  0  0.455143  0  -0.078338  -0.006265  0  3.952583  0
C  C95  1  0.31958997  0.45680192  0.87965774  1  0  0.0562  0  3.685654  0  0  -0.002006  0  3.956783  0  0  0.004137  0  3.963352  0  0.455152  0  -0.078349  -0.006207  0  3.952507  0
C  C96  1  0.11964185  0.16011438  0.10332783  1  0  -0.029128  0  3.71484  0  0  -0.091961  0  3.984087  0  0  -0.088511  0  3.995583  0  0.312763  0  -0.070268  -0.09411  0  3.976035  0
C  C97  1  0.88035763  0.83988426  0.89667082  1  0  -0.029124  0  3.714899  0  0  -0.091861  0  3.984012  0  0  -0.088414  0  3.995507  0  0.312759  0  -0.070208  -0.093998  0  3.975951  0
C  C98  1  0.20429362  0.17117046  0.01494375  1  0  0.070206  0  3.679486  0  0  0.010862  0  3.952695  0  0  0.017152  0  3.959883  0  0.439803  0  -0.076533  0.006713  0  3.947753  0
C  C99  1  0.79570691  0.82882818  0.98505555  1  0  0.070187  0  3.679529  0  0  0.010821  0  3.952745  0  0  0.017126  0  3.959922  0  0.439636  0  -0.076582  0.006669  0  3.947802  0
C  C100  1  0.29329121  0.31698758  0.90463886  1  0  0.067334  0  3.685587  0  0  0.008083  0  3.954192  0  0  0.014863  0  3.960224  0  0.438361  0  -0.074166  0.003537  0  3.949741  0
C  C101  1  0.70670818  0.68301204  0.09536110  1  0  0.06734  0  3.685586  0  0  0.008101  0  3.954208  0  0  0.014885  0  3.960237  0  0.438361  0  -0.074157  0.003555  0  3.94976  0
C  C102  1  0.83915524  0.73276637  0.61502240  1  0  0.124005  0  3.72824  0  0  0.094705  0  3.977946  0  0  0.101896  0  3.996576  0  0.465974  0  0.042032  0.090161  0  3.964559  0
C  C103  1  0.16084415  0.26723324  0.38497689  1  0  0.123967  0  3.728265  0  0  0.094665  0  3.977965  0  0  0.101857  0  3.996594  0  0.46602  0  0.042035  0.090115  0  3.964581  0
C  C104  1  0.95898167  0.76531466  0.56570375  1  0  -0.150383  0  3.670462  0  0  -0.17096  0  3.923887  0  0  -0.178416  0  3.943083  0  -0.050072  0  -0.076239  -0.165843  0  3.910435  0
C  C105  1  0.04101667  0.23468495  0.43429556  1  0  -0.150317  0  3.670433  0  0  -0.170882  0  3.923865  0  0  -0.178338  0  3.943061  0  -0.050061  0  -0.076235  -0.165763  0  3.910411  0
C  C106  1  0.07333634  0.67163135  0.55708387  1  0  0.15631  0  3.675629  0  0  0.169432  0  3.912739  0  0  0.175448  0  3.933298  0  -0.00121  0  0.024034  0.165606  0  3.898488  0
C  C107  1  0.92666200  0.32836827  0.44291477  1  0  0.156374  0  3.675575  0  0  0.169462  0  3.912712  0  0  0.175482  0  3.933272  0  -0.001234  0  0.024062  0.165636  0  3.89846  0
C  C108  1  0.06085386  0.54813501  0.59982594  1  0  -0.160935  0  3.69534  0  0  -0.173595  0  3.934316  0  0  -0.182543  0  3.956105  0  -0.034046  0  -0.083216  -0.168045  0  3.919317  0
C  C109  1  0.93914562  0.45186363  0.40017339  1  0  -0.161106  0  3.695477  0  0  -0.17376  0  3.93446  0  0  -0.182711  0  3.956249  0  -0.034039  0  -0.083289  -0.16821  0  3.919462  0
C  C110  1  0.93727342  0.52249800  0.64743421  1  0  0.129707  0  3.704452  0  0  0.097786  0  3.956519  0  0  0.105713  0  3.973512  0  0.430403  0  0.045426  0.092866  0  3.944963  0
C  C111  1  0.06272493  0.47750162  0.35256510  1  0  0.129782  0  3.704555  0  0  0.097868  0  3.956602  0  0  0.105795  0  3.973598  0  0.430393  0  0.045478  0.092947  0  3.945046  0
C  C112  1  0.20253570  0.70045788  0.50033741  1  0  -0.070875  0  3.701239  0  0  -0.128245  0  3.945444  0  0  -0.125505  0  3.956305  0  0.306214  0  -0.065789  -0.129674  0  3.937825  0
C  C113  1  0.79746361  0.29954271  0.49966184  1  0  -0.070987  0  3.701256  0  0  -0.12831  0  3.945431  0  0  -0.125583  0  3.9563  0  0.30614  0  -0.065822  -0.129739  0  3.937815  0
C  C114  1  0.31230178  0.86715405  0.57312655  1  0  -0.031669  0  3.69848  0  0  -0.088818  0  3.95974  0  0  -0.086002  0  3.971742  0  0.31186  0  -0.073371  -0.090506  0  3.951522  0
C  C115  1  0.68769875  0.13284459  0.42687410  1  0  -0.031701  0  3.698446  0  0  -0.088991  0  3.959878  0  0  -0.086157  0  3.971879  0  0.311989  0  -0.073438  -0.090677  0  3.95166  0
C  C116  1  0.28932553  0.00647651  0.60092009  1  0  0.070098  0  3.676449  0  0  0.009638  0  3.950146  0  0  0.016613  0  3.956494  0  0.405117  0  -0.078087  0.004893  0  3.946214  0
C  C117  1  0.71067614  0.99352115  0.39908125  1  0  0.070022  0  3.676466  0  0  0.009604  0  3.950184  0  0  0.016576  0  3.956516  0  0.40512  0  -0.078084  0.004852  0  3.94626  0
C  C118  1  0.14079845  0.14951840  0.68690736  1  0  0.047539  0  3.691633  0  0  -0.010943  0  3.962892  0  0  -0.00473  0  3.968498  0  0.452628  0  -0.082329  -0.015024  0  3.958977  0
C  C119  1  0.85920296  0.85048219  0.31309521  1  0  0.047542  0  3.691445  0  0  -0.010937  0  3.962631  0  0  -0.004744  0  3.968253  0  0.452603  0  -0.082337  -0.015024  0  3.958724  0
C  C120  1  0.28892406  0.88306850  0.40867593  1  0  -0.031955  0  3.701549  0  0  -0.093161  0  3.966938  0  0  -0.089868  0  3.979088  0  0.28733  0  -0.072182  -0.095401  0  3.959027  0
C  C121  1  0.71107744  0.11693112  0.59132534  1  0  -0.031961  0  3.701491  0  0  -0.093157  0  3.966868  0  0  -0.089858  0  3.979008  0  0.287308  0  -0.07213  -0.095393  0  3.958947  0
C  C122  1  0.17877204  0.92017199  0.33808493  1  0  0.067604  0  3.644089  0  0  0.006427  0  3.920101  0  0  0.013149  0  3.92555  0  0.384769  0  -0.079113  0.002141  0  3.916185  0
C  C123  1  0.82123051  0.07982763  0.66191496  1  0  0.067575  0  3.644138  0  0  0.006441  0  3.920083  0  0  0.013164  0  3.925529  0  0.384751  0  -0.079119  0.002156  0  3.916167  0
C  C124  1  0.99614396  0.83368946  0.25810677  1  0  0.053265  0  3.67682  0  0  -0.007596  0  3.951986  0  0  -0.000884  0  3.957705  0  0.416503  0  -0.077393  -0.012081  0  3.947994  0
C  C125  1  0.00385753  0.16631015  0.74189517  1  0  0.053342  0  3.676615  0  0  -0.007609  0  3.951949  0  0  -0.000894  0  3.957661  0  0.416475  0  -0.077423  -0.012096  0  3.947956  0
S  S126  1  0.46135185  0.96894666  0.84527226  1  0  -0.3589  0  1.96943  0  0  -0.340003  0  2.245608  0  0  -0.354242  0  2.239889  0  0.09947  0  -0.159974  -0.329682  0  2.248481  0
S  S127  1  0.53864737  0.03105491  0.15472762  1  0  -0.358803  0  1.969652  0  0  -0.339913  0  2.245846  0  0  -0.354149  0  2.240125  0  0.099583  0  -0.159921  -0.329595  0  2.248718  0
S  S128  1  0.38289609  0.34742154  0.53995136  1  0  -0.328534  0  2.108871  0  0  -0.310286  0  2.415329  0  0  -0.326196  0  2.412145  0  0.142765  0  -0.130216  -0.300246  0  2.417012  0
S  S129  1  0.61710708  0.65258295  0.46005101  1  0  -0.328531  0  2.1087  0  0  -0.310293  0  2.415173  0  0  -0.326194  0  2.411969  0  0.142531  0  -0.130207  -0.300249  0  2.416854  0
N  N130  1  0.57820630  0.73943687  0.77068844  1  0  -0.598807  0  3.01188  0  0  -0.528654  0  3.325355  0  0  -0.550403  0  3.321594  0  -1.376672  0  -0.425678  -0.514198  0  3.327758  0
N  N131  1  0.42179065  0.26056664  0.22931209  1  0  -0.598829  0  3.011627  0  0  -0.528668  0  3.325119  0  0  -0.550426  0  3.321347  0  -1.376561  0  -0.425653  -0.514204  0  3.327507  0
N  N132  1  0.51684540  0.47551499  0.66936513  1  0  -0.611576  0  3.054584  0  0  -0.543541  0  3.380476  0  0  -0.565742  0  3.376066  0  -1.383458  0  -0.434398  -0.528632  0  3.383009  0
N  N133  1  0.48315646  0.52449242  0.33063985  1  0  -0.611544  0  3.054819  0  0  -0.543507  0  3.380678  0  0  -0.565703  0  3.376262  0  -1.383236  0  -0.434331  -0.5286  0  3.383211  0
N  N134  1  0.72739604  0.43977914  0.82608824  1  0  -0.356076  0  3.33182  0  0  -0.269376  0  3.611762  0  0  -0.289138  0  3.625737  0  -1.29292  0  -0.340898  -0.25636  0  3.602572  0
N  N135  1  0.27260327  0.56022145  0.17391236  1  0  -0.356038  0  3.331812  0  0  -0.269347  0  3.611766  0  0  -0.289106  0  3.625736  0  -1.292907  0  -0.340889  -0.256329  0  3.602573  0
N  N136  1  0.97760707  0.22388134  0.09854119  1  0  -0.211536  0  3.275086  0  0  -0.128437  0  3.524443  0  0  -0.142837  0  3.544355  0  -1.069219  0  -0.341201  -0.118714  0  3.511024  0
N  N137  1  0.02239329  0.77611925  0.90145804  1  0  -0.211422  0  3.275104  0  0  -0.128363  0  3.524403  0  0  -0.142763  0  3.544315  0  -1.069213  0  -0.3412  -0.118654  0  3.510981  0
N  N138  1  0.82738407  0.61314191  0.65523124  1  0  -0.354101  0  3.353265  0  0  -0.269097  0  3.635539  0  0  -0.288485  0  3.649956  0  -1.267722  0  -0.342654  -0.256359  0  3.625185  0
N  N139  1  0.17261629  0.38685868  0.34476866  1  0  -0.35408  0  3.353246  0  0  -0.269068  0  3.635499  0  0  -0.288451  0  3.649908  0  -1.267695  0  -0.342649  -0.256329  0  3.625145  0
N  N140  1  0.22939646  0.83802923  0.49627753  1  0  -0.216108  0  3.212689  0  0  -0.135747  0  3.465969  0  0  -0.150182  0  3.485238  0  -1.02873  0  -0.338876  -0.126244  0  3.452914  0
N  N141  1  0.77060399  0.16197038  0.50372241  1  0  -0.216025  0  3.212575  0  0  -0.135641  0  3.465865  0  0  -0.150075  0  3.48513  0  -1.028697  0  -0.338866  -0.126135  0  3.452807  0
O  O142  1  0.80848694  0.46785118  0.14264843  1  0  -0.304082  0  2.220234  0  0  -0.235473  0  2.469272  0  0  -0.251111  0  2.471883  0  -1.048691  0  -0.234279  -0.224034  0  2.466742  0
O  O143  1  0.19151245  0.53214843  0.85735153  1  0  -0.304084  0  2.220275  0  0  -0.235458  0  2.46926  0  0  -0.251088  0  2.471871  0  -1.048688  0  -0.234252  -0.224025  0  2.466728  0
O  O144  1  0.22599530  0.30403260  0.99153022  1  0  -0.299573  0  2.252639  0  0  -0.225639  0  2.499244  0  0  -0.241631  0  2.501948  0  -1.051071  0  -0.228449  -0.214119  0  2.496894  0
O  O145  1  0.77400506  0.69596799  0.00846901  1  0  -0.299584  0  2.252683  0  0  -0.225637  0  2.499274  0  0  -0.241637  0  2.501978  0  -1.051106  0  -0.228435  -0.214117  0  2.496926  0
O  O146  1  0.15487383  0.02658061  0.64663888  1  0  -0.310702  0  2.244577  0  0  -0.239567  0  2.498077  0  0  -0.255257  0  2.499617  0  -1.040999  0  -0.23467  -0.228407  0  2.496719  0
O  O147  1  0.84512776  0.97341803  0.35336444  1  0  -0.310626  0  2.244536  0  0  -0.239474  0  2.498014  0  0  -0.255146  0  2.499542  0  -1.04102  0  -0.234654  -0.228311  0  2.496659  0
O  O148  1  0.11880311  0.80554821  0.31099121  1  0  -0.315882  0  2.244798  0  0  -0.242702  0  2.495446  0  0  -0.258706  0  2.497557  0  -1.056165  0  -0.237869  -0.231348  0  2.493508  0
O  O149  1  0.88119935  0.19445238  0.68900932  1  0  -0.315936  0  2.244661  0  0  -0.242725  0  2.495322  0  0  -0.258733  0  2.497432  0  -1.056111  0  -0.237864  -0.231374  0  2.493393  0
