# generated using pymatgen
data_TbPH17C9N3O11
_symmetry_space_group_name_H-M   'P 1'
_cell_length_a   6.85620486
_cell_length_b   8.60938271
_cell_length_c   14.20179353
_cell_angle_alpha   90.00012562
_cell_angle_beta   92.86295683
_cell_angle_gamma   89.99987264
_symmetry_Int_Tables_number   1
_chemical_formula_structural   TbPH17C9N3O11
_chemical_formula_sum   'Tb2 P2 H34 C18 N6 O22'
_cell_volume   837.25277216
_cell_formula_units_Z   2
loop_
 _symmetry_equiv_pos_site_id
 _symmetry_equiv_pos_as_xyz
  1  'x, y, z'
loop_
 _atom_site_type_symbol
 _atom_site_label
 _atom_site_symmetry_multiplicity
 _atom_site_fract_x
 _atom_site_fract_y
 _atom_site_fract_z
 _atom_site_occupancy
 _atom_site_hle17_bader_spin_density
 _atom_site_hle17_ddec_charge
 _atom_site_hle17_ddec_spin_density
 _atom_site_hle17_ddec_sum_bond_order
 _atom_site_hle17_magmom
 _atom_site_hse06_10hf_bader_spin_density
 _atom_site_hse06_10hf_ddec_charge
 _atom_site_hse06_10hf_ddec_spin_density
 _atom_site_hse06_10hf_ddec_sum_bond_order
 _atom_site_hse06_10hf_magmom
 _atom_site_hse06_bader_spin_density
 _atom_site_hse06_ddec_charge
 _atom_site_hse06_ddec_spin_density
 _atom_site_hse06_ddec_sum_bond_order
 _atom_site_hse06_magmom
 _atom_site_pbe_bader_spin_density
 _atom_site_pbe_cm5_charge
 _atom_site_pbe_ddec_charge
 _atom_site_pbe_ddec_spin_density
 _atom_site_pbe_ddec_sum_bond_order
 _atom_site_pbe_magmom
Tb  Tb0  1  0.25332006  0.81080066  0.97023378  1  0  2.275033  0  1.664361  0  0  2.123538  0  2.129882  0  0  2.241473  0  1.952144  0  0  1.52417  2.087705  0  2.163197  0
Tb  Tb1  1  0.74668036  0.31079984  0.02976759  1  0  2.275019  0  1.664393  0  0  2.123536  0  2.1299  0  0  2.241462  0  1.952179  0  0  1.524144  2.087701  0  2.163202  0
P  P2  1  0.76296509  0.88318006  0.05869101  1  0  1.601803  0  4.818558  0  0  1.445927  0  5.320231  0  0  1.49892  0  5.28191  0  0  0.363139  1.409931  0  5.349022  0
P  P3  1  0.23703514  0.38318111  0.94130835  1  0  1.601725  0  4.818654  0  0  1.445846  0  5.320333  0  0  1.498832  0  5.282032  0  0  0.363126  1.409851  0  5.349123  0
H  H4  1  0.34622931  0.08539623  0.09582251  1  0  0.440991  0  0.85204  0  0  0.413452  0  0.910564  0  0  0.423824  0  0.895572  0  0  0.311564  0.405816  0  0.921813  0
H  H5  1  0.65377463  0.58539378  0.90417865  1  0  0.440999  0  0.852043  0  0  0.413459  0  0.910559  0  0  0.423831  0  0.895571  0  0  0.31158  0.405824  0  0.921806  0
H  H6  1  0.15868138  0.12979668  0.03343456  1  0  0.451139  0  0.850061  0  0  0.417654  0  0.918003  0  0  0.428773  0  0.90228  0  0  0.305149  0.40915  0  0.930377  0
H  H7  1  0.84131952  0.62979529  0.96656588  1  0  0.451147  0  0.850049  0  0  0.417653  0  0.918005  0  0  0.428773  0  0.902281  0  0  0.305156  0.409149  0  0.93038  0
H  H8  1  0.14129435  0.63688783  0.13756198  1  0  0.428423  0  0.873197  0  0  0.396126  0  0.940558  0  0  0.406767  0  0.925158  0  0  0.303068  0.388557  0  0.951682  0
H  H9  1  0.85870799  0.13688634  0.86243921  1  0  0.428395  0  0.873225  0  0  0.396097  0  0.940591  0  0  0.406739  0  0.925188  0  0  0.303031  0.388529  0  0.951714  0
H  H10  1  0.36929466  0.65103732  0.14675141  1  0  0.440469  0  0.831997  0  0  0.411633  0  0.900918  0  0  0.422247  0  0.885335  0  0  0.310442  0.404009  0  0.912246  0
H  H11  1  0.63070619  0.15103969  0.85324835  1  0  0.440476  0  0.831994  0  0  0.41163  0  0.900926  0  0  0.422247  0  0.885339  0  0  0.310443  0.404004  0  0.912257  0
H  H12  1  0.97634728  0.05811403  0.21432080  1  0  0.312574  0  0.847597  0  0  0.298304  0  0.903632  0  0  0.305227  0  0.898408  0  0  0.329322  0.29353  0  0.907312  0
H  H13  1  0.02365236  0.55811226  0.78567881  1  0  0.31257  0  0.847601  0  0  0.298281  0  0.903667  0  0  0.305205  0  0.898442  0  0  0.329321  0.293507  0  0.907346  0
H  H14  1  0.10117660  0.90827557  0.17563018  1  0  0.309477  0  0.866208  0  0  0.293776  0  0.924735  0  0  0.300881  0  0.91968  0  0  0.324874  0.288282  0  0.929333  0
H  H15  1  0.89882357  0.40827503  0.82436920  1  0  0.309483  0  0.866204  0  0  0.293786  0  0.92472  0  0  0.300891  0  0.919663  0  0  0.324881  0.288292  0  0.929317  0
H  H16  1  0.68540975  0.91754409  0.22276613  1  0  0.132008  0  0.927514  0  0  0.145397  0  0.984003  0  0  0.147708  0  0.983239  0  0  0.123411  0.143379  0  0.985197  0
H  H17  1  0.31459185  0.41754326  0.77723471  1  0  0.132002  0  0.927531  0  0  0.145383  0  0.984021  0  0  0.147695  0  0.983255  0  0  0.123409  0.143368  0  0.985216  0
H  H18  1  0.81340880  0.73891906  0.20527295  1  0  0.139342  0  0.93708  0  0  0.147888  0  1.000928  0  0  0.151223  0  0.998561  0  0  0.122919  0.145377  0  1.002962  0
H  H19  1  0.18659035  0.23891852  0.79472759  1  0  0.139336  0  0.937104  0  0  0.14787  0  1.000969  0  0  0.151205  0  0.9986  0  0  0.12293  0.145362  0  1.003005  0
H  H20  1  0.07441134  0.76880244  0.31936169  1  0  0.066811  0  0.90935  0  0  0.076726  0  0.972156  0  0  0.078249  0  0.970723  0  0  0.118127  0.075911  0  0.972633  0
H  H21  1  0.92558627  0.26880366  0.68063955  1  0  0.066779  0  0.909374  0  0  0.076745  0  0.97213  0  0  0.078269  0  0.970694  0  0  0.118131  0.075933  0  0.972607  0
H  H22  1  0.25937081  0.09544972  0.33076424  1  0  0.119029  0  0.959042  0  0  0.134247  0  1.029883  0  0  0.136438  0  1.028573  0  0  0.09307  0.132649  0  1.030694  0
H  H23  1  0.74063311  0.59545091  0.66923623  1  0  0.119079  0  0.959121  0  0  0.134303  0  1.029936  0  0  0.136493  0  1.028629  0  0  0.093096  0.132705  0  1.030748  0
H  H24  1  0.36579960  0.92421047  0.28543578  1  0  0.115745  0  0.942599  0  0  0.138848  0  0.999718  0  0  0.140875  0  0.998628  0  0  0.094721  0.137257  0  1.00065  0
H  H25  1  0.63420052  0.42421233  0.71456363  1  0  0.115756  0  0.942621  0  0  0.138859  0  0.999739  0  0  0.140888  0  0.998647  0  0  0.094729  0.137269  0  1.000671  0
H  H26  1  0.32390236  0.93845101  0.40745209  1  0  0.11573  0  0.962323  0  0  0.135563  0  1.025104  0  0  0.136186  0  1.027144  0  0  0.094242  0.135016  0  1.023549  0
H  H27  1  0.67610065  0.43845351  0.59254740  1  0  0.115754  0  0.962363  0  0  0.135561  0  1.025167  0  0  0.136181  0  1.027209  0  0  0.09424  0.135014  0  1.023609  0
H  H28  1  0.91277010  0.18897969  0.34878715  1  0  0.097025  0  0.986983  0  0  0.102393  0  1.057832  0  0  0.106285  0  1.054898  0  0  0.097848  0.099359  0  1.060552  0
H  H29  1  0.08722773  0.68897616  0.65121259  1  0  0.096939  0  0.986965  0  0  0.102318  0  1.057823  0  0  0.106212  0  1.054886  0  0  0.097808  0.099284  0  1.060542  0
H  H30  1  0.67963981  0.26684748  0.46533533  1  0  0.08325  0  0.962572  0  0  0.094663  0  1.021951  0  0  0.097091  0  1.021534  0  0  0.099004  0.09324  0  1.021783  0
H  H31  1  0.32035782  0.76684312  0.53466310  1  0  0.083262  0  0.96249  0  0  0.094662  0  1.021905  0  0  0.097094  0  1.021487  0  0  0.099018  0.093239  0  1.021737  0
H  H32  1  0.55670030  0.07263759  0.57943959  1  0  0.089408  0  0.939812  0  0  0.101783  0  0.995547  0  0  0.104987  0  0.993956  0  0  0.100804  0.099446  0  0.996687  0
H  H33  1  0.44330222  0.57263143  0.42056011  1  0  0.089388  0  0.93986  0  0  0.101765  0  0.995592  0  0  0.10497  0  0.994002  0  0  0.100814  0.099424  0  0.996728  0
H  H34  1  0.66486685  0.79812154  0.57076299  1  0  0.086809  0  0.971725  0  0  0.095953  0  1.036984  0  0  0.098318  0  1.036349  0  0  0.099146  0.094277  0  1.037311  0
H  H35  1  0.33513652  0.29811709  0.42923844  1  0  0.086846  0  0.971684  0  0  0.095991  0  1.036934  0  0  0.098353  0  1.0363  0  0  0.099138  0.094315  0  1.037258  0
H  H36  1  0.88866966  0.71530450  0.44746367  1  0  0.095694  0  0.956899  0  0  0.106614  0  1.016829  0  0  0.109081  0  1.016704  0  0  0.100828  0.104944  0  1.017079  0
H  H37  1  0.11133394  0.21529973  0.55253625  1  0  0.095662  0  0.95689  0  0  0.106563  0  1.016851  0  0  0.10903  0  1.016725  0  0  0.100811  0.104894  0  1.017101  0
C  C38  1  0.80516408  0.86249352  0.18681260  1  0  -0.30479  0  3.500889  0  0  -0.348526  0  3.757435  0  0  -0.352085  0  3.759654  0  0  -0.068423  -0.345636  0  3.755871  0
C  C39  1  0.19483475  0.36249302  0.81318739  1  0  -0.30478  0  3.500974  0  0  -0.348492  0  3.757488  0  0  -0.352052  0  3.759713  0  0  -0.068443  -0.345611  0  3.755938  0
C  C40  1  0.06302491  0.89618324  0.31967759  1  0  0.161513  0  3.543657  0  0  0.137253  0  3.788557  0  0  0.141863  0  3.802236  0  0  0.016616  0.133985  0  3.779036  0
C  C41  1  0.93697529  0.39618095  0.68032108  1  0  0.161588  0  3.54361  0  0  0.137253  0  3.788536  0  0  0.141864  0  3.802215  0  0  0.016606  0.133985  0  3.779016  0
C  C42  1  0.26471350  0.96839965  0.33674521  1  0  -0.342771  0  3.650889  0  0  -0.424921  0  3.893144  0  0  -0.428164  0  3.902307  0  0  -0.24039  -0.422169  0  3.886782  0
C  C43  1  0.73528651  0.46840115  0.66325425  1  0  -0.342857  0  3.651036  0  0  -0.425  0  3.893319  0  0  -0.428241  0  3.902482  0  0  -0.240415  -0.422247  0  3.886956  0
C  C44  1  0.91640556  0.94570184  0.38977913  1  0  0.015062  0  3.749322  0  0  0.039324  0  3.979269  0  0  0.037224  0  4.005595  0  0  -0.01962  0.040256  0  3.961878  0
C  C45  1  0.08359598  0.44569384  0.61021963  1  0  0.014862  0  3.749725  0  0  0.039239  0  3.979523  0  0  0.037137  0  4.005851  0  0  -0.019739  0.040169  0  3.962134  0
C  C46  1  0.85713697  0.10109780  0.39575665  1  0  -0.111937  0  3.730223  0  0  -0.131455  0  3.973441  0  0  -0.133961  0  3.994596  0  0  -0.096099  -0.129867  0  3.960091  0
C  C47  1  0.14286257  0.60109052  0.60424020  1  0  -0.111875  0  3.730294  0  0  -0.131415  0  3.973482  0  0  -0.133926  0  3.994646  0  0  -0.096067  -0.129827  0  3.960136  0
C  C48  1  0.72555468  0.14579578  0.46247517  1  0  -0.071355  0  3.786056  0  0  -0.081937  0  4.033614  0  0  -0.084507  0  4.056691  0  0  -0.092025  -0.079794  0  4.017752  0
C  C49  1  0.27444619  0.64578919  0.53752389  1  0  -0.071376  0  3.786141  0  0  -0.081974  0  4.03374  0  0  -0.084546  0  4.056814  0  0  -0.092068  -0.079828  0  4.01787  0
C  C50  1  0.65610765  0.03720861  0.52575786  1  0  -0.071612  0  3.770734  0  0  -0.086728  0  4.019809  0  0  -0.088574  0  4.041045  0  0  -0.090489  -0.085356  0  4.004714  0
C  C51  1  0.34389351  0.53720167  0.47424035  1  0  -0.071489  0  3.77076  0  0  -0.086608  0  4.019814  0  0  -0.08845  0  4.04104  0  0  -0.090444  -0.085231  0  4.004709  0
C  C52  1  0.71603290  0.88248170  0.52052709  1  0  -0.062671  0  3.777667  0  0  -0.076378  0  4.02905  0  0  -0.078392  0  4.051297  0  0  -0.091167  -0.074376  0  4.013522  0
C  C53  1  0.28397025  0.38247635  0.47947304  1  0  -0.06281  0  3.777625  0  0  -0.076513  0  4.029007  0  0  -0.078522  0  4.051248  0  0  -0.09119  -0.074513  0  4.013485  0
C  C54  1  0.84291698  0.83640150  0.45187068  1  0  -0.117517  0  3.751833  0  0  -0.137889  0  3.995069  0  0  -0.140772  0  4.018154  0  0  -0.091615  -0.135981  0  3.980179  0
C  C55  1  0.15708484  0.33639315  0.54812935  1  0  -0.117277  0  3.75195  0  0  -0.137677  0  3.99516  0  0  -0.140558  0  4.018243  0  0  -0.091467  -0.135771  0  3.980271  0
N  N56  1  0.99167306  0.93855578  0.22021324  1  0  -0.263752  0  3.310031  0  0  -0.202244  0  3.518864  0  0  -0.214616  0  3.526882  0  0  -0.468124  -0.193626  0  3.513181  0
N  N57  1  0.00832703  0.43855549  0.77978688  1  0  -0.26375  0  3.310056  0  0  -0.202231  0  3.518887  0  0  -0.214603  0  3.526905  0  0  -0.468111  -0.193612  0  3.513206  0
N  N58  1  0.53334690  0.84349586  0.81571384  1  0  0.700838  0  4.138937  0  0  0.732689  0  4.430017  0  0  0.761481  0  4.438238  0  0  0.091566  0.715134  0  4.42614  0
N  N59  1  0.46665198  0.34349725  0.18428542  1  0  0.700538  0  4.139308  0  0  0.732617  0  4.430125  0  0  0.761262  0  4.438536  0  0  0.091516  0.715088  0  4.426212  0
N  N60  1  0.05560278  0.91834945  0.79026611  1  0  0.70007  0  4.153617  0  0  0.735023  0  4.444606  0  0  0.76366  0  4.453432  0  0  0.086953  0.715092  0  4.441657  0
N  N61  1  0.94439298  0.41835009  0.20973459  1  0  0.699995  0  4.153914  0  0  0.735033  0  4.444797  0  0  0.763674  0  4.45362  0  0  0.086976  0.715104  0  4.441847  0
O  O62  1  0.92594075  0.79111980  0.01211397  1  0  -0.962298  0  2.009153  0  0  -0.877795  0  2.273777  0  0  -0.913462  0  2.249986  0  0  -0.451742  -0.858762  0  2.287565  0
O  O63  1  0.07405974  0.29112015  0.98788456  1  0  -0.962269  0  2.009179  0  0  -0.877765  0  2.273793  0  0  -0.913432  0  2.250009  0  0  -0.451732  -0.858735  0  2.287579  0
O  O64  1  0.56121576  0.81376523  0.03805680  1  0  -0.968775  0  1.992821  0  0  -0.890048  0  2.268516  0  0  -0.927642  0  2.244638  0  0  -0.477792  -0.869843  0  2.280848  0
O  O65  1  0.43878466  0.31376485  0.96194317  1  0  -0.968779  0  1.992826  0  0  -0.890057  0  2.26851  0  0  -0.927647  0  2.244633  0  0  -0.477807  -0.869855  0  2.28084  0
O  O66  1  0.77883081  0.05617414  0.03891459  1  0  -0.975078  0  2.044548  0  0  -0.898184  0  2.333494  0  0  -0.934914  0  2.307578  0  0  -0.502797  -0.879552  0  2.34811  0
O  O67  1  0.22116884  0.55617382  0.96108361  1  0  -0.975055  0  2.044609  0  0  -0.898164  0  2.333568  0  0  -0.934895  0  2.307654  0  0  -0.502806  -0.879534  0  2.348183  0
O  O68  1  0.45625414  0.96298656  0.85390711  1  0  -0.544563  0  1.812114  0  0  -0.531223  0  2.03946  0  0  -0.554949  0  2.030992  0  0  -0.215137  -0.520271  0  2.045245  0
O  O69  1  0.54374442  0.46298768  0.14609372  1  0  -0.544447  0  1.812154  0  0  -0.531202  0  2.039456  0  0  -0.554872  0  2.031034  0  0  -0.215145  -0.52026  0  2.04523  0
O  O70  1  0.47992892  0.71077100  0.84716993  1  0  -0.544827  0  1.878451  0  0  -0.526576  0  2.107199  0  0  -0.550141  0  2.099488  0  0  -0.222519  -0.515059  0  2.112373  0
O  O71  1  0.52006885  0.21077102  0.15282984  1  0  -0.544728  0  1.878511  0  0  -0.526542  0  2.107192  0  0  -0.550058  0  2.099531  0  0  -0.222499  -0.515033  0  2.112354  0
O  O72  1  0.64964958  0.85595414  0.75264574  1  0  -0.375218  0  1.77041  0  0  -0.370766  0  1.973824  0  0  -0.382025  0  1.967841  0  0  -0.144452  -0.363401  0  1.977463  0
O  O73  1  0.35034926  0.35595365  0.24735495  1  0  -0.375094  0  1.770564  0  0  -0.37073  0  1.973897  0  0  -0.381941  0  1.967973  0  0  -0.144417  -0.363379  0  1.977526  0
O  O74  1  0.05503789  0.00865835  0.86264372  1  0  -0.541291  0  1.883948  0  0  -0.52247  0  2.113009  0  0  -0.546873  0  2.106835  0  0  -0.203061  -0.509224  0  2.117689  0
O  O75  1  0.94495895  0.50866190  0.13735857  1  0  -0.541252  0  1.884162  0  0  -0.522464  0  2.11321  0  0  -0.546872  0  2.107041  0  0  -0.203056  -0.509223  0  2.117889  0
O  O76  1  0.09528261  0.77520098  0.80930172  1  0  -0.557043  0  1.873636  0  0  -0.551151  0  2.115205  0  0  -0.575257  0  2.107695  0  0  -0.238317  -0.538398  0  2.119675  0
O  O77  1  0.90471353  0.27520162  0.19069880  1  0  -0.55707  0  1.873681  0  0  -0.551213  0  2.11525  0  0  -0.575315  0  2.107734  0  0  -0.238357  -0.538462  0  2.119721  0
O  O78  1  0.02620768  0.96607517  0.70912549  1  0  -0.362283  0  1.742014  0  0  -0.361387  0  1.937457  0  0  -0.372013  0  1.932015  0  0  -0.135516  -0.353803  0  1.940791  0
O  O79  1  0.97378648  0.46607373  0.29087664  1  0  -0.362233  0  1.742045  0  0  -0.361371  0  1.937468  0  0  -0.372001  0  1.932031  0  0  -0.135508  -0.353783  0  1.940788  0
O  O80  1  0.22997838  0.03809904  0.06344807  1  0  -0.928043  0  1.877019  0  0  -0.880775  0  2.080945  0  0  -0.90982  0  2.044439  0  0  -0.644752  -0.866739  0  2.104534  0
O  O81  1  0.77002276  0.53809766  0.93655296  1  0  -0.928077  0  1.877067  0  0  -0.880788  0  2.081006  0  0  -0.909834  0  2.044492  0  0  -0.644774  -0.866754  0  2.104594  0
O  O82  1  0.24970527  0.71353434  0.13678380  1  0  -0.872412  0  1.88448  0  0  -0.82429  0  2.07695  0  0  -0.850585  0  2.042946  0  0  -0.616914  -0.810405  0  2.098278  0
O  O83  1  0.75029541  0.21353421  0.86321745  1  0  -0.872392  0  1.884521  0  0  -0.824278  0  2.077  0  0  -0.850573  0  2.042991  0  0  -0.616891  -0.810391  0  2.09833  0
