# generated using pymatgen
data_Cu2H10C14SI2N2O
_symmetry_space_group_name_H-M   'P 1'
_cell_length_a   4.05517930
_cell_length_b   12.55052058
_cell_length_c   15.80090829
_cell_angle_alpha   100.27599423
_cell_angle_beta   90.00007955
_cell_angle_gamma   89.99950797
_symmetry_Int_Tables_number   1
_chemical_formula_structural   Cu2H10C14SI2N2O
_chemical_formula_sum   'Cu4 H20 C28 S2 I4 N4 O2'
_cell_volume   791.28191313
_cell_formula_units_Z   2
loop_
 _symmetry_equiv_pos_site_id
 _symmetry_equiv_pos_as_xyz
  1  'x, y, z'
loop_
 _atom_site_type_symbol
 _atom_site_label
 _atom_site_symmetry_multiplicity
 _atom_site_fract_x
 _atom_site_fract_y
 _atom_site_fract_z
 _atom_site_occupancy
 _atom_site_hle17_bader_spin_density
 _atom_site_hle17_ddec_charge
 _atom_site_hle17_ddec_spin_density
 _atom_site_hle17_ddec_sum_bond_order
 _atom_site_hle17_magmom
 _atom_site_hse06_10hf_bader_spin_density
 _atom_site_hse06_10hf_ddec_charge
 _atom_site_hse06_10hf_ddec_spin_density
 _atom_site_hse06_10hf_ddec_sum_bond_order
 _atom_site_hse06_10hf_magmom
 _atom_site_hse06_bader_spin_density
 _atom_site_hse06_ddec_charge
 _atom_site_hse06_ddec_spin_density
 _atom_site_hse06_ddec_sum_bond_order
 _atom_site_hse06_magmom
 _atom_site_pbe_bader_spin_density
 _atom_site_pbe_cm5_charge
 _atom_site_pbe_ddec_charge
 _atom_site_pbe_ddec_spin_density
 _atom_site_pbe_ddec_sum_bond_order
 _atom_site_pbe_magmom
Cu  Cu0  1  0.65661537  0.05558505  0.54326699  1  0  0.153876  0  2.30096  0  0  0.095571  0  2.764217  0  0  0.113555  0  2.701868  0  0  0.138072  0.083826  0  2.807839  0
Cu  Cu1  1  0.15662206  0.94441957  0.45673277  1  0  0.153919  0  2.300888  0  0  0.095559  0  2.76416  0  0  0.113558  0  2.701818  0  0  0.138096  0.083827  0  2.807803  0
Cu  Cu2  1  0.98183779  0.18390591  0.66150834  1  0  0.288459  0  2.103014  0  0  0.208358  0  2.57382  0  0  0.220971  0  2.520986  0  0  0.255858  0.2013  0  2.609851  0
Cu  Cu3  1  0.48184191  0.81609849  0.33848962  1  0  0.288414  0  2.103022  0  0  0.20823  0  2.573765  0  0  0.220909  0  2.520949  0  0  0.255834  0.201227  0  2.609827  0
H  H4  1  0.20966760  0.38038402  0.71875822  1  0  0.282244  0  0.939175  0  0  0.261222  0  1.017619  0  0  0.270439  0  1.009159  0  0  0.282599  0.254609  0  1.023802  0
H  H5  1  0.70967859  0.61960910  0.28123613  1  0  0.282282  0  0.939122  0  0  0.261224  0  1.017585  0  0  0.270437  0  1.009136  0  0  0.282611  0.254611  0  1.023767  0
H  H6  1  0.66381438  0.03414537  0.76143810  1  0  0.086175  0  1.012615  0  0  0.095623  0  1.08267  0  0  0.098544  0  1.080463  0  0  0.076677  0.093282  0  1.084742  0
H  H7  1  0.16382685  0.96586409  0.23855919  1  0  0.086134  0  1.012564  0  0  0.095622  0  1.082581  0  0  0.098538  0  1.080386  0  0  0.076659  0.093279  0  1.084654  0
H  H8  1  0.45851194  0.26471121  0.04988299  1  0  0.107327  0  0.976215  0  0  0.115018  0  1.041816  0  0  0.118617  0  1.038893  0  0  0.099923  0.112424  0  1.043908  0
H  H9  1  0.95848918  0.73528355  0.95011991  1  0  0.107317  0  0.9761  0  0  0.114999  0  1.041723  0  0  0.1186  0  1.038796  0  0  0.099893  0.112406  0  1.043817  0
H  H10  1  0.75529814  0.82356042  0.76031249  1  0  0.087407  0  0.950298  0  0  0.099778  0  1.008339  0  0  0.102359  0  1.008031  0  0  0.094955  0.097907  0  1.008684  0
H  H11  1  0.25530172  0.17643660  0.23968813  1  0  0.087372  0  0.950309  0  0  0.099741  0  1.008356  0  0  0.102324  0  1.008047  0  0  0.094921  0.097869  0  1.0087  0
H  H12  1  0.34934439  0.96043096  0.87380414  1  0  0.0829  0  0.950491  0  0  0.095704  0  1.008628  0  0  0.098157  0  1.00788  0  0  0.09626  0.093942  0  1.009191  0
H  H13  1  0.84936058  0.03957305  0.12619118  1  0  0.082884  0  0.95046  0  0  0.095687  0  1.008608  0  0  0.098113  0  1.007889  0  0  0.096233  0.093922  0  1.00917  0
H  H14  1  0.69898269  0.77153539  0.60136362  1  0  0.078411  0  0.991842  0  0  0.085906  0  1.063879  0  0  0.087974  0  1.063546  0  0  0.076639  0.084245  0  1.064401  0
H  H15  1  0.19898096  0.22846586  0.39863947  1  0  0.078452  0  0.99181  0  0  0.085961  0  1.063822  0  0  0.088031  0  1.063492  0  0  0.076663  0.084299  0  1.064348  0
H  H16  1  0.50750306  0.70552006  0.85600595  1  0  0.100714  0  0.949838  0  0  0.111424  0  1.010646  0  0  0.114628  0  1.008562  0  0  0.10659  0.109157  0  1.012106  0
H  H17  1  0.00749849  0.29448422  0.14399560  1  0  0.10072  0  0.949822  0  0  0.111424  0  1.010635  0  0  0.114625  0  1.008549  0  0  0.106606  0.109156  0  1.012094  0
H  H18  1  0.25302377  0.07312238  0.01719507  1  0  0.080321  0  0.985799  0  0  0.092618  0  1.047812  0  0  0.094457  0  1.04861  0  0  0.094259  0.091268  0  1.047344  0
H  H19  1  0.75299922  0.92687384  0.98280416  1  0  0.080362  0  0.985789  0  0  0.092586  0  1.047878  0  0  0.094425  0  1.048679  0  0  0.09426  0.091252  0  1.047388  0
H  H20  1  0.39561686  0.60500805  0.53813063  1  0  0.089407  0  0.958772  0  0  0.099974  0  1.01852  0  0  0.103029  0  1.017514  0  0  0.088794  0.097701  0  1.019475  0
H  H21  1  0.89562657  0.39499501  0.46187090  1  0  0.089496  0  0.958783  0  0  0.100065  0  1.018497  0  0  0.103113  0  1.017499  0  0  0.088858  0.097791  0  1.019458  0
H  H22  1  0.14870704  0.48858300  0.63233066  1  0  0.08378  0  0.97383  0  0  0.094655  0  1.038104  0  0  0.097454  0  1.036513  0  0  0.090347  0.092495  0  1.039541  0
H  H23  1  0.64870618  0.51141840  0.36767054  1  0  0.083755  0  0.973829  0  0  0.094633  0  1.0381  0  0  0.097432  0  1.036507  0  0  0.090334  0.092472  0  1.039532  0
C  C24  1  0.96469777  0.34530168  0.82288135  1  0  0.345201  0  3.756175  0  0  0.309254  0  4.052543  0  0  0.330409  0  4.063843  0  0  0.227007  0.295291  0  4.044425  0
C  C25  1  0.46469738  0.65469388  0.17711660  1  0  0.345444  0  3.75599  0  0  0.309357  0  4.052479  0  0  0.330517  0  4.063784  0  0  0.226994  0.295392  0  4.044371  0
C  C26  1  0.61961865  0.08324906  0.82445694  1  0  -0.145996  0  3.744418  0  0  -0.166716  0  3.997897  0  0  -0.170372  0  4.01799  0  0  -0.10489  -0.164414  0  3.984601  0
C  C27  1  0.11963686  0.91675244  0.17553983  1  0  -0.14603  0  3.744345  0  0  -0.166788  0  3.997828  0  0  -0.17044  0  4.017909  0  0  -0.104926  -0.164481  0  3.984522  0
C  C28  1  0.67288707  0.25451770  0.92374049  1  0  -0.055308  0  3.772523  0  0  -0.038677  0  4.024459  0  0  -0.041891  0  4.050212  0  0  -0.015901  -0.03662  0  4.007105  0
C  C29  1  0.17288407  0.74548363  0.07626197  1  0  -0.05533  0  3.772484  0  0  -0.03875  0  4.024464  0  0  -0.041963  0  4.050214  0  0  -0.01593  -0.036689  0  4.007105  0
C  C30  1  0.50256479  0.21328105  0.98779860  1  0  -0.102722  0  3.7647  0  0  -0.124819  0  4.018787  0  0  -0.125965  0  4.039085  0  0  -0.097769  -0.123811  0  4.004856  0
C  C31  1  0.00255557  0.78671515  0.01220307  1  0  -0.102698  0  3.764476  0  0  -0.124762  0  4.018539  0  0  -0.125909  0  4.038836  0  0  -0.097758  -0.123758  0  4.004619  0
C  C32  1  0.62142074  0.75013401  0.73276602  1  0  -0.074334  0  3.763307  0  0  -0.084264  0  4.012027  0  0  -0.088473  0  4.03423  0  0  -0.092947  -0.08155  0  3.997024  0
C  C33  1  0.12143510  0.24986749  0.26723329  1  0  -0.074276  0  3.763242  0  0  -0.084213  0  4.011976  0  0  -0.088423  0  4.034177  0  0  -0.092884  -0.081499  0  3.996969  0
C  C34  1  0.17415850  0.52341514  0.81030849  1  0  0.545984  0  3.809832  0  0  0.498596  0  4.094505  0  0  0.52905  0  4.093309  0  0  0.241854  0.477912  0  4.094883  0
C  C35  1  0.67415753  0.47658052  0.18969697  1  0  0.546279  0  3.809335  0  0  0.498864  0  4.094003  0  0  0.529334  0  4.092789  0  0  0.241911  0.478194  0  4.094375  0
C  C36  1  0.44608071  0.04284602  0.88769987  1  0  -0.066824  0  3.789382  0  0  -0.080143  0  4.041218  0  0  -0.081117  0  4.062691  0  0  -0.098076  -0.079299  0  4.026513  0
C  C37  1  0.94608797  0.95715526  0.11229636  1  0  -0.066722  0  3.789247  0  0  -0.080037  0  4.04107  0  0  -0.080986  0  4.062543  0  0  -0.097994  -0.07919  0  4.026357  0
C  C38  1  0.59130134  0.72084017  0.64346725  1  0  -0.041069  0  3.745236  0  0  -0.057719  0  3.992859  0  0  -0.057235  0  4.014528  0  0  -0.090908  -0.0579  0  3.978314  0
C  C39  1  0.09130069  0.27916304  0.35653481  1  0  -0.041039  0  3.745148  0  0  -0.057689  0  3.992742  0  0  -0.057204  0  4.014414  0  0  -0.090908  -0.057868  0  3.978202  0
C  C40  1  0.73460374  0.19004821  0.84237031  1  0  0.197074  0  3.812992  0  0  0.195519  0  4.052418  0  0  0.199827  0  4.077058  0  0  0.082159  0.192635  0  4.035906  0
C  C41  1  0.23460953  0.80995374  0.15763226  1  0  0.197137  0  3.812959  0  0  0.195604  0  4.052359  0  0  0.199919  0  4.077  0  0  0.08221  0.192714  0  4.035846  0
C  C42  1  0.32226942  0.58847327  0.75049315  1  0  -0.074497  0  3.789621  0  0  -0.051287  0  4.021835  0  0  -0.060563  0  4.047358  0  0  -0.023363  -0.045256  0  4.00466  0
C  C43  1  0.82225546  0.41152354  0.24950936  1  0  -0.074563  0  3.789746  0  0  -0.051336  0  4.021926  0  0  -0.060615  0  4.047443  0  0  -0.023375  -0.045308  0  4.004751  0
C  C44  1  0.48606141  0.68468385  0.78624760  1  0  -0.063675  0  3.719051  0  0  -0.088387  0  3.96515  0  0  -0.08729  0  3.984807  0  0  -0.081149  -0.088869  0  3.951735  0
C  C45  1  0.98606428  0.31531892  0.21375455  1  0  -0.06373  0  3.71924  0  0  -0.088442  0  3.965332  0  0  -0.087342  0  3.984989  0  0  -0.081218  -0.088923  0  3.951914  0
C  C46  1  0.38970289  0.10693254  0.96885684  1  0  -0.072443  0  3.774455  0  0  -0.087489  0  4.025471  0  0  -0.090742  0  4.048958  0  0  -0.097418  -0.08529  0  4.009481  0
C  C47  1  0.88970629  0.89306811  0.03114117  1  0  -0.072526  0  3.774393  0  0  -0.08753  0  4.025451  0  0  -0.090783  0  4.048928  0  0  -0.097403  -0.085343  0  4.009456  0
C  C48  1  0.42481156  0.62614313  0.60770040  1  0  -0.071041  0  3.758512  0  0  -0.079813  0  4.004087  0  0  -0.084023  0  4.025535  0  0  -0.096761  -0.077108  0  3.98963  0
C  C49  1  0.92479674  0.37385497  0.39230233  1  0  -0.071323  0  3.75853  0  0  -0.080102  0  4.004154  0  0  -0.084312  0  4.025602  0  0  -0.096901  -0.077399  0  3.989707  0
C  C50  1  0.28981719  0.56002340  0.66082811  1  0  -0.076634  0  3.748204  0  0  -0.098529  0  3.990542  0  0  -0.098066  0  4.012188  0  0  -0.089443  -0.098572  0  3.975789  0
C  C51  1  0.78980551  0.43997918  0.33917394  1  0  -0.076484  0  3.747872  0  0  -0.098387  0  3.990202  0  0  -0.097922  0  4.011841  0  0  -0.08939  -0.09843  0  3.975448  0
S  S52  1  0.82935708  0.38482095  0.92813490  1  0  0.131711  0  2.537397  0  0  0.116784  0  2.881453  0  0  0.117163  0  2.883487  0  0  0.119544  0.116015  0  2.880197  0
S  S53  1  0.32933487  0.61517745  0.07186657  1  0  0.131704  0  2.537474  0  0  0.116819  0  2.881585  0  0  0.117198  0  2.883621  0  0  0.119592  0.116054  0  2.880326  0
I  I54  1  0.14106425  0.97627640  0.62422118  1  0  -0.184954  0  2.098703  0  0  -0.124546  0  2.586183  0  0  -0.13937  0  2.538297  0  0  -0.08488  -0.114614  0  2.620651  0
I  I55  1  0.64104510  0.02372746  0.37577656  1  0  -0.184973  0  2.098683  0  0  -0.124539  0  2.586133  0  0  -0.139386  0  2.538276  0  0  -0.084921  -0.114625  0  2.620614  0
I  I56  1  0.49220602  0.26505141  0.58366961  1  0  -0.342985  0  1.781763  0  0  -0.289932  0  2.235641  0  0  -0.305547  0  2.192976  0  0  -0.155429  -0.279186  0  2.266823  0
I  I57  1  0.99221752  0.73494810  0.41633272  1  0  -0.342978  0  1.781628  0  0  -0.289815  0  2.235315  0  0  -0.30547  0  2.192688  0  0  -0.155419  -0.279103  0  2.266528  0
N  N58  1  0.12149369  0.41498046  0.77840114  1  0  -0.446657  0  3.387099  0  0  -0.390405  0  3.631436  0  0  -0.414013  0  3.636334  0  0  -0.394279  -0.374356  0  3.627769  0
N  N59  1  0.62150271  0.58501456  0.22159218  1  0  -0.446971  0  3.387068  0  0  -0.390601  0  3.631408  0  0  -0.414213  0  3.636308  0  0  -0.394314  -0.374556  0  3.627747  0
N  N60  1  0.90385320  0.24381551  0.78577633  1  0  -0.406372  0  3.292369  0  0  -0.343169  0  3.594895  0  0  -0.361193  0  3.601151  0  0  -0.381631  -0.331449  0  3.590301  0
N  N61  1  0.40386052  0.75618266  0.21422387  1  0  -0.406452  0  3.292332  0  0  -0.343188  0  3.594845  0  0  -0.36124  0  3.601135  0  0  -0.38162  -0.33148  0  3.590279  0
O  O62  1  0.09537505  0.56210183  0.88533295  1  0  -0.515466  0  1.995603  0  0  -0.470084  0  2.232346  0  0  -0.490749  0  2.227354  0  0  -0.266676  -0.455694  0  2.235445  0
O  O63  1  0.59538692  0.43788598  0.11466250  1  0  -0.515591  0  1.995018  0  0  -0.470219  0  2.231771  0  0  -0.49089  0  2.226776  0  0  -0.266725  -0.455832  0  2.234871  0
