# generated using pymatgen
data_AgH8C11(SN)3
_symmetry_space_group_name_H-M   'P 1'
_cell_length_a   8.49215469
_cell_length_b   11.21634172
_cell_length_c   14.21880000
_cell_angle_alpha   90.00000000
_cell_angle_beta   90.00000000
_cell_angle_gamma   107.67513414
_symmetry_Int_Tables_number   1
_chemical_formula_structural   AgH8C11(SN)3
_chemical_formula_sum   'Ag4 H32 C44 S12 N12'
_cell_volume   1290.41911245
_cell_formula_units_Z   4
loop_
 _symmetry_equiv_pos_site_id
 _symmetry_equiv_pos_as_xyz
  1  'x, y, z'
loop_
 _atom_site_type_symbol
 _atom_site_label
 _atom_site_symmetry_multiplicity
 _atom_site_fract_x
 _atom_site_fract_y
 _atom_site_fract_z
 _atom_site_occupancy
 _atom_site_pbe_bader_charge
 _atom_site_pbe_bader_spin_density
 _atom_site_pbe_cm5_charge
 _atom_site_pbe_ddec_charge
 _atom_site_pbe_ddec_spin_density
 _atom_site_pbe_ddec_sum_bond_order
 _atom_site_pbe_magmom
Ag  Ag0  1  0.88653574  0.61301661  0.79998664  1  0.553152  0  0.429875  0.317347  0  2.298138  0
Ag  Ag1  1  0.11346380  0.88698026  0.29998593  1  0.553125  0  0.429845  0.31722  0  2.298117  0
Ag  Ag2  1  0.11346789  0.38698473  0.20001547  1  0.553148  0  0.429837  0.317321  0  2.298003  0
Ag  Ag3  1  0.88653565  0.11301360  0.70001196  1  0.553168  0  0.429869  0.317334  0  2.298167  0
H  H4  1  0.91868719  0.89532602  0.87476510  1  0.089786  0  0.110402  0.083648  0  0.996803  0
H  H5  1  0.08130958  0.60467271  0.37476088  1  0.089814  0  0.110403  0.083658  0  0.99672  0
H  H6  1  0.08131517  0.10468093  0.12524053  1  0.08977  0  0.110401  0.083696  0  0.996785  0
H  H7  1  0.91869213  0.39532676  0.62523349  1  0.089819  0  0.110409  0.083658  0  0.996828  0
H  H8  1  0.13267577  0.09739628  0.91514896  1  0.093007  0  0.095521  0.102491  0  1.052894  0
H  H9  1  0.86732066  0.40260486  0.41514755  1  0.09301  0  0.095531  0.102499  0  1.052917  0
H  H10  1  0.86733173  0.90260880  0.08485386  1  0.093097  0  0.095507  0.102484  0  1.052939  0
H  H11  1  0.13267907  0.59739555  0.58485175  1  0.092999  0  0.095522  0.102489  0  1.052915  0
H  H12  1  0.43282211  0.10254653  0.91810209  1  0.113005  0  0.09647  0.094794  0  1.033219  0
H  H13  1  0.56717314  0.39745460  0.41810139  1  0.113  0  0.096449  0.094742  0  1.033244  0
H  H14  1  0.56718190  0.89745574  0.08190002  1  0.113103  0  0.096467  0.094789  0  1.033226  0
H  H15  1  0.43282809  0.60254954  0.58190002  1  0.112972  0  0.096462  0.094752  0  1.033192  0
H  H16  1  0.50359992  0.90775438  0.88099910  1  0.074581  0  0.096177  0.109071  0  1.039734  0
H  H17  1  0.49639872  0.59224904  0.38099980  1  0.07454  0  0.096179  0.10907  0  1.039769  0
H  H18  1  0.49640720  0.09224977  0.11900160  1  0.074633  0  0.096192  0.109073  0  1.039766  0
H  H19  1  0.50359823  0.40775324  0.61900020  1  0.0746  0  0.096183  0.109103  0  1.039711  0
H  H20  1  0.35810928  0.65933893  0.01566447  1  0.110528  0  0.097521  0.112609  0  1.049317  0
H  H21  1  0.64188856  0.84066542  0.51567010  1  0.110572  0  0.097527  0.112606  0  1.049354  0
H  H22  1  0.64189163  0.34066147  0.98432990  1  0.110496  0  0.09753  0.112652  0  1.049328  0
H  H23  1  0.35811080  0.15933405  0.48432849  1  0.11031  0  0.097517  0.112613  0  1.049382  0
H  H24  1  0.48717833  0.63913467  0.16998903  1  0.106349  0  0.099767  0.098816  0  1.020966  0
H  H25  1  0.51281142  0.86086126  0.66999255  1  0.106373  0  0.099724  0.098762  0  1.020901  0
H  H26  1  0.51281063  0.36085357  0.83000886  1  0.10606  0  0.099721  0.098737  0  1.021073  0
H  H27  1  0.48718831  0.13913915  0.33000535  1  0.106335  0  0.099767  0.098809  0  1.020879  0
H  H28  1  0.78246709  0.63215413  0.17277970  1  0.091331  0  0.100645  0.115484  0  1.022676  0
H  H29  1  0.21752417  0.86784554  0.67278251  1  0.091265  0  0.100612  0.115464  0  1.022649  0
H  H30  1  0.21752616  0.36783598  0.82722100  1  0.091341  0  0.100625  0.115443  0  1.0227  0
H  H31  1  0.78247551  0.13215768  0.32721819  1  0.091269  0  0.100607  0.115452  0  1.022683  0
H  H32  1  0.92920724  0.63906356  0.01974569  1  0.103089  0  0.108238  0.082601  0  1.017543  0
H  H33  1  0.07079446  0.86094454  0.51974499  1  0.103276  0  0.108241  0.082605  0  1.017606  0
H  H34  1  0.07079710  0.36094246  0.98025712  1  0.103123  0  0.108258  0.082643  0  1.017513  0
H  H35  1  0.92920217  0.13905400  0.48025501  1  0.103304  0  0.108247  0.082646  0  1.01754  0
C  C36  1  0.04956693  0.90257792  0.87748615  1  0.455424  0  0.045526  0.110861  0  3.950535  0
C  C37  1  0.95043101  0.59742081  0.37748544  1  0.45518  0  0.045533  0.110879  0  3.950426  0
C  C38  1  0.95043558  0.09742061  0.12251456  1  0.455109  0  0.045515  0.110851  0  3.950514  0
C  C39  1  0.04956716  0.40257866  0.62251245  1  0.455348  0  0.045565  0.110941  0  3.950406  0
C  C40  1  0.16926362  0.01426893  0.90051129  1  -0.00659  0  -0.096557  -0.151056  0  3.992488  0
C  C41  1  0.83073361  0.48573127  0.40051200  1  -0.006639  0  -0.096538  -0.151064  0  3.992527  0
C  C42  1  0.83073798  0.98573615  0.09949081  1  -0.0064  0  -0.096499  -0.151029  0  3.992708  0
C  C43  1  0.16926885  0.51427007  0.59948800  1  -0.006653  0  -0.096567  -0.151094  0  3.992565  0
C  C44  1  0.33471904  0.01680101  0.90169986  1  -0.035511  0  -0.073626  -0.011749  0  3.966616  0
C  C45  1  0.66527894  0.48320106  0.40169916  1  -0.035435  0  -0.073667  -0.011716  0  3.966769  0
C  C46  1  0.66528770  0.98320220  0.09830295  1  -0.035698  0  -0.073623  -0.011722  0  3.966747  0
C  C47  1  0.33471918  0.51680122  0.59830084  1  -0.035433  0  -0.073646  -0.011678  0  3.966667  0
C  C48  1  0.37565153  0.90850389  0.88093018  1  0.026293  0  -0.096413  -0.178574  0  3.983824  0
C  C49  1  0.62434603  0.59149391  0.38093018  1  0.026268  0  -0.096421  -0.178599  0  3.983937  0
C  C50  1  0.62435205  0.09150025  0.11907264  1  0.026132  0  -0.096462  -0.178624  0  3.983786  0
C  C51  1  0.37565177  0.40850463  0.61906982  1  0.026141  0  -0.096447  -0.178681  0  3.983813  0
C  C52  1  0.24692911  0.80122725  0.85855768  1  0.37653  0  0.108044  0.180889  0  4.049857  0
C  C53  1  0.75307113  0.69877429  0.35855909  1  0.3766  0  0.108071  0.180896  0  4.049809  0
C  C54  1  0.75307720  0.19877783  0.14144302  1  0.376562  0  0.108062  0.180926  0  4.049927  0
C  C55  1  0.24692865  0.30122331  0.64144091  1  0.377278  0  0.108102  0.181006  0  4.049836  0
C  C56  1  0.57876584  0.66104196  0.93802923  1  0.380865  0  0.110617  0.185879  0  4.040318  0
C  C57  1  0.42123195  0.83896520  0.43803064  1  0.381109  0  0.11062  0.185825  0  4.040423  0
C  C58  1  0.42123657  0.33896219  0.06196936  1  0.380862  0  0.11067  0.185933  0  4.040573  0
C  C59  1  0.57876586  0.16103333  0.56196936  1  0.381072  0  0.110631  0.185835  0  4.040518  0
C  C60  1  0.48473251  0.65606014  0.01931809  1  0.008025  0  -0.094358  -0.170045  0  3.953633  0
C  C61  1  0.51526843  0.84394608  0.51932160  1  0.007966  0  -0.094315  -0.169985  0  3.953518  0
C  C62  1  0.51527118  0.34393840  0.98068051  1  0.008178  0  -0.094375  -0.170107  0  3.953593  0
C  C63  1  0.48473130  0.15605432  0.48067910  1  0.008239  0  -0.094323  -0.170029  0  3.953596  0
C  C64  1  0.55804814  0.64480706  0.10527822  1  -0.099651  0  -0.070231  -0.013822  0  3.951564  0
C  C65  1  0.44194655  0.85519822  0.60528104  1  -0.099749  0  -0.07023  -0.013769  0  3.951668  0
C  C66  1  0.44195047  0.35519054  0.89471896  1  -0.099771  0  -0.070144  -0.013665  0  3.951505  0
C  C67  1  0.55805313  0.14480499  0.39471826  1  -0.099746  0  -0.070214  -0.013749  0  3.951675  0
C  C68  1  0.72040789  0.63995437  0.10719892  1  0.011845  0  -0.095941  -0.150454  0  3.990688  0
C  C69  1  0.27959235  0.86004717  0.60720033  1  0.011694  0  -0.095882  -0.150408  0  3.990805  0
C  C70  1  0.27959349  0.36004136  0.89279897  1  0.011994  0  -0.096004  -0.150502  0  3.990605  0
C  C71  1  0.72040577  0.13995510  0.39279827  1  0.01189  0  -0.095912  -0.150424  0  3.990757  0
C  C72  1  0.80324136  0.64438973  0.02217909  1  0.479179  0  0.043393  0.103083  0  3.953591  0
C  C73  1  0.19675686  0.85561556  0.52217979  1  0.479074  0  0.04337  0.103072  0  3.953536  0
C  C74  1  0.19676110  0.35561161  0.97782232  1  0.479346  0  0.043415  0.103088  0  3.953393  0
C  C75  1  0.80324170  0.14438484  0.47781951  1  0.478896  0  0.043349  0.102958  0  3.953445  0
C  C76  1  0.84592670  0.81204802  0.65460095  1  0.583154  0  0.133983  0.246445  0  4.304666  0
C  C77  1  0.15407338  0.68794136  0.15460658  1  0.583571  0  0.13419  0.246719  0  4.304859  0
C  C78  1  0.15405819  0.18792712  0.34539764  1  0.582782  0  0.134082  0.246506  0  4.305117  0
C  C79  1  0.84592961  0.31205250  0.84539835  1  0.583333  0  0.133987  0.246425  0  4.304648  0
S  S80  1  0.26638306  0.65198223  0.83075717  1  0.088764  0  0.048516  0.000883  0  2.934632  0
S  S81  1  0.73361601  0.84801931  0.33075857  1  0.088757  0  0.048501  0.000911  0  2.934661  0
S  S82  1  0.73361822  0.34801911  0.16924143  1  0.088685  0  0.048514  0.000912  0  2.934738  0
S  S83  1  0.26638217  0.15198016  0.66923932  1  0.088724  0  0.048548  0.00095  0  2.934779  0
S  S84  1  0.51302458  0.67706164  0.82095465  1  0.055474  0  0.049034  -0.010084  0  2.883688  0
S  S85  1  0.48697481  0.82294365  0.32095746  1  0.055405  0  0.049017  -0.010133  0  2.883842  0
S  S86  1  0.48697858  0.32294438  0.17904394  1  0.055416  0  0.049029  -0.010119  0  2.883784  0
S  S87  1  0.51302337  0.17705582  0.67904324  1  0.055393  0  0.049007  -0.010154  0  2.883813  0
S  S88  1  0.81603862  0.66261211  0.63653473  1  0.043316  0  -0.170308  -0.290438  0  2.669552  0
S  S89  1  0.18396366  0.83738569  0.13653332  1  0.04306  0  -0.170338  -0.290495  0  2.669098  0
S  S90  1  0.18395393  0.33737332  0.36346879  1  0.04321  0  -0.170337  -0.290513  0  2.669165  0
S  S91  1  0.81604116  0.16261565  0.86346246  1  0.043229  0  -0.170319  -0.290426  0  2.669505  0
N  N92  1  0.08753468  0.79779687  0.85619743  1  -1.220294  0  -0.332993  -0.258755  0  3.525151  0
N  N93  1  0.91246481  0.70220280  0.35619602  1  -1.220128  0  -0.33298  -0.258722  0  3.525155  0
N  N94  1  0.91246810  0.20220821  0.14380398  1  -1.219976  0  -0.333005  -0.258815  0  3.525083  0
N  N95  1  0.08753534  0.29779573  0.64380116  1  -1.220835  0  -0.333058  -0.258895  0  3.525137  0
N  N96  1  0.73386464  0.65472953  0.93887248  1  -1.212754  0  -0.330765  -0.26389  0  3.487526  0
N  N97  1  0.26613625  0.84527950  0.43887389  1  -1.21266  0  -0.330778  -0.2639  0  3.487622  0
N  N98  1  0.26614124  0.34527742  0.06112822  1  -1.212694  0  -0.330806  -0.263964  0  3.487746  0
N  N99  1  0.73385995  0.15472091  0.56112682  1  -1.212622  0  -0.330745  -0.26379  0  3.487596  0
N  N100  1  0.86798190  0.92065059  0.66458351  1  -1.268949  0  -0.412535  -0.446046  0  3.312496  0
N  N101  1  0.13202258  0.57935563  0.16458703  1  -1.269114  0  -0.412689  -0.446221  0  3.313103  0
N  N102  1  0.13200889  0.07934513  0.33542071  1  -1.26841  0  -0.412568  -0.445925  0  3.313158  0
N  N103  1  0.86798326  0.42065413  0.83541579  1  -1.269015  0  -0.412523  -0.446024  0  3.31247  0
