# generated using pymatgen
data_AlH12C24(ClO2)3
_symmetry_space_group_name_H-M   'P 1'
_cell_length_a   3.96667102
_cell_length_b   28.55348982
_cell_length_c   28.55458619
_cell_angle_alpha   120.00428126
_cell_angle_beta   90.00471244
_cell_angle_gamma   89.99265790
_symmetry_Int_Tables_number   1
_chemical_formula_structural   AlH12C24(ClO2)3
_chemical_formula_sum   'Al2 H24 C48 Cl6 O12'
_cell_volume   2800.74223137
_cell_formula_units_Z   2
loop_
 _symmetry_equiv_pos_site_id
 _symmetry_equiv_pos_as_xyz
  1  'x, y, z'
loop_
 _atom_site_type_symbol
 _atom_site_label
 _atom_site_symmetry_multiplicity
 _atom_site_fract_x
 _atom_site_fract_y
 _atom_site_fract_z
 _atom_site_occupancy
 _atom_site_pbe_bader_charge
 _atom_site_pbe_bader_spin_density
 _atom_site_pbe_cm5_charge
 _atom_site_pbe_ddec_charge
 _atom_site_pbe_ddec_spin_density
 _atom_site_pbe_ddec_sum_bond_order
 _atom_site_pbe_magmom
Al  Al0  1  0.01529246  0.50000181  0.50000247  1  2.504091  0  0.423232  1.603419  0  2.567029  0
Al  Al1  1  0.01521556  0.16666874  0.83332751  1  2.504237  0  0.42319  1.603327  0  2.567246  0
H  H2  1  0.33671937  0.18384410  0.69985943  1  0.068561  0  0.112082  0.117628  0  0.981605  0
H  H3  1  0.32821646  0.23461382  0.65049433  1  0.057547  0  0.101618  0.10138  0  1.004731  0
H  H4  1  0.63116139  0.37839050  0.79726975  1  0.05197  0  0.102319  0.115134  0  0.997257  0
H  H5  1  0.63110999  0.28826272  0.53606169  1  0.05133  0  0.102311  0.115167  0  0.997287  0
H  H6  1  0.32843120  0.43206551  0.68284418  1  0.057812  0  0.101629  0.101364  0  1.004743  0
H  H7  1  0.33700811  0.48283134  0.63347533  1  0.067593  0  0.112121  0.117666  0  0.981646  0
H  H8  1  0.49831482  0.38664279  0.72104979  1  0.058369  0  0.100182  0.097283  0  1.002206  0
H  H9  1  0.49848962  0.28002373  0.61228896  1  0.058423  0  0.100159  0.097207  0  1.002242  0
H  H10  1  0.33677617  0.01604156  0.81614126  1  0.113941  0  0.112169  0.117847  0  0.981503  0
H  H11  1  0.32830715  0.91588905  0.76537086  1  0.052038  0  0.101564  0.101338  0  1.004941  0
H  H12  1  0.63137954  0.91885219  0.62159546  1  0.056361  0  0.102391  0.115412  0  0.996786  0
H  H13  1  0.63099335  0.74782208  0.71175181  1  0.056238  0  0.102401  0.115203  0  0.997314  0
H  H14  1  0.32851009  0.75079261  0.56795386  1  0.050865  0  0.10167  0.101361  0  1.00498  0
H  H15  1  0.33698659  0.65063859  0.51718528  1  0.117065  0  0.112242  0.117923  0  0.981445  0
H  H16  1  0.49864178  0.83438834  0.61335622  1  0.053369  0  0.100173  0.09717  0  1.002161  0
H  H17  1  0.49845324  0.83228748  0.71998419  1  0.052766  0  0.100243  0.097259  0  1.002367  0
H  H18  1  0.33677361  0.30012079  0.98397019  1  0.090689  0  0.112179  0.117755  0  0.981677  0
H  H19  1  0.32826197  0.34949238  0.08411633  1  0.051671  0  0.101648  0.101443  0  1.004943  0
H  H20  1  0.63127393  0.20272213  0.08111766  1  0.049221  0  0.102375  0.115291  0  0.997181  0
H  H21  1  0.63106359  0.46393223  0.25219487  1  0.049153  0  0.102364  0.115179  0  0.997358  0
H  H22  1  0.32843168  0.31716687  0.24921401  1  0.051756  0  0.101632  0.101372  0  1.005034  0
H  H23  1  0.33694631  0.36655176  0.34936046  1  0.09127  0  0.112191  0.117882  0  0.981532  0
H  H24  1  0.49835028  0.27894144  0.16557725  1  0.048961  0  0.10026  0.097412  0  1.002138  0
H  H25  1  0.49846485  0.38770650  0.16773499  1  0.049527  0  0.100193  0.097221  0  1.00232  0
C  C26  1  0.51347564  0.46666161  0.41735546  1  1.625252  0  0.275489  0.665367  0  4.058139  0
C  C27  1  0.51359146  0.45070640  0.53335499  1  1.606403  0  0.275176  0.664913  0  4.058669  0
C  C28  1  0.51348173  0.58265010  0.54930730  1  1.583973  0  0.275377  0.665452  0  4.057781  0
C  C29  1  0.51343732  0.21595339  0.79997240  1  1.607226  0  0.274984  0.664636  0  4.058347  0
C  C30  1  0.51357478  0.08402234  0.78403756  1  1.583026  0  0.275412  0.665356  0  4.058346  0
C  C31  1  0.51351026  0.20001758  0.91597351  1  1.624408  0  0.275299  0.664928  0  4.05866  0
C  C32  1  0.50586164  0.25071015  0.77482155  1  0.073851  0  -0.011672  -0.096789  0  3.922363  0
C  C33  1  0.40837740  0.22638305  0.72021108  1  0.01644  0  -0.076251  -0.068342  0  3.979599  0
C  C34  1  0.40460963  0.25494979  0.69281509  1  -0.144971  0  -0.091861  -0.141591  0  3.979867  0
C  C35  1  0.48815961  0.31036487  0.71985599  1  0.122746  0  -0.00694  0.132312  0  4.046997  0
C  C36  1  0.57348726  0.33529408  0.77493654  1  -0.007654  0  -0.094846  -0.206048  0  3.951026  0
C  C37  1  0.58902098  0.30596312  0.80189734  1  0.04865  0  0.022938  0.148397  0  4.025283  0
C  C38  1  0.48740199  0.34290074  0.69363195  1  -0.122447  0  -0.087256  -0.12526  0  3.987156  0
C  C39  1  0.48744449  0.32376584  0.63970385  1  -0.025815  0  -0.087179  -0.124933  0  3.987038  0
C  C40  1  0.57350862  0.33136424  0.55839633  1  -0.007415  0  -0.094827  -0.205965  0  3.951052  0
C  C41  1  0.48825242  0.35630170  0.61347981  1  0.123268  0  -0.006945  0.132101  0  4.047382  0
C  C42  1  0.40475804  0.41172052  0.64051837  1  -0.145957  0  -0.091877  -0.141617  0  3.980512  0
C  C43  1  0.40857849  0.44028463  0.61312224  1  0.019003  0  -0.076131  -0.068088  0  3.980162  0
C  C44  1  0.50603102  0.41595091  0.55850942  1  0.072241  0  -0.011766  -0.096972  0  3.922785  0
C  C45  1  0.58908915  0.36069084  0.53143301  1  0.048322  0  0.022951  0.148305  0  4.025425  0
C  C46  1  0.50597881  0.02411074  0.74927205  1  0.034536  0  -0.011911  -0.09736  0  3.922964  0
C  C47  1  0.40849904  0.99383777  0.77360431  1  0.044689  0  -0.076181  -0.068225  0  3.979653  0
C  C48  1  0.40473132  0.93786895  0.74503712  1  -0.186115  0  -0.091815  -0.141613  0  3.980033  0
C  C49  1  0.48830830  0.90949214  0.68962178  1  0.023466  0  -0.007016  0.132209  0  4.046791  0
C  C50  1  0.57370047  0.93963492  0.66469379  1  -0.076043  0  -0.09482  -0.206333  0  3.950665  0
C  C51  1  0.58921856  0.99593221  0.69402170  1  0.185988  0  0.022986  0.148588  0  4.025257  0
C  C52  1  0.48759446  0.85072572  0.65709733  1  -0.056713  0  -0.087313  -0.125019  0  3.987166  0
C  C53  1  0.48743420  0.81594904  0.67624265  1  0.043695  0  -0.08721  -0.125189  0  3.987422  0
C  C54  1  0.57341204  0.72704101  0.66865065  1  -0.076739  0  -0.094835  -0.206081  0  3.951462  0
C  C55  1  0.48821531  0.75718325  0.64371196  1  0.023817  0  -0.006959  0.132384  0  4.047158  0
C  C56  1  0.40472777  0.72880571  0.58829386  1  -0.185262  0  -0.091874  -0.141509  0  3.980014  0
C  C57  1  0.40851803  0.67283736  0.55973043  1  0.041681  0  -0.076331  -0.06847  0  3.979824  0
C  C58  1  0.50591888  0.64256303  0.58407000  1  0.035384  0  -0.011918  -0.097294  0  3.922979  0
C  C59  1  0.58893761  0.67074319  0.63932971  1  0.186409  0  0.023002  0.148369  0  4.025696  0
C  C60  1  0.50593236  0.22516298  0.97588311  1  0.006042  0  -0.011729  -0.096824  0  3.922949  0
C  C61  1  0.40845341  0.27977798  0.00616499  1  0.037065  0  -0.076353  -0.06849  0  3.980095  0
C  C62  1  0.40468220  0.30717192  0.06213208  1  -0.042769  0  -0.091841  -0.14153  0  3.980393  0
C  C63  1  0.48822639  0.28013002  0.09050068  1  -0.024924  0  -0.006913  0.132354  0  4.047077  0
C  C64  1  0.57360547  0.22504862  0.06034952  1  0.057673  0  -0.094876  -0.206218  0  3.950955  0
C  C65  1  0.58915443  0.19808546  0.00405220  1  0.036326  0  0.022916  0.148288  0  4.025582  0
C  C66  1  0.48743651  0.30636117  0.14926190  1  -0.113753  0  -0.087435  -0.12558  0  3.987268  0
C  C67  1  0.48740048  0.36029411  0.18405832  1  -0.02534  0  -0.087131  -0.124867  0  3.986854  0
C  C68  1  0.57342378  0.44160842  0.27296404  1  0.056912  0  -0.09484  -0.206154  0  3.950881  0
C  C69  1  0.48821901  0.38652254  0.24282088  1  -0.024294  0  -0.006915  0.132464  0  4.047032  0
C  C70  1  0.40468103  0.35949472  0.27119990  1  -0.042778  0  -0.091903  -0.141685  0  3.98051  0
C  C71  1  0.40848291  0.38689890  0.32716798  1  0.037021  0  -0.076183  -0.068317  0  3.979565  0
C  C72  1  0.50593760  0.44151302  0.35744338  1  0.005667  0  -0.011881  -0.097242  0  3.922631  0
C  C73  1  0.58897141  0.46858259  0.32926168  1  0.03711  0  0.022957  0.148456  0  4.025358  0
Cl  Cl74  1  0.69595508  0.34075230  0.86967015  1  -0.20543  0  -0.015129  -0.083561  0  1.50966  0
Cl  Cl75  1  0.69597667  0.32589660  0.46365915  1  -0.204761  0  -0.015177  -0.083549  0  1.509605  0
Cl  Cl76  1  0.69619550  0.02891320  0.65923826  1  -0.201761  0  -0.015105  -0.083497  0  1.509744  0
Cl  Cl77  1  0.69578918  0.63775631  0.67411526  1  -0.201534  0  -0.015141  -0.08349  0  1.509743  0
Cl  Cl78  1  0.69613841  0.13030940  0.97106072  1  -0.189701  0  -0.015132  -0.083518  0  1.50975  0
Cl  Cl79  1  0.69590677  0.53635445  0.36225078  1  -0.190272  0  -0.015235  -0.083612  0  1.509697  0
O  O80  1  0.75206660  0.55661609  0.55576186  1  -1.249562  0  -0.234679  -0.595339  0  2.411472  0
O  O81  1  0.75206539  0.49914623  0.44338585  1  -1.251274  0  -0.234766  -0.595276  0  2.41148  0
O  O82  1  0.75213539  0.44423996  0.50086154  1  -1.24519  0  -0.234752  -0.595094  0  2.411347  0
O  O83  1  0.28112633  0.56145321  0.51377088  1  -1.262771  0  -0.236948  -0.595031  0  2.363291  0
O  O84  1  0.28120441  0.48624082  0.54768810  1  -1.261232  0  -0.236802  -0.594908  0  2.363726  0
O  O85  1  0.28119029  0.45231821  0.43855263  1  -1.260475  0  -0.236916  -0.595039  0  2.363536  0
O  O86  1  0.75209647  0.16752482  0.88994135  1  -1.250449  0  -0.234741  -0.595203  0  2.411629  0
O  O87  1  0.75198615  0.22241931  0.83247046  1  -1.246103  0  -0.234653  -0.59516  0  2.411448  0
O  O88  1  0.75209274  0.11005562  0.77757730  1  -1.249022  0  -0.234758  -0.59534  0  2.411655  0
O  O89  1  0.28115159  0.21435798  0.89477882  1  -1.260821  0  -0.236849  -0.594763  0  2.363426  0
O  O90  1  0.28122564  0.10522177  0.81957230  1  -1.262079  0  -0.236915  -0.59503  0  2.363563  0
O  O91  1  0.28109462  0.18042252  0.78563940  1  -1.26169  0  -0.236595  -0.594507  0  2.363446  0
