# generated using pymatgen
data_CuH14C18(NO)4
_symmetry_space_group_name_H-M   'P 1'
_cell_length_a   5.37539217
_cell_length_b   15.04574130
_cell_length_c   24.20760590
_cell_angle_alpha   89.99990903
_cell_angle_beta   94.58426600
_cell_angle_gamma   90.00017180
_symmetry_Int_Tables_number   1
_chemical_formula_structural   CuH14C18(NO)4
_chemical_formula_sum   'Cu4 H56 C72 N16 O16'
_cell_volume   1951.56936137
_cell_formula_units_Z   4
loop_
 _symmetry_equiv_pos_site_id
 _symmetry_equiv_pos_as_xyz
  1  'x, y, z'
loop_
 _atom_site_type_symbol
 _atom_site_label
 _atom_site_symmetry_multiplicity
 _atom_site_fract_x
 _atom_site_fract_y
 _atom_site_fract_z
 _atom_site_occupancy
 _atom_site_pbe_bader_charge
 _atom_site_pbe_bader_spin_density
 _atom_site_pbe_cm5_charge
 _atom_site_pbe_ddec_charge
 _atom_site_pbe_ddec_spin_density
 _atom_site_pbe_ddec_sum_bond_order
 _atom_site_pbe_magmom
Cu  Cu0  1  0.76534458  0.08589611  0.26408827  1  1.053213  0.553877  0.743176  0.783908  0.737773  2.176114  0.554
Cu  Cu1  1  0.23467224  0.58589984  0.23591152  1  1.053087  -0.55385  0.743131  0.783858  -0.737734  2.175898  -0.554
Cu  Cu2  1  0.23460697  0.91409974  0.73590273  1  1.053328  0.553843  0.743045  0.783812  0.737688  2.175958  0.554
Cu  Cu3  1  0.76536885  0.41409668  0.76409513  1  1.053309  -0.553852  0.743045  0.783773  -0.737708  2.176079  -0.554
H  H4  1  0.33427642  0.94753706  0.27119976  1  0.26225  0.000382  0.143054  0.133149  0.000118  1.040468  0.0
H  H5  1  0.66571006  0.44753000  0.22880572  1  0.262372  -0.000382  0.143015  0.133154  -0.000118  1.040615  0.0
H  H6  1  0.66567695  0.05245813  0.72880615  1  0.262242  0.000382  0.143016  0.133084  0.000118  1.040459  0.0
H  H7  1  0.33429185  0.55245987  0.77119486  1  0.262424  -0.000382  0.142983  0.133111  -0.000118  1.040411  0.0
H  H8  1  0.97197421  0.39303206  0.44495945  1  0.08484  0.000562  0.107135  0.115889  0.000306  0.994753  0.0
H  H9  1  0.02795768  0.89303537  0.05503932  1  0.084972  -0.000561  0.1071  0.115925  -0.000306  0.994557  0.0
H  H10  1  0.02793628  0.60696378  0.55503123  1  0.085035  0.000562  0.107051  0.115859  0.000306  0.994661  0.0
H  H11  1  0.97212449  0.10695582  0.94496063  1  0.084705  -0.000562  0.10702  0.115736  -0.000306  0.994637  0.0
H  H12  1  0.65289145  0.77650056  0.44157662  1  0.073489  0.000554  0.105084  0.11364  0.000293  1.008285  0.0
H  H13  1  0.34709721  0.27650026  0.05843279  1  0.073693  -0.000554  0.105116  0.113657  -0.000293  1.00831  0.0
H  H14  1  0.34713285  0.22350127  0.55842808  1  0.073397  0.000554  0.105084  0.113572  0.000293  1.00835  0.0
H  H15  1  0.65289912  0.72350888  0.94156438  1  0.073567  -0.000554  0.105106  0.113637  -0.000293  1.00829  0.0
H  H16  1  0.20053407  0.22581050  0.27503254  1  0.276308  0.000386  0.144826  0.136798  0.000127  1.039684  0.0
H  H17  1  0.79946721  0.72581878  0.22497344  1  0.276299  -0.000386  0.1448  0.136708  -0.000127  1.039765  0.0
H  H18  1  0.79941375  0.77418601  0.72495840  1  0.276439  0.000386  0.144758  0.136712  0.000127  1.03969  0.0
H  H19  1  0.20056642  0.27419701  0.77503308  1  0.276191  -0.000387  0.144803  0.136818  -0.000127  1.039748  0.0
H  H20  1  0.25459233  0.96590344  0.46979486  1  0.058173  -2.3e-05  0.09865  0.101586  -1e-05  0.997414  0.0
H  H21  1  0.74540365  0.46590690  0.03020912  1  0.058053  2.3e-05  0.098746  0.101649  1e-05  0.997312  0.0
H  H22  1  0.74541894  0.03410305  0.53019680  1  0.058428  -2.3e-05  0.098698  0.101604  -1e-05  0.997382  0.0
H  H23  1  0.25458891  0.53410157  0.96979667  1  0.058298  2.3e-05  0.098671  0.101618  1e-05  0.997388  0.0
H  H24  1  0.50156855  0.11549823  0.38313530  1  0.095133  0.000265  0.104428  0.114167  0.000147  1.026106  0.0
H  H25  1  0.49842240  0.61550715  0.11686730  1  0.095022  -0.000265  0.10432  0.11406  -0.000147  1.026223  0.0
H  H26  1  0.49838674  0.88449628  0.61685288  1  0.09543  0.000265  0.104437  0.114172  0.000147  1.026246  0.0
H  H27  1  0.50163172  0.38449268  0.88315156  1  0.095599  -0.000265  0.104402  0.114203  -0.000147  1.026092  0.0
H  H28  1  0.10756183  0.05064249  0.38439600  1  0.06867  0.000279  0.101698  0.111809  0.00015  1.02552  0.0
H  H29  1  0.89243225  0.55064248  0.11561086  1  0.068507  -0.000278  0.101691  0.111844  -0.00015  1.025394  0.0
H  H30  1  0.89241956  0.94936732  0.61560091  1  0.069109  0.000278  0.101706  0.111784  0.00015  1.025416  0.0
H  H31  1  0.10756590  0.44935869  0.88439916  1  0.068971  -0.000279  0.101699  0.111756  -0.00015  1.025581  0.0
H  H32  1  0.46404933  0.34523970  0.33350311  1  0.102658  0.00023  0.123839  0.13329  0.000116  0.976111  0.0
H  H33  1  0.53593438  0.84524853  0.16649788  1  0.102401  -0.000229  0.123835  0.133265  -0.000115  0.976067  0.0
H  H34  1  0.53592833  0.65474286  0.66649579  1  0.102677  0.00023  0.123875  0.133345  0.000116  0.976019  0.0
H  H35  1  0.46409741  0.15475595  0.83349662  1  0.102523  -0.00023  0.123848  0.133282  -0.000116  0.975958  0.0
H  H36  1  0.31260601  0.40243914  0.38505529  1  0.083232  0.000417  0.118443  0.117341  0.000226  0.973329  0.0
H  H37  1  0.68737448  0.90244160  0.11494434  1  0.083179  -0.000416  0.118441  0.1173  -0.000226  0.973425  0.0
H  H38  1  0.68737351  0.59754275  0.61494530  1  0.083022  0.000417  0.118457  0.117321  0.000226  0.97346  0.0
H  H39  1  0.31266476  0.09755492  0.88505401  1  0.083365  -0.000417  0.118377  0.117214  -0.000226  0.973242  0.0
H  H40  1  0.62350404  0.33565414  0.49707138  1  0.058184  1e-05  0.099097  0.096249  1.2e-05  0.999882  0.0
H  H41  1  0.37638817  0.83564594  0.00291435  1  0.057806  -1e-05  0.099218  0.096385  -1.2e-05  1.00001  0.0
H  H42  1  0.37638035  0.66435301  0.50290933  1  0.057702  1e-05  0.099259  0.096459  1.2e-05  1.000044  0.0
H  H43  1  0.62367347  0.16433130  0.99708647  1  0.057528  -1e-05  0.099207  0.096349  -1.2e-05  1.000129  0.0
H  H44  1  0.39131482  0.19951853  0.46637351  1  0.073455  -1.9e-05  0.095328  0.093502  -1e-05  1.041604  0.0
H  H45  1  0.60859295  0.69951380  0.03361553  1  0.073937  1.9e-05  0.095251  0.093419  1e-05  1.041795  0.0
H  H46  1  0.60858636  0.80047997  0.53361040  1  0.074308  -1.9e-05  0.095266  0.093364  -1e-05  1.042004  0.0
H  H47  1  0.39146493  0.30046476  0.96639472  1  0.074624  1.9e-05  0.095347  0.093473  1e-05  1.041915  0.0
H  H48  1  0.03284500  0.83191455  0.49763288  1  0.068288  -1.3e-05  0.09114  0.090263  -6e-06  1.059679  0.0
H  H49  1  0.96715163  0.33191364  0.00237373  1  0.068472  1.3e-05  0.091077  0.090233  6e-06  1.059526  0.0
H  H50  1  0.96718678  0.16809525  0.50236576  1  0.068271  -1.3e-05  0.091088  0.090219  -6e-06  1.059619  0.0
H  H51  1  0.03284656  0.66809882  0.99762389  1  0.068567  1.3e-05  0.09117  0.090307  6e-06  1.059578  0.0
H  H52  1  0.09394824  0.83203508  0.33037135  1  0.125847  0.000215  0.122694  0.131725  0.000102  0.981122  0.0
H  H53  1  0.90605398  0.33203704  0.16963990  1  0.125697  -0.000215  0.12278  0.131871  -0.000103  0.981101  0.0
H  H54  1  0.90605550  0.16795345  0.66964414  1  0.125658  0.000215  0.122765  0.131909  0.000103  0.980948  0.0
H  H55  1  0.09395351  0.66796081  0.83036780  1  0.125797  -0.000215  0.122703  0.131792  -0.000102  0.981067  0.0
H  H56  1  0.27616022  0.77308088  0.38208917  1  0.092851  0.000415  0.11985  0.120866  0.000219  0.972764  0.0
H  H57  1  0.72387694  0.27308811  0.11791864  1  0.092913  -0.000415  0.119808  0.120916  -0.000219  0.972832  0.0
H  H58  1  0.72386965  0.22691496  0.61792513  1  0.093024  0.000415  0.119846  0.120947  0.000219  0.972964  0.0
H  H59  1  0.27617725  0.72692103  0.88207833  1  0.093138  -0.000415  0.119869  0.120947  -0.000219  0.972857  0.0
C  C60  1  0.80043735  0.20632542  0.36765576  1  0.405724  0.001553  0.089088  0.145236  0.001497  4.048101  0.001
C  C61  1  0.19951335  0.70633402  0.13234891  1  0.40618  -0.001551  0.089098  0.145403  -0.001495  4.04807  -0.001
C  C62  1  0.19949553  0.79366909  0.63233490  1  0.406509  0.001552  0.089241  0.145592  0.001496  4.047769  0.001
C  C63  1  0.80050907  0.29366448  0.86766071  1  0.406448  -0.001552  0.089253  0.145714  -0.001497  4.047949  -0.001
C  C64  1  0.79273628  0.96261983  0.36641667  1  0.383733  0.001617  0.086036  0.14172  0.001568  4.050688  0.001
C  C65  1  0.20728582  0.46262320  0.13358489  1  0.383281  -0.001617  0.086037  0.141744  -0.001568  4.050644  -0.001
C  C66  1  0.20726191  0.03738000  0.63358219  1  0.383664  0.001616  0.086034  0.141777  0.001568  4.050892  0.001
C  C67  1  0.79274782  0.53738062  0.86641584  1  0.383962  -0.001616  0.086032  0.141789  -0.001568  4.050647  -0.001
C  C68  1  0.47210474  0.94145562  0.30646665  1  0.952002  -0.00088  0.166671  0.143235  -0.000167  3.863581  0.0
C  C69  1  0.52789288  0.44145184  0.19354028  1  0.951444  0.00088  0.166725  0.143144  0.000167  3.863852  0.0
C  C70  1  0.52786169  0.05854022  0.69353949  1  0.951905  -0.000882  0.16689  0.14342  -0.000168  3.863196  0.0
C  C71  1  0.47212769  0.55854334  0.80646188  1  0.951725  0.000878  0.166923  0.143521  0.000166  3.863153  0.0
C  C72  1  0.87256779  0.33249464  0.43186762  1  -0.078029  1.7e-05  -0.094996  -0.16604  6.6e-05  4.015565  0.0
C  C73  1  0.12736168  0.83249269  0.06813241  1  -0.078614  -1.7e-05  -0.094915  -0.165858  -6.6e-05  4.016  0.0
C  C74  1  0.12736138  0.66750586  0.56811761  1  -0.077982  1.7e-05  -0.094857  -0.16593  6.6e-05  4.015633  0.0
C  C75  1  0.87269248  0.16749850  0.93187406  1  -0.077375  -1.6e-05  -0.09486  -0.165641  -6.6e-05  4.015562  0.0
C  C76  1  0.74821579  0.83680872  0.42993372  1  -0.031577  5e-06  -0.096611  -0.170427  6.7e-05  4.0222  0.0
C  C77  1  0.25180328  0.33680896  0.07007452  1  -0.03222  -7e-06  -0.096594  -0.170081  -6.8e-05  4.021979  0.0
C  C78  1  0.25181225  0.16319777  0.57006650  1  -0.032285  6e-06  -0.096462  -0.169984  6.8e-05  4.021633  0.0
C  C79  1  0.74822104  0.66320483  0.92992481  1  -0.032461  -7e-06  -0.09658  -0.169965  -6.8e-05  4.021606  0.0
C  C80  1  0.93272334  0.28437081  0.38538428  1  0.355881  0.003294  0.097688  0.090531  0.002282  3.999377  0.003
C  C81  1  0.06722622  0.78437799  0.11461492  1  0.354396  -0.003295  0.097526  0.090184  -0.002281  4.000221  -0.003
C  C82  1  0.06720395  0.71562571  0.61460670  1  0.354499  0.003296  0.09759  0.090227  0.002282  3.999407  0.003
C  C83  1  0.93281488  0.21562184  0.88538636  1  0.353783  -0.003296  0.097568  0.090149  -0.002282  3.999646  -0.003
C  C84  1  0.66485041  0.88580466  0.38310280  1  0.31946  0.003465  0.09445  0.089791  0.002396  4.004559  0.003
C  C85  1  0.33517658  0.38580753  0.11690388  1  0.319877  -0.003465  0.094486  0.089684  -0.002396  4.004695  -0.003
C  C86  1  0.33516829  0.11419584  0.61690262  1  0.320093  0.003465  0.09441  0.089504  0.002397  4.004572  0.003
C  C87  1  0.66485894  0.61419630  0.88309441  1  0.320192  -0.003464  0.09453  0.089644  -0.002396  4.0047  -0.003
C  C88  1  0.08370710  0.23044627  0.30967500  1  0.952098  -0.000589  0.169469  0.144595  6.8e-05  3.861121  0.0
C  C89  1  0.91629048  0.73044676  0.19033049  1  0.952069  0.000589  0.169389  0.144671  -6.8e-05  3.861382  0.0
C  C90  1  0.91625191  0.76955290  0.69031614  1  0.951855  -0.000587  0.169445  0.144484  6.9e-05  3.861149  0.0
C  C91  1  0.08373381  0.26955972  0.80967586  1  0.951851  0.000588  0.169497  0.144575  -6.9e-05  3.861229  0.0
C  C92  1  0.08877689  0.94420622  0.44456599  1  -0.022962  -0.000671  -0.10022  -0.090265  -0.000425  4.039991  0.0
C  C93  1  0.91124130  0.44420447  0.05543634  1  -0.022161  0.00067  -0.100348  -0.090359  0.000424  4.039884  0.0
C  C94  1  0.91124743  0.05579694  0.55543251  1  -0.023044  -0.000671  -0.100312  -0.090359  -0.000425  4.040052  0.0
C  C95  1  0.08877181  0.55580600  0.94456527  1  -0.02301  0.00067  -0.100269  -0.090253  0.000424  4.040409  0.0
C  C96  1  0.60399121  0.17495762  0.39680077  1  -0.050977  0.000783  -0.091703  -0.150516  0.000467  3.978367  0.001
C  C97  1  0.39597601  0.67495983  0.10320506  1  -0.050328  -0.000783  -0.091623  -0.150612  -0.000467  3.978039  -0.001
C  C98  1  0.39594728  0.82504288  0.60319000  1  -0.05152  0.000783  -0.091737  -0.150715  0.000467  3.978233  0.001
C  C99  1  0.60407066  0.32503403  0.89680706  1  -0.048828  -0.000784  -0.091725  -0.150938  -0.000468  3.978397  -0.001
C  C100  1  0.00801072  0.99222182  0.39734040  1  -0.054703  0.000732  -0.094776  -0.159491  0.000447  3.98486  0.001
C  C101  1  0.99200604  0.49222401  0.10266433  1  -0.054683  -0.000732  -0.094818  -0.1596  -0.000447  3.98445  -0.001
C  C102  1  0.99200054  0.00778666  0.60265828  1  -0.054864  0.000732  -0.094704  -0.159341  0.000447  3.984998  0.001
C  C103  1  0.00801825  0.50778247  0.89734367  1  -0.054852  -0.000733  -0.094752  -0.159404  -0.000447  3.985027  -0.001
C  C104  1  0.28268095  0.37040287  0.34440926  1  0.30544  -0.009918  -0.048564  -0.197943  -0.007259  3.8584  -0.007
C  C105  1  0.71729366  0.87040725  0.15559072  1  0.305578  0.009911  -0.048627  -0.197908  0.007254  3.858393  0.007
C  C106  1  0.71729671  0.62958368  0.65558924  1  0.305387  -0.009915  -0.048706  -0.198345  -0.007257  3.85855  -0.007
C  C107  1  0.28273814  0.12959259  0.84440337  1  0.305536  0.00992  -0.048588  -0.197868  0.00726  3.857979  0.007
C  C108  1  0.67588820  0.30015579  0.46043838  1  -0.065642  0.000243  -0.101785  -0.104402  0.000173  4.06851  0.0
C  C109  1  0.32401674  0.80015742  0.03955298  1  -0.064883  -0.000243  -0.102094  -0.105024  -0.000173  4.068895  0.0
C  C110  1  0.32400364  0.69984537  0.53954701  1  -0.065655  0.000243  -0.102084  -0.104928  0.000173  4.069221  0.0
C  C111  1  0.67603556  0.19982978  0.96044974  1  -0.065481  -0.000244  -0.102106  -0.105038  -0.000173  4.069332  0.0
C  C112  1  0.54392384  0.22275910  0.44312954  1  -0.016752  -0.000679  -0.103417  -0.102927  -0.000421  4.047979  0.0
C  C113  1  0.45601398  0.72275815  0.05686414  1  -0.017464  0.000679  -0.103137  -0.10234  0.000421  4.047129  0.0
C  C114  1  0.45600347  0.77724074  0.55685524  1  -0.017612  -0.00068  -0.103181  -0.102377  -0.000422  4.04749  0.0
C  C115  1  0.54401031  0.27722772  0.94314221  1  -0.020225  0.00068  -0.103257  -0.102341  0.000422  4.04718  0.0
C  C116  1  0.96125531  0.86777435  0.46062150  1  0.002267  0.000238  -0.103107  -0.101685  0.000163  4.048505  0.0
C  C117  1  0.03877151  0.36777248  0.03938602  1  0.001942  -0.000238  -0.103003  -0.101768  -0.000163  4.048342  0.0
C  C118  1  0.03877088  0.13223146  0.53937703  1  0.002454  0.000238  -0.103106  -0.101796  0.000163  4.048239  0.0
C  C119  1  0.96125467  0.63223666  0.96061334  1  0.002075  -0.000238  -0.103151  -0.102025  -0.000163  4.048698  0.0
C  C120  1  0.28017279  0.80424391  0.34124405  1  0.288741  -0.009484  -0.048339  -0.197512  -0.006968  3.85656  -0.007
C  C121  1  0.71984225  0.30424704  0.15876374  1  0.289131  0.009476  -0.048275  -0.197891  0.006963  3.856946  0.007
C  C122  1  0.71983655  0.19575194  0.65876864  1  0.289192  -0.009479  -0.048328  -0.197957  -0.006966  3.856961  -0.007
C  C123  1  0.28017275  0.69575878  0.84123170  1  0.289033  0.009474  -0.048286  -0.197756  0.006962  3.856951  0.007
C  C124  1  0.18942450  0.43926023  0.30042558  1  1.616575  0.001  0.20017  0.59444  -0.000453  4.199844  0.003
C  C125  1  0.81056194  0.93926127  0.19957123  1  1.616388  -0.000998  0.200366  0.594639  0.000453  4.199487  -0.003
C  C126  1  0.81058673  0.56074292  0.69957971  1  1.61612  0.000998  0.200132  0.594668  -0.000453  4.199625  0.003
C  C127  1  0.18942881  0.06073856  0.80041800  1  1.616278  -0.001001  0.200293  0.594727  0.000449  4.199125  -0.003
C  C128  1  0.33217661  0.73381940  0.29759573  1  1.60221  0.001014  0.198877  0.593479  -0.000401  4.194644  0.003
C  C129  1  0.66784901  0.23381374  0.20240448  1  1.601737  -0.001013  0.198799  0.593558  0.0004  4.194089  -0.003
C  C130  1  0.66785140  0.26617910  0.70241276  1  1.601696  0.001013  0.198679  0.593205  -0.0004  4.194745  0.003
C  C131  1  0.33212494  0.76618543  0.79758693  1  1.60079  -0.001014  0.198762  0.593437  0.000398  4.19474  -0.003
N  N132  1  0.90103322  0.17458499  0.32023463  1  -1.18577  0.071421  -0.374765  -0.372832  0.049755  3.600702  0.062
N  N133  1  0.09896571  0.67459271  0.17977342  1  -1.185025  -0.071394  -0.374739  -0.372896  -0.049738  3.600982  -0.062
N  N134  1  0.09890713  0.82541751  0.67975535  1  -1.184512  0.071414  -0.374889  -0.373041  0.049754  3.600671  0.062
N  N135  1  0.90106976  0.32541776  0.82023891  1  -1.184768  -0.071406  -0.374907  -0.373049  -0.049747  3.600877  -0.062
N  N136  1  0.66612488  0.99538724  0.31820462  1  -1.191449  0.071721  -0.377815  -0.37697  0.049982  3.611275  0.063
N  N137  1  0.33389377  0.49538862  0.18179808  1  -1.190893  -0.071728  -0.377696  -0.376786  -0.049987  3.611447  -0.063
N  N138  1  0.33384903  0.00460861  0.68179670  1  -1.191865  0.071724  -0.377919  -0.377139  0.049983  3.611307  0.063
N  N139  1  0.66612867  0.50460855  0.81820410  1  -1.191832  -0.071735  -0.377892  -0.37714  -0.049991  3.611269  -0.063
N  N140  1  0.46189661  0.87555786  0.34448152  1  -1.245294  -0.000334  -0.235978  0.007755  -4.4e-05  3.761161  0.0
N  N141  1  0.53810789  0.37555551  0.15552436  1  -1.245544  0.000331  -0.236174  0.007709  4.3e-05  3.761296  0.0
N  N142  1  0.53809595  0.12443932  0.65552551  1  -1.245226  -0.000333  -0.236153  0.007909  -4.4e-05  3.760844  0.0
N  N143  1  0.46191270  0.62444832  0.84447366  1  -1.245467  0.00033  -0.236148  0.007647  4.2e-05  3.760914  0.0
N  N144  1  0.11188895  0.29647356  0.34789058  1  -1.247233  -3.8e-05  -0.238831  0.00488  0.000156  3.762011  0.0
N  N145  1  0.88807564  0.79647412  0.15211591  1  -1.246977  3.6e-05  -0.238594  0.005117  -0.000156  3.76231  0.0
N  N146  1  0.88804954  0.70352495  0.65210143  1  -1.247296  -3.7e-05  -0.238623  0.005568  0.000156  3.761857  0.0
N  N147  1  0.11197106  0.20353103  0.84788837  1  -1.247238  3.6e-05  -0.23867  0.005152  -0.000157  3.762399  0.0
O  O148  1  0.34571572  0.50341202  0.29654886  1  -1.099402  -0.117903  -0.332424  -0.523874  -0.077858  2.280895  -0.106
O  O149  1  0.65428168  0.00341498  0.20345397  1  -1.09944  0.117878  -0.332483  -0.523993  0.077844  2.280994  0.106
O  O150  1  0.65432539  0.49657186  0.70345118  1  -1.099163  -0.117895  -0.332453  -0.524026  -0.077854  2.280586  -0.106
O  O151  1  0.34572396  0.99657422  0.79654998  1  -1.09949  0.117922  -0.332514  -0.524111  0.077871  2.280347  0.106
O  O152  1  0.98716474  0.42823892  0.27254047  1  -1.19082  -0.001131  -0.322329  -0.55587  -0.000411  2.171715  -0.002
O  O153  1  0.01283840  0.92824578  0.22745501  1  -1.19057  0.001131  -0.322443  -0.555972  0.000411  2.171454  0.002
O  O154  1  0.01281849  0.57178484  0.72746515  1  -1.19045  -0.001129  -0.322214  -0.555844  -0.00041  2.171805  -0.002
O  O155  1  0.98717848  0.07178197  0.77253675  1  -1.190346  0.00113  -0.322264  -0.555871  0.000411  2.171538  0.002
O  O156  1  0.16793762  0.67124016  0.29486324  1  -1.086174  -0.11778  -0.33317  -0.523107  -0.077766  2.27565  -0.106
O  O157  1  0.83210420  0.17123730  0.20514723  1  -1.086588  0.117777  -0.333277  -0.523185  0.07776  2.275396  0.106
O  O158  1  0.83212211  0.32874572  0.70515283  1  -1.086331  -0.117765  -0.333132  -0.522971  -0.077752  2.27592  -0.106
O  O159  1  0.16782681  0.82874924  0.79484423  1  -1.085923  0.117768  -0.333248  -0.523165  0.077753  2.275461  0.106
O  O160  1  0.51238967  0.74187230  0.26875262  1  -1.193804  -0.001064  -0.322006  -0.555909  -0.000372  2.172577  -0.001
O  O161  1  0.48762670  0.24184646  0.23124576  1  -1.193187  0.00106  -0.321976  -0.555888  0.00037  2.172519  0.001
O  O162  1  0.48758984  0.25814149  0.73125211  1  -1.19357  -0.001065  -0.321881  -0.555752  -0.000372  2.172273  -0.001
O  O163  1  0.51238083  0.75815803  0.76874872  1  -1.193042  0.001061  -0.321913  -0.555832  0.000371  2.172581  0.001
