# generated using pymatgen
data_ZnH12C6(NCl)2
_symmetry_space_group_name_H-M   'P 1'
_cell_length_a   6.48996744
_cell_length_b   11.58427120
_cell_length_c   11.59005854
_cell_angle_alpha   89.99998735
_cell_angle_beta   90.00000936
_cell_angle_gamma   90.00003070
_symmetry_Int_Tables_number   1
_chemical_formula_structural   ZnH12C6(NCl)2
_chemical_formula_sum   'Zn4 H48 C24 N8 Cl8'
_cell_volume   871.35848430
_cell_formula_units_Z   4
loop_
 _symmetry_equiv_pos_site_id
 _symmetry_equiv_pos_as_xyz
  1  'x, y, z'
loop_
 _atom_site_type_symbol
 _atom_site_label
 _atom_site_symmetry_multiplicity
 _atom_site_fract_x
 _atom_site_fract_y
 _atom_site_fract_z
 _atom_site_occupancy
 _atom_site_hle17_bader_spin_density
 _atom_site_hle17_ddec_charge
 _atom_site_hle17_ddec_spin_density
 _atom_site_hle17_ddec_sum_bond_order
 _atom_site_hle17_magmom
 _atom_site_hse06_10hf_bader_spin_density
 _atom_site_hse06_10hf_ddec_charge
 _atom_site_hse06_10hf_ddec_spin_density
 _atom_site_hse06_10hf_ddec_sum_bond_order
 _atom_site_hse06_10hf_magmom
 _atom_site_hse06_bader_spin_density
 _atom_site_hse06_ddec_charge
 _atom_site_hse06_ddec_spin_density
 _atom_site_hse06_ddec_sum_bond_order
 _atom_site_hse06_magmom
 _atom_site_pbe_bader_spin_density
 _atom_site_pbe_cm5_charge
 _atom_site_pbe_ddec_charge
 _atom_site_pbe_ddec_spin_density
 _atom_site_pbe_ddec_sum_bond_order
 _atom_site_pbe_magmom
Zn  Zn0  1  0.02526221  0.22801864  0.25000044  1  0  0.838647  0  2.017503  0  0  0.661853  0  2.481684  0  0  0.701239  0  2.439612  0  0  0.56723  0.634685  0  2.510282  0
Zn  Zn1  1  0.47473929  0.72801822  0.24999954  1  0  0.838662  0  2.01747  0  0  0.661859  0  2.481674  0  0  0.701246  0  2.439598  0  0  0.567238  0.63469  0  2.510272  0
Zn  Zn2  1  0.52526174  0.27198085  0.75000052  1  0  0.838661  0  2.017487  0  0  0.66185  0  2.481704  0  0  0.70124  0  2.439629  0  0  0.56723  0.634683  0  2.510302  0
Zn  Zn3  1  0.97473881  0.77198130  0.74999962  1  0  0.838652  0  2.017482  0  0  0.661851  0  2.48169  0  0  0.701235  0  2.439617  0  0  0.567225  0.63468  0  2.510288  0
H  H4  1  0.81006580  0.07648568  0.43032917  1  0  0.079936  0  0.932674  0  0  0.091184  0  0.999081  0  0  0.092407  0  0.998498  0  0  0.099227  0.090204  0  0.99964  0
H  H5  1  0.81006574  0.07648572  0.06967094  1  0  0.079941  0  0.932674  0  0  0.091189  0  0.999079  0  0  0.092411  0  0.998495  0  0  0.099227  0.090209  0  0.999637  0
H  H6  1  0.68993446  0.57648518  0.43032911  1  0  0.079902  0  0.932658  0  0  0.09114  0  0.999063  0  0  0.092363  0  0.998478  0  0  0.099208  0.09016  0  0.999621  0
H  H7  1  0.31006661  0.42351472  0.93032918  1  0  0.079897  0  0.932655  0  0  0.091141  0  0.999065  0  0  0.092365  0  0.99848  0  0  0.099202  0.09016  0  0.999623  0
H  H8  1  0.18993368  0.92351426  0.56967002  1  0  0.079936  0  0.932675  0  0  0.091166  0  0.9991  0  0  0.092389  0  0.998517  0  0  0.099228  0.090185  0  0.999658  0
H  H9  1  0.18993528  0.92351422  0.93032912  1  0  0.079897  0  0.932666  0  0  0.091128  0  0.99909  0  0  0.092352  0  0.998505  0  0  0.099208  0.090147  0  0.999649  0
H  H10  1  0.31006502  0.42351476  0.56967095  1  0  0.079901  0  0.932661  0  0  0.09114  0  0.99908  0  0  0.092364  0  0.998494  0  0  0.099211  0.090159  0  0.999639  0
H  H11  1  0.68993595  0.57648522  0.06967088  1  0  0.079907  0  0.932666  0  0  0.091139  0  0.999085  0  0  0.092363  0  0.9985  0  0  0.099213  0.090159  0  0.999644  0
H  H12  1  0.60139297  0.14147378  0.35626310  1  0  0.075706  0  0.969205  0  0  0.087012  0  1.038569  0  0  0.087927  0  1.038603  0  0  0.095717  0.086231  0  1.038722  0
H  H13  1  0.60139448  0.14147466  0.14373699  1  0  0.075716  0  0.9692  0  0  0.087021  0  1.038562  0  0  0.087936  0  1.038595  0  0  0.095716  0.086239  0  1.038714  0
H  H14  1  0.89860733  0.64147420  0.35626392  1  0  0.075709  0  0.96925  0  0  0.086997  0  1.038607  0  0  0.087913  0  1.038639  0  0  0.095714  0.086215  0  1.038759  0
H  H15  1  0.10139372  0.35852571  0.85626397  1  0  0.075725  0  0.969241  0  0  0.087019  0  1.038603  0  0  0.087936  0  1.038636  0  0  0.095723  0.086237  0  1.038757  0
H  H16  1  0.39860651  0.85852616  0.64373610  1  0  0.075717  0  0.969202  0  0  0.087024  0  1.038564  0  0  0.087941  0  1.038596  0  0  0.095715  0.086243  0  1.038717  0
H  H17  1  0.39860654  0.85852614  0.85626307  1  0  0.075713  0  0.969245  0  0  0.087005  0  1.038607  0  0  0.087922  0  1.038639  0  0  0.095723  0.086223  0  1.03876  0
H  H18  1  0.10139369  0.35852574  0.64373614  1  0  0.075712  0  0.96925  0  0  0.087006  0  1.038613  0  0  0.087922  0  1.038645  0  0  0.095717  0.086224  0  1.038767  0
H  H19  1  0.89860730  0.64147422  0.14373695  1  0  0.075713  0  0.969249  0  0  0.087007  0  1.038605  0  0  0.087923  0  1.038637  0  0  0.095723  0.086225  0  1.038757  0
H  H20  1  0.42172374  0.96948441  0.35342004  1  0  0.07102  0  0.944999  0  0  0.08477  0  1.011339  0  0  0.085263  0  1.011622  0  0  0.099629  0.084254  0  1.011337  0
H  H21  1  0.42172371  0.96948443  0.14657898  1  0  0.071025  0  0.945  0  0  0.084779  0  1.011334  0  0  0.085272  0  1.011617  0  0  0.099625  0.084263  0  1.011331  0
H  H22  1  0.07827802  0.46948484  0.35342094  1  0  0.071011  0  0.944991  0  0  0.08476  0  1.011329  0  0  0.085253  0  1.011612  0  0  0.099622  0.08425  0  1.01132  0
H  H23  1  0.92172303  0.53051508  0.85342018  1  0  0.071019  0  0.944982  0  0  0.084771  0  1.01132  0  0  0.085265  0  1.011604  0  0  0.099629  0.084262  0  1.011312  0
H  H24  1  0.57827728  0.03051553  0.64657916  1  0  0.071017  0  0.945008  0  0  0.084766  0  1.011343  0  0  0.085259  0  1.011625  0  0  0.09962  0.084251  0  1.01134  0
H  H25  1  0.57827731  0.03051551  0.85342022  1  0  0.071013  0  0.944998  0  0  0.084761  0  1.01134  0  0  0.085255  0  1.011623  0  0  0.099622  0.084251  0  1.011333  0
H  H26  1  0.92172300  0.53051596  0.64657998  1  0  0.07102  0  0.945  0  0  0.08477  0  1.011335  0  0  0.085264  0  1.01162  0  0  0.099626  0.08426  0  1.011327  0
H  H27  1  0.07827799  0.46948400  0.14657988  1  0  0.071018  0  0.94498  0  0  0.084766  0  1.011322  0  0  0.08526  0  1.011607  0  0  0.099625  0.084256  0  1.011314  0
H  H28  1  0.62337034  0.90081632  0.43057584  1  0  0.084751  0  0.969787  0  0  0.098652  0  1.032082  0  0  0.099502  0  1.03271  0  0  0.092812  0.097908  0  1.031828  0
H  H29  1  0.62337029  0.90081636  0.06942322  1  0  0.084758  0  0.969802  0  0  0.098663  0  1.032088  0  0  0.099514  0  1.032716  0  0  0.092824  0.097919  0  1.031835  0
H  H30  1  0.87663023  0.40081684  0.43057677  1  0  0.084757  0  0.969868  0  0  0.098683  0  1.032124  0  0  0.099533  0  1.032753  0  0  0.092834  0.097938  0  1.031874  0
H  H31  1  0.12337084  0.59918306  0.93057677  1  0  0.084756  0  0.969864  0  0  0.098665  0  1.032148  0  0  0.099516  0  1.032777  0  0  0.092825  0.09792  0  1.031896  0
H  H32  1  0.37662914  0.09918362  0.56942336  1  0  0.084757  0  0.969859  0  0  0.098653  0  1.032152  0  0  0.099504  0  1.032781  0  0  0.092828  0.097909  0  1.031899  0
H  H33  1  0.37662919  0.09918271  0.93057598  1  0  0.084753  0  0.969801  0  0  0.098665  0  1.03208  0  0  0.099515  0  1.032708  0  0  0.092827  0.09792  0  1.031829  0
H  H34  1  0.12337079  0.59918310  0.56942416  1  0  0.08477  0  0.969855  0  0  0.09868  0  1.032132  0  0  0.09953  0  1.032762  0  0  0.092839  0.097936  0  1.03188  0
H  H35  1  0.87663018  0.40081688  0.06942329  1  0  0.084752  0  0.969875  0  0  0.098657  0  1.032152  0  0  0.099507  0  1.032782  0  0  0.092834  0.097914  0  1.031898  0
H  H36  1  0.90627925  0.81296449  0.32710097  1  0  0.080724  0  0.958425  0  0  0.092154  0  1.026353  0  0  0.0931  0  1.026256  0  0  0.098715  0.091335  0  1.026649  0
H  H37  1  0.90627923  0.81296451  0.17289899  1  0  0.080707  0  0.958453  0  0  0.092134  0  1.026384  0  0  0.09308  0  1.026289  0  0  0.098705  0.091315  0  1.02668  0
H  H38  1  0.59372120  0.31296407  0.32710101  1  0  0.080703  0  0.95846  0  0  0.09214  0  1.026397  0  0  0.093088  0  1.0263  0  0  0.09872  0.091321  0  1.026692  0
H  H39  1  0.40627984  0.68703585  0.82710103  1  0  0.080665  0  0.958453  0  0  0.092135  0  1.026347  0  0  0.09308  0  1.026251  0  0  0.098733  0.091315  0  1.026643  0
H  H40  1  0.09372023  0.18703544  0.67289909  1  0  0.080699  0  0.958482  0  0  0.092152  0  1.026409  0  0  0.0931  0  1.026312  0  0  0.098697  0.091333  0  1.026703  0
H  H41  1  0.09372025  0.18703543  0.82710107  1  0  0.080709  0  0.958472  0  0  0.092162  0  1.026399  0  0  0.09311  0  1.026303  0  0  0.098703  0.091342  0  1.026696  0
H  H42  1  0.40627982  0.68703587  0.67289991  1  0  0.080715  0  0.958462  0  0  0.092142  0  1.0264  0  0  0.093089  0  1.026302  0  0  0.098719  0.091323  0  1.026696  0
H  H43  1  0.59372272  0.31296408  0.17289990  1  0  0.080716  0  0.958469  0  0  0.092153  0  1.026407  0  0  0.0931  0  1.026311  0  0  0.098728  0.091334  0  1.026702  0
H  H44  1  0.08430909  0.98668960  0.17316382  1  0  0.072072  0  0.945234  0  0  0.084137  0  1.013246  0  0  0.085379  0  1.012383  0  0  0.100042  0.083109  0  1.014059  0
H  H45  1  0.08430911  0.98668958  0.32683604  1  0  0.072086  0  0.945221  0  0  0.084152  0  1.013233  0  0  0.085394  0  1.012369  0  0  0.100051  0.083124  0  1.014045  0
H  H46  1  0.41569110  0.48668927  0.17316389  1  0  0.072032  0  0.945193  0  0  0.084117  0  1.013204  0  0  0.085358  0  1.012341  0  0  0.100045  0.083092  0  1.014019  0
H  H47  1  0.58430990  0.51331068  0.67316309  1  0  0.072077  0  0.945238  0  0  0.084148  0  1.013237  0  0  0.085389  0  1.012374  0  0  0.10004  0.08312  0  1.014051  0
H  H48  1  0.91569039  0.01330947  0.82683624  1  0  0.072078  0  0.945244  0  0  0.084145  0  1.013254  0  0  0.085387  0  1.01239  0  0  0.100051  0.083128  0  1.014057  0
H  H49  1  0.91569037  0.01331035  0.67316403  1  0  0.072069  0  0.945248  0  0  0.08414  0  1.013253  0  0  0.085382  0  1.012388  0  0  0.100042  0.083112  0  1.014067  0
H  H50  1  0.58430992  0.51331067  0.82683617  1  0  0.072085  0  0.945219  0  0  0.084158  0  1.01322  0  0  0.085399  0  1.012356  0  0  0.10005  0.08313  0  1.014033  0
H  H51  1  0.41569112  0.48668925  0.32683611  1  0  0.072047  0  0.945176  0  0  0.084133  0  1.013185  0  0  0.085374  0  1.012322  0  0  0.100052  0.083108  0  1.014  0
C  C52  1  0.70878176  0.06851797  0.35492921  1  0  -0.035215  0  3.568477  0  0  -0.087109  0  3.812225  0  0  -0.084487  0  3.824422  0  0  -0.077838  -0.088752  0  3.80391  0
C  C53  1  0.70878173  0.06851800  0.14507091  1  0  -0.035237  0  3.568501  0  0  -0.087135  0  3.81226  0  0  -0.084513  0  3.824457  0  0  -0.077849  -0.088779  0  3.803945  0
C  C54  1  0.79122001  0.56851836  0.35492916  1  0  -0.035175  0  3.568449  0  0  -0.086995  0  3.812077  0  0  -0.08437  0  3.824272  0  0  -0.077808  -0.088638  0  3.80376  0
C  C55  1  0.20878104  0.43148241  0.85492921  1  0  -0.035193  0  3.568459  0  0  -0.087037  0  3.812119  0  0  -0.084413  0  3.824315  0  0  -0.077814  -0.08868  0  3.803804  0
C  C56  1  0.29121772  0.93148196  0.64507085  1  0  -0.035241  0  3.568508  0  0  -0.087122  0  3.812249  0  0  -0.084499  0  3.824445  0  0  -0.077844  -0.088765  0  3.803933  0
C  C57  1  0.29121929  0.93148194  0.85492916  1  0  -0.03516  0  3.568434  0  0  -0.086991  0  3.812084  0  0  -0.084369  0  3.82428  0  0  -0.07781  -0.088635  0  3.803771  0
C  C58  1  0.20878101  0.43148157  0.64507091  1  0  -0.035171  0  3.568445  0  0  -0.087017  0  3.812108  0  0  -0.084392  0  3.824305  0  0  -0.077811  -0.08866  0  3.803795  0
C  C59  1  0.79121998  0.56851752  0.14507085  1  0  -0.035185  0  3.568487  0  0  -0.087018  0  3.812138  0  0  -0.084394  0  3.824335  0  0  -0.077821  -0.088662  0  3.803823  0
C  C60  1  0.58821455  0.95354471  0.35460037  1  0  -0.038973  0  3.569223  0  0  -0.090767  0  3.81022  0  0  -0.088271  0  3.822902  0  0  -0.080333  -0.092275  0  3.80151  0
C  C61  1  0.58821452  0.95354474  0.14539953  1  0  -0.03901  0  3.569285  0  0  -0.090821  0  3.810301  0  0  -0.088322  0  3.822978  0  0  -0.080354  -0.092329  0  3.801591  0
C  C62  1  0.91178759  0.45354438  0.35460044  1  0  -0.038995  0  3.569291  0  0  -0.090831  0  3.810289  0  0  -0.088335  0  3.822968  0  0  -0.080362  -0.092344  0  3.801577  0
C  C63  1  0.08821346  0.54645553  0.85460046  1  0  -0.038981  0  3.569289  0  0  -0.090822  0  3.810336  0  0  -0.088325  0  3.823013  0  0  -0.080358  -0.092335  0  3.801624  0
C  C64  1  0.41178647  0.04645609  0.64539969  1  0  -0.038977  0  3.569292  0  0  -0.090784  0  3.810323  0  0  -0.088285  0  3.823  0  0  -0.080355  -0.092293  0  3.801616  0
C  C65  1  0.41178650  0.04645520  0.85459967  1  0  -0.038967  0  3.569229  0  0  -0.090782  0  3.810216  0  0  -0.088289  0  3.822904  0  0  -0.080341  -0.092295  0  3.801505  0
C  C66  1  0.08821343  0.54645555  0.64540048  1  0  -0.038974  0  3.569269  0  0  -0.090801  0  3.810297  0  0  -0.088305  0  3.822976  0  0  -0.080339  -0.092314  0  3.801585  0
C  C67  1  0.91178601  0.45354441  0.14539960  1  0  -0.038968  0  3.569276  0  0  -0.090796  0  3.810298  0  0  -0.088301  0  3.822977  0  0  -0.080356  -0.09231  0  3.80159  0
C  C68  1  0.86744394  0.86319726  0.24999954  1  0  -0.041835  0  3.565337  0  0  -0.095499  0  3.811009  0  0  -0.09287  0  3.823221  0  0  -0.077811  -0.097165  0  3.802758  0
C  C69  1  0.63255808  0.36319685  0.25000045  1  0  -0.041854  0  3.56532  0  0  -0.095569  0  3.811091  0  0  -0.092947  0  3.823311  0  0  -0.077891  -0.097231  0  3.802842  0
C  C70  1  0.36744294  0.63680223  0.75000047  1  0  -0.041799  0  3.565331  0  0  -0.095514  0  3.811043  0  0  -0.092884  0  3.82325  0  0  -0.077896  -0.09718  0  3.802793  0
C  C71  1  0.13255708  0.13680267  0.74999965  1  0  -0.041787  0  3.565421  0  0  -0.095529  0  3.811144  0  0  -0.092908  0  3.823367  0  0  -0.077784  -0.097195  0  3.802896  0
C  C72  1  0.98658635  0.97852089  0.24999954  1  0  -0.034459  0  3.584357  0  0  -0.087972  0  3.832737  0  0  -0.085141  0  3.844648  0  0  -0.076536  -0.089603  0  3.824375  0
C  C73  1  0.51341424  0.47852044  0.24999957  1  0  -0.034289  0  3.584167  0  0  -0.08785  0  3.832613  0  0  -0.085019  0  3.844529  0  0  -0.076511  -0.089496  0  3.824269  0
C  C74  1  0.48658678  0.52147949  0.74999963  1  0  -0.034479  0  3.584397  0  0  -0.087989  0  3.832748  0  0  -0.085165  0  3.844676  0  0  -0.076524  -0.089619  0  3.824385  0
C  C75  1  0.01341313  0.02147904  0.74999966  1  0  -0.034479  0  3.584398  0  0  -0.087987  0  3.832812  0  0  -0.085159  0  3.844735  0  0  -0.076544  -0.089626  0  3.824448  0
N  N76  1  0.84045421  0.07775898  0.24999963  1  0  -0.217581  0  3.248095  0  0  -0.109386  0  3.484142  0  0  -0.127841  0  3.504089  0  0  -0.341149  -0.096681  0  3.470224  0
N  N77  1  0.65954754  0.57775847  0.24999957  1  0  -0.217654  0  3.248013  0  0  -0.109468  0  3.484011  0  0  -0.127926  0  3.503959  0  0  -0.341162  -0.096758  0  3.470095  0
N  N78  1  0.34045348  0.42224146  0.75000049  1  0  -0.217606  0  3.248001  0  0  -0.109421  0  3.484012  0  0  -0.12788  0  3.503963  0  0  -0.341156  -0.096715  0  3.470094  0
N  N79  1  0.15954681  0.92224095  0.74999957  1  0  -0.217593  0  3.24806  0  0  -0.109396  0  3.484068  0  0  -0.127853  0  3.504018  0  0  -0.341151  -0.09669  0  3.470152  0
N  N80  1  0.64075868  0.88444241  0.24999953  1  0  -0.206998  0  3.222455  0  0  -0.098906  0  3.462577  0  0  -0.116861  0  3.480933  0  0  -0.338237  -0.08658  0  3.449713  0
N  N81  1  0.85924182  0.38444207  0.25000046  1  0  -0.207008  0  3.222461  0  0  -0.098908  0  3.462581  0  0  -0.116862  0  3.480939  0  0  -0.338215  -0.086584  0  3.449721  0
N  N82  1  0.14075920  0.61555787  0.75000046  1  0  -0.207015  0  3.222479  0  0  -0.09894  0  3.462622  0  0  -0.116894  0  3.480979  0  0  -0.338227  -0.086614  0  3.449762  0
N  N83  1  0.35924080  0.11555752  0.74999967  1  0  -0.207033  0  3.222496  0  0  -0.098932  0  3.462635  0  0  -0.116886  0  3.480994  0  0  -0.338252  -0.086608  0  3.449776  0
Cl  Cl84  1  0.20935869  0.21627600  0.41286071  1  0  -0.5589  0  0.955786  0  0  -0.495054  0  1.23799  0  0  -0.510061  0  1.216565  0  0  -0.294711  -0.484317  0  1.252789  0
Cl  Cl85  1  0.20935864  0.21627604  0.08714018  1  0  -0.558892  0  0.95578  0  0  -0.495046  0  1.237982  0  0  -0.510051  0  1.216558  0  0  -0.294704  -0.484307  0  1.252781  0
Cl  Cl86  1  0.29064285  0.71627553  0.41285980  1  0  -0.558888  0  0.955762  0  0  -0.495054  0  1.237983  0  0  -0.510061  0  1.216558  0  0  -0.294711  -0.484317  0  1.252782  0
Cl  Cl87  1  0.70935822  0.28372351  0.91285993  1  0  -0.558889  0  0.955783  0  0  -0.495048  0  1.238  0  0  -0.510054  0  1.216575  0  0  -0.294706  -0.48431  0  1.2528  0
Cl  Cl88  1  0.79064079  0.78372394  0.58714021  1  0  -0.558895  0  0.955776  0  0  -0.495048  0  1.237983  0  0  -0.510052  0  1.216557  0  0  -0.294708  -0.48431  0  1.252781  0
Cl  Cl89  1  0.79064238  0.78372390  0.91285988  1  0  -0.558883  0  0.955764  0  0  -0.49504  0  1.237982  0  0  -0.510045  0  1.216557  0  0  -0.294703  -0.484301  0  1.252782  0
Cl  Cl90  1  0.70935817  0.28372441  0.58714026  1  0  -0.558891  0  0.955775  0  0  -0.495054  0  1.237993  0  0  -0.510062  0  1.216569  0  0  -0.294709  -0.484317  0  1.252793  0
Cl  Cl91  1  0.29064126  0.71627556  0.08714013  1  0  -0.558899  0  0.955774  0  0  -0.495056  0  1.237987  0  0  -0.510063  0  1.216562  0  0  -0.294715  -0.484318  0  1.252785  0
