# generated using pymatgen
data_MnH16C18(NO3)2
_symmetry_space_group_name_H-M   'P 1'
_cell_length_a   7.45003284
_cell_length_b   10.23442477
_cell_length_c   11.56473918
_cell_angle_alpha   90.00364841
_cell_angle_beta   89.99895325
_cell_angle_gamma   91.43505960
_symmetry_Int_Tables_number   1
_chemical_formula_structural   MnH16C18(NO3)2
_chemical_formula_sum   'Mn2 H32 C36 N4 O12'
_cell_volume   881.49779387
_cell_formula_units_Z   2
loop_
 _symmetry_equiv_pos_site_id
 _symmetry_equiv_pos_as_xyz
  1  'x, y, z'
loop_
 _atom_site_type_symbol
 _atom_site_label
 _atom_site_symmetry_multiplicity
 _atom_site_fract_x
 _atom_site_fract_y
 _atom_site_fract_z
 _atom_site_occupancy
 _atom_site_hle17_ddec_charge
 _atom_site_hle17_ddec_spin_density
 _atom_site_hle17_ddec_sum_bond_order
 _atom_site_hle17_magmom
 _atom_site_hse06_10hf_ddec_charge
 _atom_site_hse06_10hf_ddec_spin_density
 _atom_site_hse06_10hf_ddec_sum_bond_order
 _atom_site_hse06_10hf_magmom
 _atom_site_hse06_ddec_charge
 _atom_site_hse06_ddec_spin_density
 _atom_site_hse06_ddec_sum_bond_order
 _atom_site_hse06_magmom
 _atom_site_pbe_cm5_charge
 _atom_site_pbe_ddec_charge
 _atom_site_pbe_ddec_spin_density
 _atom_site_pbe_ddec_sum_bond_order
 _atom_site_pbe_magmom
Mn  Mn0  1  0.75001710  0.74998009  0.71939151  1  1.127175  4.795574  1.82315  4.678  0.964222  4.718557  2.324896  4.535  1.017991  4.761766  2.259572  4.597  0.590276  0.923201  4.673248  2.37266  4.472
Mn  Mn1  1  0.24997679  0.25000906  0.28060772  1  1.127114  4.795595  1.823218  4.678  0.964126  4.718573  2.324962  4.535  1.017897  4.761779  2.25964  4.597  0.590216  0.923103  4.673267  2.372722  4.472
H  H2  1  0.05909822  0.54883441  0.93530562  1  0.086272  -0.000123  0.975327  0.0  0.097149  -0.000111  1.038614  0.0  0.09962  -0.00013  1.037949  0.0  0.099226  0.095066  -8.8e-05  1.040098  0.0
H  H3  1  0.44089295  0.95115407  0.93530009  1  0.086223  -0.000125  0.975263  0.0  0.09709  -0.000111  1.038565  0.0  0.09956  -0.00013  1.0379  0.0  0.099206  0.095004  -8.8e-05  1.040049  0.0
H  H4  1  0.94089559  0.45118016  0.06472042  1  0.086176  -0.000127  0.975269  0.0  0.097104  -0.000112  1.038516  0.0  0.099577  -0.00013  1.037833  0.0  0.099261  0.09502  -8.8e-05  1.040005  0.0
H  H5  1  0.55912645  0.04886225  0.06467060  1  0.086066  -0.00012  0.975482  0.0  0.097025  -0.000112  1.038692  0.0  0.099511  -0.00013  1.037977  0.0  0.099185  0.094944  -8.8e-05  1.04017  0.0
H  H6  1  0.15745758  0.64558916  0.12297559  1  0.089084  -5.7e-05  0.946091  0.0  0.101534  -1.3e-05  1.004031  0.0  0.105112  -4.5e-05  1.001678  0.0  0.099537  0.099062  2.8e-05  1.005713  0.0
H  H7  1  0.34250496  0.85443964  0.12297524  1  0.089051  -6.3e-05  0.946063  0.0  0.101474  -1.3e-05  1.004046  0.0  0.10505  -4.5e-05  1.0017  0.0  0.099514  0.099003  2.8e-05  1.005728  0.0
H  H8  1  0.84254628  0.35446541  0.87703056  1  0.089002  -6.1e-05  0.946071  0.0  0.101579  -1.3e-05  1.003902  0.0  0.105156  -4.5e-05  1.001552  0.0  0.099576  0.099116  2.8e-05  1.00558  0.0
H  H9  1  0.65751150  0.14559821  0.87700756  1  0.088998  -5.5e-05  0.9461  0.0  0.101417  -1.3e-05  1.004077  0.0  0.104996  -4.5e-05  1.001727  0.0  0.099462  0.098945  2.8e-05  1.005759  0.0
H  H10  1  0.61502540  0.57166240  0.92016826  1  0.078564  -6e-06  0.955774  0.0  0.088245  0.000322  1.01958  0.0  0.090475  0.000187  1.018066  0.0  0.116411  0.086634  0.000456  1.02085  0.001
H  H11  1  0.88497848  0.92832205  0.92018284  1  0.078427  -8e-06  0.955803  0.0  0.088092  0.000322  1.019634  0.0  0.090318  0.000187  1.018128  0.0  0.11636  0.086477  0.000456  1.020906  0.001
H  H12  1  0.38496346  0.42833363  0.07983270  1  0.07853  -1.3e-05  0.955698  0.0  0.088208  0.000323  1.019522  0.0  0.090438  0.000187  1.018011  0.0  0.116385  0.086596  0.000456  1.020792  0.001
H  H13  1  0.11501153  0.07167006  0.07981639  1  0.078475  -8e-06  0.955843  0.0  0.088193  0.000322  1.01962  0.0  0.090422  0.000187  1.018106  0.0  0.116405  0.086584  0.000456  1.020889  0.001
H  H14  1  0.60140754  0.56659499  0.13754959  1  0.111586  6.4e-05  0.968624  0.0  0.118349  0.000174  1.036006  0.0  0.121823  5.9e-05  1.034742  0.0  0.106553  0.11556  0.000295  1.037718  0.0
H  H15  1  0.89856306  0.93340848  0.13756257  1  0.111588  6.1e-05  0.968562  0.0  0.118321  0.000174  1.036027  0.0  0.121771  5.9e-05  1.03475  0.0  0.10647  0.115529  0.000295  1.037754  0.0
H  H16  1  0.39856119  0.43340121  0.86245829  1  0.111594  8.7e-05  0.968715  0.0  0.118353  0.000174  1.03613  0.0  0.121809  5.9e-05  1.034857  0.0  0.10653  0.115564  0.000295  1.037846  0.0
H  H17  1  0.10141099  0.06658670  0.86243320  1  0.111561  6.2e-05  0.96859  0.0  0.118286  0.000175  1.03603  0.0  0.121783  6e-05  1.034701  0.0  0.106482  0.1155  0.000296  1.03774  0.0
H  H18  1  0.03872465  0.77097837  0.29946196  1  0.098796  0.000238  0.94823  0.0  0.112645  0.000449  1.003765  0.0  0.115372  0.000301  1.00305  0.0  0.107859  0.110756  0.000613  1.004427  0.0
H  H19  1  0.46126874  0.72902165  0.29948082  1  0.098912  0.000241  0.948021  0.0  0.112675  0.00045  1.00366  0.0  0.115407  0.000301  1.002934  0.0  0.107869  0.110782  0.000613  1.004321  0.0
H  H20  1  0.96126580  0.22902254  0.70052862  1  0.098796  0.000246  0.948271  0.0  0.112637  0.000449  1.003809  0.0  0.115366  0.0003  1.003092  0.0  0.107834  0.110742  0.000613  1.004472  0.0
H  H21  1  0.53872583  0.27098119  0.70052100  1  0.098889  0.000251  0.948102  0.0  0.112644  0.00045  1.003749  0.0  0.115371  0.000301  1.003034  0.0  0.107869  0.110753  0.000613  1.004412  0.0
H  H22  1  0.02802423  0.76533380  0.51564659  1  0.085815  0.000178  0.944166  0.0  0.092978  0.000574  1.008156  0.0  0.09578  0.000399  1.005306  0.0  0.120258  0.090895  0.000753  1.01024  0.001
H  H23  1  0.47200428  0.73463923  0.51565959  1  0.085789  0.000175  0.94436  0.0  0.092988  0.000574  1.008302  0.0  0.095789  0.000399  1.005454  0.0  0.120361  0.09091  0.000752  1.010389  0.001
H  H24  1  0.97197910  0.23465624  0.48434745  1  0.085757  0.000165  0.944209  0.0  0.0929  0.000574  1.008228  0.0  0.095693  0.000399  1.005375  0.0  0.120276  0.090818  0.000753  1.010314  0.001
H  H25  1  0.52799839  0.26536451  0.48434309  1  0.085735  0.000182  0.944419  0.0  0.092961  0.000573  1.008348  0.0  0.095756  0.000399  1.005498  0.0  0.120344  0.090878  0.000752  1.010434  0.001
H  H26  1  0.05685726  0.92116259  0.68592099  1  0.417942  1.6e-05  0.900315  0.001  0.380943  0.000664  0.974591  0.001  0.392953  0.000421  0.957799  0.001  0.280723  0.37256  0.000893  0.986268  0.002
H  H27  1  0.44317865  0.57879217  0.68590649  1  0.418051  1.5e-05  0.900197  0.001  0.381137  0.000663  0.974347  0.001  0.393148  0.000421  0.957553  0.001  0.280786  0.372753  0.000892  0.986029  0.002
H  H28  1  0.94315478  0.07881370  0.31407564  1  0.418141  1.4e-05  0.900044  0.001  0.381162  0.000663  0.974291  0.001  0.393172  0.000421  0.957498  0.001  0.280811  0.372775  0.000893  0.985978  0.002
H  H29  1  0.55682373  0.42120571  0.31409706  1  0.418083  1.5e-05  0.900149  0.001  0.38117  0.000663  0.974299  0.001  0.393182  0.000421  0.957504  0.001  0.280795  0.372783  0.000892  0.985985  0.002
H  H30  1  0.86609993  0.98646668  0.65742726  1  0.420646  -0.000368  0.820897  0.0  0.405068  0.000476  0.872932  0.001  0.413448  0.000147  0.863824  0.001  0.322376  0.399122  0.000807  0.879319  0.002
H  H31  1  0.63393635  0.51349788  0.65740831  1  0.420311  -0.000367  0.821374  0.0  0.404817  0.000474  0.873252  0.001  0.413189  0.000146  0.86416  0.001  0.322327  0.39888  0.000805  0.879624  0.002
H  H32  1  0.13391974  0.01352813  0.34257802  1  0.420577  -0.000373  0.821044  0.0  0.405011  0.000475  0.873059  0.001  0.413391  0.000147  0.86395  0.001  0.322337  0.399068  0.000806  0.879442  0.002
H  H33  1  0.36605615  0.48649031  0.34259006  1  0.420387  -0.000371  0.821291  0.0  0.404886  0.000474  0.873179  0.001  0.413257  0.000146  0.864088  0.001  0.322357  0.398948  0.000805  0.879552  0.002
C  C34  1  0.13242183  0.62854563  0.72057455  1  0.666835  0.006776  3.899412  0.007  0.613047  0.011142  4.204235  0.01  0.647854  0.008206  4.195416  0.008  0.212994  0.58862  0.014543  4.209956  0.013
C  C35  1  0.36763807  0.87139965  0.72058784  1  0.666931  0.006768  3.898399  0.007  0.612931  0.011147  4.203372  0.01  0.647782  0.008209  4.194502  0.008  0.213043  0.588495  0.014548  4.209111  0.013
C  C36  1  0.86758562  0.37144634  0.27943419  1  0.666913  0.006758  3.899423  0.007  0.613065  0.011144  4.204236  0.01  0.647883  0.008209  4.19541  0.008  0.213085  0.588621  0.014546  4.20998  0.013
C  C37  1  0.63236924  0.12858938  0.27940620  1  0.666908  0.006769  3.898473  0.007  0.61306  0.011142  4.203297  0.01  0.647899  0.008207  4.194435  0.008  0.213125  0.588632  0.014543  4.209027  0.013
C  C38  1  0.19486240  0.69325972  0.83133424  1  -0.081058  0.000276  3.731692  0.0  -0.062487  0.001046  3.959007  0.001  -0.066811  0.000554  3.978785  0.0  -0.012972  -0.059203  0.001736  3.945332  0.001
C  C39  1  0.30519642  0.80667682  0.83133768  1  -0.081667  0.000267  3.73176  0.0  -0.062707  0.001047  3.958841  0.001  -0.067093  0.000552  3.978655  0.0  -0.013226  -0.059413  0.001735  3.945165  0.001
C  C40  1  0.80514663  0.30673713  0.16867104  1  -0.081451  0.000286  3.731984  0.0  -0.062687  0.001048  3.959179  0.001  -0.067028  0.000551  3.978946  0.0  -0.01307  -0.059396  0.001735  3.945509  0.001
C  C41  1  0.69481128  0.19332004  0.16865118  1  -0.08145  0.000263  3.731906  0.0  -0.062744  0.001047  3.959162  0.001  -0.067093  0.000552  3.978929  0.0  -0.013229  -0.059456  0.001735  3.94549  0.001
C  C42  1  0.14361777  0.63703986  0.93707679  1  -0.087749  -0.000162  3.775577  0.0  -0.110947  0.000142  4.027128  0.0  -0.112076  -0.00011  4.047962  0.0  -0.092375  -0.11021  0.000487  4.01445  0.001
C  C43  1  0.35639285  0.86293587  0.93707936  1  -0.087536  -0.000129  3.775593  0.0  -0.11077  0.000142  4.027002  0.0  -0.111891  -0.000109  4.047859  0.0  -0.0923  -0.11003  0.000488  4.014316  0.001
C  C44  1  0.85639085  0.36297556  0.06293368  1  -0.08709  -0.000147  3.775669  0.0  -0.110347  0.000141  4.027105  0.0  -0.111462  -0.000109  4.047935  0.0  -0.092162  -0.10961  0.000488  4.014427  0.001
C  C45  1  0.64362228  0.13707559  0.06290949  1  -0.087381  -0.000151  3.77587  0.0  -0.110664  0.000141  4.027338  0.0  -0.111787  -0.00011  4.048186  0.0  -0.092234  -0.109928  0.000487  4.014653  0.001
C  C46  1  0.19786007  0.69224590  0.04188621  1  -0.07953  0.00013  3.791846  0.0  -0.095364  0.00047  4.050249  0.0  -0.096405  0.000197  4.069516  0.0  -0.09786  -0.09503  0.000886  4.037918  0.001
C  C47  1  0.30212258  0.80776036  0.04188542  1  -0.079535  0.00011  3.79199  0.0  -0.09537  0.00047  4.050416  0.0  -0.096414  0.000195  4.069685  0.0  -0.097927  -0.09504  0.000886  4.038087  0.001
C  C48  1  0.80215614  0.30778706  0.95812080  1  -0.080065  0.000126  3.792282  0.0  -0.096051  0.00047  4.05085  0.0  -0.097098  0.000195  4.070121  0.0  -0.098299  -0.095728  0.000885  4.038522  0.001
C  C49  1  0.69789458  0.19226477  0.95810776  1  -0.079403  0.000109  3.791708  0.0  -0.095202  0.000471  4.050142  0.0  -0.096248  0.000196  4.069419  0.0  -0.097728  -0.094865  0.000887  4.03781  0.001
C  C50  1  0.67347447  0.65056982  0.97220332  1  0.135005  0.002851  3.70571  0.003  0.104446  0.00496  3.958453  0.004  0.11045  0.004239  3.97781  0.004  0.052257  0.101102  0.005844  3.945405  0.005
C  C51  1  0.82651620  0.84942332  0.97221065  1  0.135259  0.002844  3.705488  0.003  0.104712  0.004959  3.958259  0.004  0.110716  0.004239  3.977605  0.004  0.052359  0.101377  0.005844  3.945205  0.005
C  C52  1  0.32650466  0.34941945  0.02779937  1  0.135164  0.002907  3.705465  0.003  0.104613  0.004958  3.95818  0.004  0.110617  0.004241  3.977527  0.004  0.052325  0.101274  0.005843  3.945131  0.005
C  C53  1  0.17346705  0.15056787  0.02779377  1  0.135407  0.002878  3.705417  0.003  0.104801  0.004957  3.958156  0.004  0.110801  0.004239  3.977516  0.004  0.052393  0.101455  0.005842  3.945113  0.005
C  C54  1  0.66716937  0.64791147  0.09224569  1  -0.161298  -0.001247  3.709722  -0.001  -0.178744  -0.000389  3.958854  0.0  -0.186798  -0.00111  3.980761  0.0  -0.080916  -0.173747  0.000304  3.945703  0.0
C  C55  1  0.83279870  0.85209467  0.09225483  1  -0.161239  -0.001235  3.709555  -0.001  -0.178718  -0.000389  3.958721  0.0  -0.186728  -0.001109  3.980666  0.0  -0.080836  -0.173731  0.000305  3.945582  0.0
C  C56  1  0.33280493  0.35208860  0.90775008  1  -0.161225  -0.001383  3.709721  -0.001  -0.178699  -0.000386  3.958903  0.0  -0.186718  -0.001112  3.980831  0.0  -0.080885  -0.17371  0.000305  3.945762  0.0
C  C57  1  0.16717698  0.14790636  0.90774613  1  -0.161332  -0.001289  3.709216  -0.001  -0.178742  -0.000389  3.95841  0.0  -0.186791  -0.001111  3.980329  0.0  -0.080882  -0.17375  0.000305  3.945268  0.0
C  C58  1  0.74998652  0.75000428  0.15455646  1  0.095679  0.001919  3.757681  0.002  0.105427  0.003158  3.988105  0.002  0.109648  0.002813  4.009461  0.002  0.01333  0.101642  0.003663  3.974125  0.003
C  C59  1  0.24999751  0.25000255  0.84544536  1  0.095746  0.001965  3.757377  0.002  0.105404  0.003156  3.987903  0.002  0.109621  0.002813  4.009267  0.002  0.013331  0.101627  0.003661  3.973915  0.003
C  C60  1  0.74999905  0.74999795  0.28214516  1  0.108894  0.001539  3.753029  0.001  0.122272  0.002892  3.98221  0.002  0.125761  0.002457  4.004494  0.002  0.018562  0.120393  0.003681  3.967655  0.003
C  C61  1  0.24999686  0.25000487  0.71785061  1  0.108851  0.00156  3.753099  0.001  0.122293  0.00289  3.982245  0.002  0.125779  0.002456  4.004537  0.002  0.018582  0.120404  0.003679  3.967695  0.003
C  C62  1  0.91049562  0.76221992  0.34445641  1  -0.146882  -0.00082  3.701816  0.0  -0.167474  -0.000163  3.948708  0.0  -0.174406  -0.000782  3.968517  0.0  -0.078854  -0.163498  0.000315  3.936186  0.0
C  C63  1  0.58951511  0.73777053  0.34446881  1  -0.147131  -0.000845  3.701914  0.0  -0.16763  -0.000164  3.948799  0.0  -0.17456  -0.000783  3.968601  0.0  -0.078932  -0.16364  0.000315  3.936268  0.0
C  C64  1  0.08949895  0.23778291  0.65554628  1  -0.146824  -0.000866  3.701679  0.0  -0.167405  -0.000164  3.94852  0.0  -0.174339  -0.000781  3.968324  0.0  -0.078776  -0.163416  0.000315  3.935987  0.0
C  C65  1  0.41047688  0.26223428  0.65554080  1  -0.147109  -0.000885  3.702056  0.0  -0.167624  -0.000163  3.948985  0.0  -0.174556  -0.000781  3.968785  0.0  -0.078985  -0.163643  0.000315  3.936464  0.0
C  C66  1  0.90496380  0.75967577  0.46452219  1  0.146112  0.001847  3.691706  0.002  0.116567  0.003796  3.942511  0.003  0.124947  0.00309  3.95795  0.003  0.058889  0.110975  0.004638  3.932341  0.004
C  C67  1  0.59505312  0.74029578  0.46453554  1  0.146295  0.001868  3.69197  0.002  0.116682  0.003796  3.942792  0.003  0.125067  0.003091  3.958225  0.003  0.05885  0.111069  0.004637  3.932644  0.004
C  C68  1  0.09504370  0.24031718  0.53547271  1  0.146189  0.001897  3.691791  0.002  0.116641  0.003796  3.942622  0.003  0.125039  0.00309  3.958042  0.003  0.058845  0.111035  0.004638  3.932461  0.004
C  C69  1  0.40495070  0.25970404  0.53546715  1  0.146324  0.001847  3.691813  0.002  0.116684  0.003798  3.942666  0.003  0.125078  0.003091  3.958089  0.003  0.058859  0.11108  0.004639  3.932507  0.004
N  N70  1  0.75001466  0.74998001  0.52390331  1  -0.335746  0.025349  3.252552  0.015  -0.26669  0.028018  3.521131  0.014  -0.285198  0.025336  3.535268  0.012  -0.314689  -0.253565  0.030405  3.511455  0.016
N  N71  1  0.24999269  0.25001001  0.47609678  1  -0.335768  0.025343  3.252823  0.015  -0.266692  0.028016  3.521391  0.014  -0.2852  0.025336  3.535522  0.012  -0.31466  -0.253566  0.030406  3.511711  0.016
N  N72  1  0.75000271  0.74999195  0.91251044  1  -0.336323  0.026363  3.256559  0.012  -0.26537  0.030382  3.52913  0.012  -0.283818  0.027369  3.545061  0.009  -0.318638  -0.252126  0.03324  3.517141  0.014
N  N73  1  0.24998437  0.24999530  0.08748706  1  -0.336662  0.026339  3.257012  0.012  -0.26564  0.030386  3.529528  0.012  -0.284091  0.02737  3.545465  0.009  -0.31872  -0.252398  0.03324  3.517549  0.014
O  O74  1  0.96314071  0.61382730  0.70681719  1  -0.656145  0.029747  2.014996  0.018  -0.596986  0.036649  2.283463  0.021  -0.626582  0.032306  2.269185  0.018  -0.32539  -0.574434  0.040904  2.292218  0.025
O  O75  1  0.53691971  0.88613958  0.70682994  1  -0.656155  0.029752  2.014869  0.018  -0.596946  0.036651  2.28342  0.021  -0.626554  0.032309  2.269116  0.018  -0.325466  -0.574397  0.040908  2.292191  0.025
O  O76  1  0.03686928  0.38616171  0.29319155  1  -0.656088  0.029759  2.014984  0.018  -0.596945  0.036648  2.283496  0.021  -0.626547  0.032307  2.269215  0.018  -0.325425  -0.574388  0.040905  2.292262  0.025
O  O77  1  0.46308769  0.11385141  0.29316929  1  -0.656145  0.029753  2.015064  0.018  -0.596958  0.036649  2.283555  0.021  -0.62657  0.032306  2.269263  0.018  -0.325413  -0.57441  0.040905  2.292319  0.025
O  O78  1  0.24891125  0.59040770  0.64895077  1  -0.616762  0.005043  1.950271  0.006  -0.567809  0.008148  2.170225  0.01  -0.59226  0.006229  2.159968  0.008  -0.321125  -0.550777  0.010417  2.177625  0.012
O  O79  1  0.25113971  0.90953062  0.64897448  1  -0.616709  0.005055  1.949551  0.006  -0.567671  0.00815  2.169644  0.01  -0.592124  0.006231  2.15935  0.008  -0.321149  -0.550643  0.01042  2.177066  0.012
O  O80  1  0.75109481  0.40958330  0.35105970  1  -0.61674  0.005053  1.950174  0.006  -0.567784  0.00815  2.170149  0.01  -0.592231  0.00623  2.159878  0.008  -0.321147  -0.55075  0.010419  2.177566  0.012
O  O81  1  0.74887008  0.09045449  0.35101610  1  -0.616768  0.005047  1.949498  0.006  -0.567781  0.008148  2.16953  0.01  -0.592239  0.006229  2.15925  0.008  -0.321256  -0.550744  0.010417  2.176931  0.012
O  O82  1  0.92472284  0.92962528  0.71246590  1  -0.837004  0.030264  1.883907  0.019  -0.781117  0.040157  2.100604  0.025  -0.804729  0.035966  2.070851  0.022  -0.56185  -0.763242  0.044045  2.120875  0.028
O  O83  1  0.57530738  0.57033150  0.71245602  1  -0.836751  0.030261  1.884079  0.019  -0.780995  0.040158  2.100747  0.025  -0.804598  0.035967  2.070987  0.022  -0.561894  -0.763122  0.044042  2.12102  0.028
O  O84  1  0.07528508  0.07034909  0.28753074  1  -0.837037  0.03027  1.883749  0.019  -0.781173  0.040153  2.10042  0.025  -0.804782  0.035963  2.070659  0.022  -0.561877  -0.763295  0.04404  2.120697  0.028
O  O85  1  0.42469476  0.42966149  0.28754061  1  -0.836867  0.030262  1.884031  0.019  -0.781101  0.040153  2.100701  0.025  -0.804704  0.035962  2.070945  0.022  -0.561917  -0.763233  0.044039  2.120978  0.028
