# generated using pymatgen
data_ZnH13C17O7
_symmetry_space_group_name_H-M   'P 1'
_cell_length_a   10.12941886
_cell_length_b   18.46195726
_cell_length_c   27.24124758
_cell_angle_alpha   90.00021811
_cell_angle_beta   101.37223571
_cell_angle_gamma   89.99939384
_symmetry_Int_Tables_number   1
_chemical_formula_structural   ZnH13C17O7
_chemical_formula_sum   'Zn8 H104 C136 O56'
_cell_volume   4994.33739287
_cell_formula_units_Z   8
loop_
 _symmetry_equiv_pos_site_id
 _symmetry_equiv_pos_as_xyz
  1  'x, y, z'
loop_
 _atom_site_type_symbol
 _atom_site_label
 _atom_site_symmetry_multiplicity
 _atom_site_fract_x
 _atom_site_fract_y
 _atom_site_fract_z
 _atom_site_occupancy
 _atom_site_pbe_bader_charge
 _atom_site_pbe_bader_spin_density
 _atom_site_pbe_cm5_charge
 _atom_site_pbe_ddec_charge
 _atom_site_pbe_ddec_spin_density
 _atom_site_pbe_ddec_sum_bond_order
 _atom_site_pbe_magmom
Zn  Zn0  1  0.46537247  0.80243717  0.30605717  1  1.344241  0  0.681217  0.941826  0  2.312429  0
Zn  Zn1  1  0.53462997  0.30243496  0.19393822  1  1.344497  0  0.681201  0.941717  0  2.312287  0
Zn  Zn2  1  0.53462594  0.19755961  0.69394611  1  1.344232  0  0.681194  0.941637  0  2.31256  0
Zn  Zn3  1  0.46537216  0.69755586  0.80605907  1  1.344265  0  0.681184  0.941734  0  2.312512  0
Zn  Zn4  1  0.61906053  0.72870486  0.21762652  1  1.339618  0  0.679044  0.964102  0  2.264285  0
Zn  Zn5  1  0.38094939  0.22870782  0.28237067  1  1.339556  0  0.67905  0.964089  0  2.264336  0
Zn  Zn6  1  0.38093655  0.27129679  0.78237007  1  1.339758  0  0.679024  0.964076  0  2.264369  0
Zn  Zn7  1  0.61904994  0.77129004  0.71763084  1  1.339499  0  0.679042  0.964175  0  2.264276  0
H  H8  1  0.80050753  0.89334772  0.39843006  1  0.103955  0  0.111861  0.124112  0  0.99072  0
H  H9  1  0.19949465  0.39335615  0.10157398  1  0.104045  0  0.111827  0.124155  0  0.99062  0
H  H10  1  0.19948596  0.10665447  0.60157509  1  0.104704  0  0.111719  0.123892  0  0.990872  0
H  H11  1  0.80050579  0.60665254  0.89842980  1  0.103935  0  0.111847  0.124111  0  0.990717  0
H  H12  1  0.01188018  0.78510932  0.29739634  1  0.093712  0  0.101721  0.102486  0  1.033033  0
H  H13  1  0.98812097  0.28506930  0.20258644  1  0.094091  0  0.101686  0.102574  0  1.033018  0
H  H14  1  0.98810495  0.21490479  0.70260202  1  0.093377  0  0.101724  0.102522  0  1.032989  0
H  H15  1  0.01187109  0.71487927  0.79738962  1  0.093623  0  0.101686  0.10243  0  1.033045  0
H  H16  1  0.49304589  0.39139043  0.38782990  1  0.088562  0  0.1069  0.112162  0  1.003126  0
H  H17  1  0.50696591  0.89139728  0.11216488  1  0.089088  0  0.106976  0.112241  0  1.003146  0
H  H18  1  0.50695425  0.60860309  0.61216763  1  0.088625  0  0.106948  0.112169  0  1.00319  0
H  H19  1  0.49303026  0.10860545  0.88783349  1  0.089132  0  0.106979  0.112334  0  1.003126  0
H  H20  1  0.51909530  0.62415116  0.38769815  1  0.134246  0  0.112803  0.125803  0  0.983557  0
H  H21  1  0.48088138  0.12415368  0.11229766  1  0.134176  0  0.112774  0.125828  0  0.983536  0
H  H22  1  0.48088370  0.37584345  0.61229797  1  0.134117  0  0.112756  0.125808  0  0.983539  0
H  H23  1  0.51911511  0.87584905  0.88770733  1  0.134271  0  0.112702  0.125748  0  0.983676  0
H  H24  1  0.23292820  0.91346647  0.41679889  1  0.09084  0  0.109494  0.120031  0  0.991783  0
H  H25  1  0.76707132  0.41345578  0.08319952  1  0.090763  0  0.109477  0.120029  0  0.991813  0
H  H26  1  0.76706820  0.08653247  0.58320426  1  0.090806  0  0.109468  0.12005  0  0.991768  0
H  H27  1  0.23292585  0.58653233  0.91679891  1  0.090886  0  0.109499  0.120072  0  0.991763  0
H  H28  1  0.55285151  0.50317869  0.25552193  1  0.087298  0  0.110324  0.121833  0  0.997332  0
H  H29  1  0.44717584  0.00318106  0.24447916  1  0.08756  0  0.110341  0.121805  0  0.997305  0
H  H30  1  0.44716082  0.49681375  0.74447861  1  0.087246  0  0.110301  0.121778  0  0.997351  0
H  H31  1  0.55281338  0.99680976  0.75552094  1  0.087299  0  0.110297  0.121774  0  0.997413  0
H  H32  1  0.16719446  0.83810756  0.48231493  1  0.105667  0  0.102277  0.115788  0  1.059089  0
H  H33  1  0.83281671  0.33810803  0.01768774  1  0.105481  0  0.102367  0.115952  0  1.059016  0
H  H34  1  0.83280700  0.16189626  0.51768892  1  0.10545  0  0.102354  0.115904  0  1.059086  0
H  H35  1  0.16719472  0.66189253  0.98231494  1  0.105626  0  0.102325  0.115868  0  1.059094  0
H  H36  1  0.74109457  0.46324623  0.42678686  1  0.04623  0  0.099703  0.113208  0  1.055649  0
H  H37  1  0.25890901  0.96324672  0.07321084  1  0.046267  0  0.099745  0.113261  0  1.055566  0
H  H38  1  0.25890765  0.53675163  0.57321227  1  0.046193  0  0.09973  0.113255  0  1.055575  0
H  H39  1  0.74109014  0.03675493  0.92678698  1  0.04648  0  0.099722  0.113269  0  1.055541  0
H  H40  1  0.28101378  0.56941445  0.39354052  1  0.055598  0  0.098268  0.110143  0  1.059916  0
H  H41  1  0.71898210  0.06941608  0.10645790  1  0.055653  0  0.098284  0.110195  0  1.059903  0
H  H42  1  0.71898035  0.43058287  0.60645734  1  0.055659  0  0.09831  0.110231  0  1.059895  0
H  H43  1  0.28101906  0.93058665  0.89354006  1  0.055535  0  0.098294  0.110195  0  1.059859  0
H  H44  1  0.11525974  0.98536011  0.62996234  1  0.065002  0  0.100588  0.110567  0  1.059699  0
H  H45  1  0.88475196  0.48535846  0.87004042  1  0.065211  0  0.100641  0.110656  0  1.059696  0
H  H46  1  0.88475980  0.01464370  0.37004198  1  0.065273  0  0.100589  0.110656  0  1.059565  0
H  H47  1  0.11524944  0.51464481  0.12996233  1  0.06509  0  0.100568  0.110625  0  1.059634  0
H  H48  1  0.89842705  0.38500266  0.40834219  1  0.077023  0  0.099947  0.100342  0  0.982212  0
H  H49  1  0.10157214  0.88500634  0.09165907  1  0.077108  0  0.099933  0.100319  0  0.982209  0
H  H50  1  0.10157422  0.61499682  0.59165798  1  0.077027  0  0.09996  0.100345  0  0.982182  0
H  H51  1  0.89842606  0.11499693  0.90833980  1  0.076978  0  0.099905  0.100273  0  0.982219  0
H  H52  1  0.07521918  0.39727360  0.43280735  1  0.081471  0  0.112248  0.12278  0  0.964546  0
H  H53  1  0.92478278  0.89728209  0.06719376  1  0.081538  0  0.112248  0.122725  0  0.964625  0
H  H54  1  0.92478211  0.60272371  0.56719319  1  0.081523  0  0.112212  0.122713  0  0.964587  0
H  H55  1  0.07521853  0.10272281  0.93280715  1  0.081495  0  0.112215  0.122694  0  0.964582  0
H  H56  1  0.96405237  0.47401637  0.42560849  1  0.041929  0  0.099501  0.103629  0  1.007694  0
H  H57  1  0.03595516  0.97402142  0.07439208  1  0.042233  0  0.099444  0.103552  0  1.007726  0
H  H58  1  0.03595384  0.52598203  0.57439018  1  0.041918  0  0.099494  0.103593  0  1.00772  0
H  H59  1  0.96404816  0.02598077  0.92560896  1  0.041955  0  0.099472  0.103575  0  1.007712  0
H  H60  1  0.36411535  0.77626148  0.50238298  1  0.05739  0  0.106482  0.11163  0  0.972773  0
H  H61  1  0.63590035  0.27626525  0.99762210  1  0.057483  0  0.106481  0.111622  0  0.972757  0
H  H62  1  0.63590023  0.22374775  0.49762255  1  0.056819  0  0.106502  0.111661  0  0.972768  0
H  H63  1  0.36411117  0.72374344  0.00238243  1  0.057492  0  0.106482  0.111676  0  0.97276  0
H  H64  1  0.21773270  0.72584474  0.51044349  1  0.074322  0  0.104037  0.112674  0  0.995793  0
H  H65  1  0.78228804  0.22584869  0.98956328  1  0.074333  0  0.103994  0.112488  0  0.995985  0
H  H66  1  0.78228783  0.27415853  0.48956054  1  0.074361  0  0.104043  0.112578  0  0.996019  0
H  H67  1  0.21772366  0.77415783  0.01044494  1  0.074355  0  0.104041  0.112638  0  0.995967  0
H  H68  1  0.38054878  0.70019865  0.54448530  1  0.06627  0  0.108067  0.117987  0  0.98995  0
H  H69  1  0.61947040  0.20020011  0.95552093  1  0.066268  0  0.108042  0.117914  0  0.989958  0
H  H70  1  0.61947377  0.29980896  0.45551923  1  0.067618  0  0.108042  0.117998  0  0.989899  0
H  H71  1  0.38053629  0.79980479  0.04448731  1  0.066261  0  0.108063  0.118039  0  0.989873  0
H  H72  1  0.47826672  0.69967341  0.12208410  1  0.629477  0  0.309612  0.391684  0  0.924554  0
H  H73  1  0.52173896  0.19968259  0.37791786  1  0.629331  0  0.309661  0.391674  0  0.924589  0
H  H74  1  0.52172672  0.30031470  0.87791995  1  0.629918  0  0.309628  0.391715  0  0.924522  0
H  H75  1  0.47828052  0.80031690  0.62208536  1  0.629786  0  0.309596  0.391694  0  0.924518  0
H  H76  1  0.48006285  0.63569328  0.15715807  1  0.629526  0  0.312124  0.392045  0  0.917083  0
H  H77  1  0.51993513  0.13569849  0.34284690  1  0.62967  0  0.312092  0.39185  0  0.917434  0
H  H78  1  0.51995573  0.36429374  0.84284730  1  0.629496  0  0.312106  0.392033  0  0.918068  0
H  H79  1  0.48005140  0.86429450  0.65715963  1  0.629482  0  0.312095  0.392092  0  0.917947  0
H  H80  1  0.83091980  0.66524068  0.18769798  1  0.636419  0  0.343124  0.419288  0  0.849614  0
H  H81  1  0.16910274  0.16524396  0.31230723  1  0.636552  0  0.343099  0.419329  0  0.849547  0
H  H82  1  0.16909764  0.33476856  0.81230437  1  0.637199  0  0.343065  0.419221  0  0.849592  0
H  H83  1  0.83088659  0.83476310  0.68769508  1  0.637334  0  0.343103  0.419322  0  0.849528  0
H  H84  1  0.86508939  0.72551545  0.22979601  1  0.633151  0  0.321631  0.407662  0  0.895273  0
H  H85  1  0.13491558  0.22550625  0.27020120  1  0.633423  0  0.321611  0.407652  0  0.895283  0
H  H86  1  0.13491373  0.27450245  0.77020098  1  0.633416  0  0.321617  0.407673  0  0.895253  0
H  H87  1  0.86508960  0.77449703  0.72979666  1  0.63295  0  0.321634  0.407658  0  0.895276  0
H  H88  1  0.06420610  0.58076532  0.35003722  1  0.044083  0  0.096293  0.091888  0  0.987937  0
H  H89  1  0.93578833  0.08076432  0.14995636  1  0.043693  0  0.096326  0.091918  0  0.988026  0
H  H90  1  0.93580114  0.41923416  0.64996188  1  0.044093  0  0.096262  0.091834  0  0.987977  0
H  H91  1  0.06421610  0.91923029  0.85002640  1  0.010057  0  0.096269  0.091861  0  0.987999  0
H  H92  1  0.14369367  0.66685623  0.36654978  1  0.075475  0  0.099647  0.105832  0  0.995063  0
H  H93  1  0.85630544  0.16685884  0.13344910  1  0.075416  0  0.09962  0.1058  0  0.99505  0
H  H94  1  0.85631772  0.33314109  0.63345217  1  0.074323  0  0.099608  0.105788  0  0.994995  0
H  H95  1  0.14369619  0.83314281  0.86655844  1  0.075519  0  0.099655  0.10581  0  0.995066  0
H  H96  1  0.96351976  0.65970342  0.35499643  1  0.073713  0  0.106997  0.119062  0  0.980342  0
H  H97  1  0.03647933  0.15970168  0.14499913  1  0.073794  0  0.106985  0.119057  0  0.980332  0
H  H98  1  0.03649133  0.34029714  0.64499926  1  0.073682  0  0.10698  0.119051  0  0.980259  0
H  H99  1  0.96352369  0.84029997  0.85499565  1  0.073768  0  0.107031  0.119129  0  0.980304  0
H  H100  1  0.12548076  0.89920146  0.69062430  1  0.020631  0  0.098226  0.093591  0  0.993776  0
H  H101  1  0.87452959  0.39920224  0.80937963  1  0.020456  0  0.098187  0.093584  0  0.993811  0
H  H102  1  0.87454690  0.10081048  0.30938204  1  0.020168  0  0.098243  0.093661  0  0.993781  0
H  H103  1  0.12547081  0.60080158  0.19062306  1  0.020469  0  0.098179  0.093556  0  0.99376  0
H  H104  1  0.27471973  0.95423530  0.69904758  1  0.056492  0  0.102874  0.107457  0  0.980192  0
H  H105  1  0.72529378  0.45423907  0.80096000  1  0.056375  0  0.102891  0.107483  0  0.980233  0
H  H106  1  0.72530966  0.04577556  0.30095300  1  0.056483  0  0.102892  0.10742  0  0.980293  0
H  H107  1  0.27471081  0.54576908  0.19904663  1  0.056463  0  0.102885  0.107436  0  0.980266  0
H  H108  1  0.28222189  0.86438084  0.72504380  1  0.08303  0  0.111459  0.128149  0  0.982027  0
H  H109  1  0.71778605  0.36438722  0.77495915  1  0.083273  0  0.111451  0.128222  0  0.981997  0
H  H110  1  0.71780966  0.13563218  0.27495986  1  0.083072  0  0.111417  0.128125  0  0.98205  0
H  H111  1  0.28220837  0.63562201  0.22504461  1  0.083029  0  0.111426  0.128109  0  0.982035  0
C  C112  1  0.89501590  0.88107082  0.38682617  1  -0.016298  0  -0.073002  -0.122144  0  3.899948  0
C  C113  1  0.10498323  0.38106578  0.11317251  1  -0.016248  0  -0.073106  -0.122567  0  3.900107  0
C  C114  1  0.10497758  0.11893354  0.61317899  1  -0.017208  0  -0.072857  -0.121838  0  3.900124  0
C  C115  1  0.89501497  0.61892883  0.88682636  1  -0.015834  0  -0.072993  -0.122173  0  3.899941  0
C  C116  1  0.89155105  0.83724870  0.34467615  1  -0.060784  0  -0.024321  -0.047411  0  4.014677  0
C  C117  1  0.10844356  0.33723088  0.15531587  1  -0.062771  0  -0.024188  -0.046994  0  4.014071  0
C  C118  1  0.10843837  0.16275674  0.65532800  1  -0.061273  0  -0.024272  -0.047487  0  4.014663  0
C  C119  1  0.89154718  0.66274639  0.84467405  1  -0.06095  0  -0.024364  -0.047387  0  4.014752  0
C  C120  1  0.01132006  0.81928293  0.32984322  1  -0.066438  0  -0.081322  -0.11139  0  3.971827  0
C  C121  1  0.98867661  0.31925139  0.17014302  1  -0.06664  0  -0.081233  -0.111553  0  3.971799  0
C  C122  1  0.98866618  0.18072576  0.67015741  1  -0.066442  0  -0.081378  -0.111373  0  3.971876  0
C  C123  1  0.01131690  0.68071234  0.82984195  1  -0.067342  0  -0.081264  -0.111372  0  3.971892  0
C  C124  1  0.52311975  0.44021975  0.31931353  1  -0.023517  0  -0.021061  -0.038237  0  4.007155  0
C  C125  1  0.47689829  0.94021795  0.18068362  1  -0.023293  0  -0.021149  -0.038433  0  4.007165  0
C  C126  1  0.47688748  0.55977702  0.68068521  1  -0.023312  0  -0.021077  -0.038468  0  4.007262  0
C  C127  1  0.52309175  0.05977882  0.81931250  1  -0.023132  0  -0.021071  -0.038273  0  4.00722  0
C  C128  1  0.75911332  0.81147059  0.31559224  1  1.574225  0  0.221054  0.612179  0  4.168118  0
C  C129  1  0.24088610  0.31146191  0.18440628  1  1.574446  0  0.221021  0.611972  0  4.167911  0
C  C130  1  0.24087610  0.18853702  0.68441191  1  1.574193  0  0.221071  0.612194  0  4.167787  0
C  C131  1  0.75911187  0.68852078  0.81558780  1  1.574406  0  0.221006  0.612021  0  4.168072  0
C  C132  1  0.50424764  0.50623755  0.44869970  1  -0.067309  0  -0.017195  -0.047641  0  3.958999  0
C  C133  1  0.49574530  0.00624289  0.05129653  1  -0.066858  0  -0.017147  -0.047621  0  3.958864  0
C  C134  1  0.49574750  0.49375598  0.55129823  1  -0.066429  0  -0.017113  -0.047509  0  3.95886  0
C  C135  1  0.50424886  0.99376147  0.94870170  1  -0.066647  0  -0.017299  -0.047982  0  3.958972  0
C  C136  1  0.53754584  0.64101254  0.29234948  1  1.56097  0  0.22244  0.604324  0  4.189438  0
C  C137  1  0.46246298  0.14101028  0.20765328  1  1.561398  0  0.222558  0.604443  0  4.189487  0
C  C138  1  0.46245038  0.35898261  0.70764999  1  1.560516  0  0.222571  0.604367  0  4.189161  0
C  C139  1  0.53752245  0.85898270  0.79235134  1  1.560794  0  0.222549  0.604322  0  4.189463  0
C  C140  1  0.07878500  0.93558454  0.50619369  1  -0.00249  0  -0.010487  0.050335  0  4.011018  0
C  C141  1  0.92121664  0.43558337  0.99381011  1  -0.002092  0  -0.010481  0.050308  0  4.011243  0
C  C142  1  0.92121448  0.06442198  0.49381077  1  -0.002517  0  -0.010483  0.050371  0  4.011041  0
C  C143  1  0.07878379  0.56442207  0.00619331  1  -0.00248  0  -0.010516  0.050285  0  4.011011  0
C  C144  1  0.01259271  0.95656558  0.45759350  1  -0.032783  0  -0.010222  -0.036191  0  3.919773  0
C  C145  1  0.98740627  0.45656692  0.04241012  1  -0.032732  0  -0.010124  -0.036007  0  3.919776  0
C  C146  1  0.98740975  0.04343769  0.54241042  1  -0.033032  0  -0.010155  -0.036165  0  3.920016  0
C  C147  1  0.01259416  0.54343635  0.95759330  1  -0.032897  0  -0.010207  -0.036105  0  3.919943  0
C  C148  1  0.13386275  0.84577659  0.35631916  1  0.030006  0  -0.018959  -0.02543  0  3.996224  0
C  C149  1  0.86613553  0.34574941  0.14366909  1  0.030429  0  -0.019098  -0.025422  0  3.996329  0
C  C150  1  0.86612547  0.15422994  0.64368087  1  0.030097  0  -0.018986  -0.025486  0  3.996472  0
C  C151  1  0.13386322  0.65422462  0.85632064  1  0.03047  0  -0.018887  -0.025231  0  3.996037  0
C  C152  1  0.06499729  0.97905193  0.54892568  1  0.031955  0  -0.011127  0.047917  0  4.011419  0
C  C153  1  0.93501056  0.47905098  0.95107791  1  0.032016  0  -0.011262  0.047652  0  4.011405  0
C  C154  1  0.93500819  0.02095297  0.45107844  1  0.032089  0  -0.011308  0.047635  0  4.011272  0
C  C155  1  0.06499287  0.52095446  0.04892534  1  0.032056  0  -0.011124  0.047917  0  4.011258  0
C  C156  1  0.50657819  0.44207890  0.36897099  1  -0.048071  0  -0.072319  -0.124418  0  3.91682  0
C  C157  1  0.49343384  0.94208051  0.13102723  1  -0.048672  0  -0.072351  -0.124494  0  3.916773  0
C  C158  1  0.49342704  0.55791625  0.63102798  1  -0.048282  0  -0.072407  -0.124401  0  3.91689  0
C  C159  1  0.50655725  0.05792168  0.86897006  1  -0.0485  0  -0.072414  -0.124699  0  3.916974  0
C  C160  1  0.01667875  0.90933427  0.41360068  1  -0.01186  0  -0.003999  0.081824  0  3.991765  0
C  C161  1  0.98332097  0.40932992  0.08640031  1  -0.012056  0  -0.003999  0.08191  0  3.991711  0
C  C162  1  0.98331767  0.09067009  0.58640284  1  -0.01132  0  -0.003946  0.081834  0  3.99174  0
C  C163  1  0.01667735  0.59066685  0.91360114  1  -0.011846  0  -0.003999  0.0818  0  3.991775  0
C  C164  1  0.50918866  0.50769823  0.39482422  1  0.015657  0  -0.003632  0.089265  0  4.025164  0
C  C165  1  0.49081646  0.00770227  0.10517540  1  0.015714  0  -0.003552  0.089391  0  4.025069  0
C  C166  1  0.49081157  0.49229747  0.60517514  1  0.015767  0  -0.003615  0.089255  0  4.025168  0
C  C167  1  0.50917978  0.99230371  0.89482444  1  0.015587  0  -0.003633  0.089383  0  4.025233  0
C  C168  1  0.53318610  0.57067068  0.31875983  1  -0.03559  0  -0.022545  -0.045439  0  4.009985  0
C  C169  1  0.46682902  0.07066554  0.18124245  1  -0.035785  0  -0.022636  -0.045672  0  4.010109  0
C  C170  1  0.46681911  0.42932609  0.68123877  1  -0.035247  0  -0.022529  -0.04541  0  4.009903  0
C  C171  1  0.53315429  0.92932744  0.81875982  1  -0.03531  0  -0.022495  -0.045552  0  4.010132  0
C  C172  1  0.51983863  0.57202662  0.36900844  1  -0.081909  0  -0.07061  -0.119891  0  3.891414  0
C  C173  1  0.48016630  0.07203033  0.13099132  1  -0.08188  0  -0.070588  -0.119913  0  3.891414  0
C  C174  1  0.48015852  0.42796799  0.63098962  1  -0.082032  0  -0.070601  -0.119966  0  3.89144  0
C  C175  1  0.51982706  0.92797240  0.86901126  1  -0.082075  0  -0.070524  -0.119771  0  3.891557  0
C  C176  1  0.13647576  0.89159469  0.39759060  1  -0.071336  0  -0.073522  -0.133373  0  3.896929  0
C  C177  1  0.86352300  0.39157922  0.10240440  1  -0.070353  0  -0.073519  -0.133424  0  3.896959  0
C  C178  1  0.86351758  0.10840912  0.60241161  1  -0.071419  0  -0.073599  -0.133462  0  3.896967  0
C  C179  1  0.13647403  0.60840835  0.89759108  1  -0.071542  0  -0.073551  -0.133485  0  3.89703  0
C  C180  1  0.61519864  0.47609750  0.48208533  1  0.025602  0  -0.015421  0.04304  0  4.037873  0
C  C181  1  0.38479771  0.97610237  0.01791302  1  0.025255  0  -0.015528  0.042791  0  4.038117  0
C  C182  1  0.38479756  0.52389711  0.51791377  1  0.025325  0  -0.015507  0.042803  0  4.038055  0
C  C183  1  0.61520049  0.02390524  0.98208584  1  0.025485  0  -0.01535  0.043165  0  4.037609  0
C  C184  1  0.53913696  0.50467001  0.29416027  1  0.008805  0  -0.076286  -0.107115  0  3.930502  0
C  C185  1  0.46088530  0.00466612  0.20583975  1  0.008384  0  -0.076262  -0.106908  0  3.930569  0
C  C186  1  0.46087531  0.49532677  0.70583917  1  0.008564  0  -0.076218  -0.106958  0  3.930553  0
C  C187  1  0.53909586  0.99532632  0.79415944  1  0.008323  0  -0.076241  -0.107016  0  3.930869  0
C  C188  1  0.38961514  0.53125911  0.46572224  1  0.041853  0  -0.017335  0.042703  0  4.040864  0
C  C189  1  0.61038145  0.03126586  0.03427613  1  0.041671  0  -0.017427  0.042676  0  4.040839  0
C  C190  1  0.61038106  0.46873333  0.53427686  1  0.041249  0  -0.017459  0.042592  0  4.040816  0
C  C191  1  0.38961574  0.96874013  0.96572267  1  0.041277  0  -0.017339  0.042807  0  4.040932  0
C  C192  1  0.15854900  0.87124067  0.51447873  1  0.039233  0  -0.118282  -0.272974  0  4.014915  0
C  C193  1  0.84145890  0.37124208  0.98552607  1  0.038851  0  -0.1183  -0.27311  0  4.015124  0
C  C194  1  0.84145450  0.12876315  0.48552600  1  0.039161  0  -0.118275  -0.27304  0  4.015036  0
C  C195  1  0.15854453  0.62876227  0.01447719  1  0.039125  0  -0.11829  -0.273033  0  4.014908  0
C  C196  1  0.73500468  0.45463622  0.46572559  1  0.012237  0  -0.123085  -0.287725  0  4.037649  0
C  C197  1  0.26499102  0.95464133  0.03427193  1  0.012411  0  -0.123069  -0.287486  0  4.037468  0
C  C198  1  0.26499152  0.54536056  0.53427351  1  0.012271  0  -0.123056  -0.287581  0  4.037445  0
C  C199  1  0.73500210  0.04536411  0.96572586  1  0.011982  0  -0.123112  -0.287749  0  4.037623  0
C  C200  1  0.20626502  0.89259930  0.60416901  1  0.487115  0  0.0699  0.152996  0  4.075244  0
C  C201  1  0.79374444  0.39259995  0.89583484  1  0.486849  0  0.069831  0.152971  0  4.074876  0
C  C202  1  0.79375049  0.10740777  0.39583505  1  0.486553  0  0.069877  0.152994  0  4.07501  0
C  C203  1  0.20625902  0.60740604  0.10416915  1  0.487434  0  0.069834  0.152872  0  4.075361  0
C  C204  1  0.27688717  0.56308425  0.43289714  1  0.039802  0  -0.125419  -0.28725  0  4.033401  0
C  C205  1  0.72310783  0.06308781  0.06710120  1  0.039622  0  -0.12549  -0.287407  0  4.0335  0
C  C206  1  0.72310902  0.43691090  0.56710159  1  0.039903  0  -0.125484  -0.287384  0  4.033499  0
C  C207  1  0.27688528  0.93691871  0.93289622  1  0.039782  0  -0.125499  -0.287385  0  4.033498  0
C  C208  1  0.12866796  0.95410598  0.59751053  1  -0.025568  0  -0.121062  -0.275792  0  4.037027  0
C  C209  1  0.87134436  0.45410568  0.90249293  1  -0.025761  0  -0.120925  -0.275662  0  4.03671  0
C  C210  1  0.87134556  0.04589783  0.40249376  1  -0.025397  0  -0.120902  -0.275736  0  4.036736  0
C  C211  1  0.12866109  0.54589868  0.09751046  1  -0.026262  0  -0.121053  -0.275941  0  4.037173  0
C  C212  1  0.22383202  0.85063174  0.56145670  1  0.380964  0  0.074226  0.16403  0  4.061553  0
C  C213  1  0.77618126  0.35063382  0.93854767  1  0.38141  0  0.074146  0.164047  0  4.061264  0
C  C214  1  0.77617747  0.14937045  0.43854733  1  0.381528  0  0.074181  0.164129  0  4.06135  0
C  C215  1  0.22382422  0.64936945  0.06145645  1  0.38131  0  0.074216  0.164168  0  4.061226  0
C  C216  1  0.97390062  0.41596619  0.43486195  1  0.368099  0  -0.134043  -0.173237  0  3.899522  0
C  C217  1  0.02610096  0.91597341  0.06513844  1  0.367622  0  -0.133966  -0.173039  0  3.899541  0
C  C218  1  0.02610358  0.58403167  0.56513658  1  0.36809  0  -0.134033  -0.173188  0  3.899725  0
C  C219  1  0.97389636  0.08403311  0.93486294  1  0.368239  0  -0.133971  -0.173053  0  3.899615  0
C  C220  1  0.84251353  0.42476917  0.49806475  1  0.473108  0  0.07527  0.159969  0  4.092423  0
C  C221  1  0.15747773  0.92478069  0.00193313  1  0.472716  0  0.07533  0.159734  0  4.09251  0
C  C222  1  0.15748469  0.57522760  0.50193448  1  0.473141  0  0.075318  0.159887  0  4.092434  0
C  C223  1  0.84251236  0.07523017  0.99806409  1  0.473072  0  0.075239  0.15991  0  4.092539  0
C  C224  1  0.31699474  0.74603413  0.52923439  1  0.376743  0  -0.133827  -0.175342  0  3.873625  0
C  C225  1  0.68302357  0.24604018  0.97077152  1  0.376643  0  -0.133726  -0.175007  0  3.873596  0
C  C226  1  0.68302484  0.25397131  0.47077067  1  0.375783  0  -0.133805  -0.175226  0  3.873657  0
C  C227  1  0.31698503  0.75396960  0.02923501  1  0.376603  0  -0.133812  -0.175379  0  3.873755  0
C  C228  1  0.16496713  0.58600040  0.45012216  1  0.416647  0  0.073289  0.152028  0  4.096559  0
C  C229  1  0.83502633  0.08600429  0.04987393  1  0.416865  0  0.073484  0.152185  0  4.096489  0
C  C230  1  0.83502900  0.41399583  0.54987546  1  0.416595  0  0.07341  0.15209  0  4.096506  0
C  C231  1  0.16496063  0.91401090  0.95012088  1  0.417165  0  0.073431  0.152276  0  4.09634  0
C  C232  1  0.25850399  0.82482715  0.33825905  1  1.531749  0  0.185935  0.553188  0  4.221547  0
C  C233  1  0.74148563  0.32480296  0.16172894  1  1.530901  0  0.185824  0.553146  0  4.221652  0
C  C234  1  0.74148011  0.17517667  0.66173887  1  1.531019  0  0.185841  0.552906  0  4.221874  0
C  C235  1  0.25850609  0.67517269  0.83826069  1  1.531356  0  0.185884  0.553092  0  4.221322  0
C  C236  1  0.05814763  0.63191274  0.37038128  1  0.375163  0  -0.135851  -0.169189  0  3.90728  0
C  C237  1  0.94184901  0.13191429  0.12961514  1  0.375417  0  -0.135827  -0.16918  0  3.907363  0
C  C238  1  0.94185656  0.36808512  0.62961688  1  0.376373  0  -0.135767  -0.16906  0  3.907175  0
C  C239  1  0.05814894  0.86809224  0.87037857  1  0.409202  0  -0.135959  -0.169282  0  3.907276  0
C  C240  1  0.51839949  0.36929114  0.29295992  1  1.56746  0  0.226568  0.613359  0  4.176122  0
C  C241  1  0.48160952  0.86928566  0.20703094  1  1.567883  0  0.226691  0.613748  0  4.1764  0
C  C242  1  0.48159035  0.63071268  0.70703215  1  1.567772  0  0.226529  0.613759  0  4.17621  0
C  C243  1  0.51839546  0.13070895  0.79296287  1  1.567228  0  0.226567  0.613558  0  4.176124  0
C  C244  1  0.23546292  0.89858312  0.69357468  1  0.406567  0  -0.133835  -0.169788  0  3.890799  0
C  C245  1  0.76454850  0.39858615  0.80643042  1  0.406613  0  -0.133764  -0.169868  0  3.891013  0
C  C246  1  0.76456665  0.10142937  0.30642959  1  0.407012  0  -0.133785  -0.169873  0  3.891051  0
C  C247  1  0.23545299  0.60142038  0.19357417  1  0.406687  0  -0.133812  -0.169828  0  3.890849  0
O  O248  1  0.65518011  0.83580638  0.32948543  1  -1.159856  0  -0.310631  -0.534612  0  2.330859  0
O  O249  1  0.34481618  0.33580406  0.17051992  1  -1.159614  0  -0.310573  -0.534499  0  2.33113  0
O  O250  1  0.34481294  0.16418498  0.67053145  1  -1.159205  0  -0.310556  -0.534461  0  2.330716  0
O  O251  1  0.65518013  0.66418459  0.82948139  1  -1.15967  0  -0.310702  -0.534622  0  2.330927  0
O  O252  1  0.50828431  0.69697750  0.31468258  1  -1.1849  0  -0.307365  -0.556954  0  2.418035  0
O  O253  1  0.49168839  0.19697766  0.18532122  1  -1.185003  0  -0.307369  -0.556953  0  2.418388  0
O  O254  1  0.49166549  0.30301440  0.68531158  1  -1.184573  0  -0.307383  -0.556903  0  2.417968  0
O  O255  1  0.50829727  0.80301587  0.81468819  1  -1.185044  0  -0.30748  -0.556921  0  2.418083  0
O  O256  1  0.56809510  0.63959428  0.24872998  1  -1.170711  0  -0.328016  -0.581557  0  2.353678  0
O  O257  1  0.43192401  0.13958811  0.25127751  1  -1.170837  0  -0.328158  -0.581698  0  2.353581  0
O  O258  1  0.43193253  0.36040520  0.75127562  1  -1.170681  0  -0.328162  -0.581525  0  2.353656  0
O  O259  1  0.56805949  0.86040054  0.74872882  1  -1.17043  0  -0.328027  -0.581428  0  2.353681  0
O  O260  1  0.76030605  0.76798214  0.27902671  1  -1.197535  0  -0.329273  -0.612711  0  2.343663  0
O  O261  1  0.23969022  0.26797096  0.22097296  1  -1.197646  0  -0.329306  -0.612685  0  2.343428  0
O  O262  1  0.23967690  0.23204443  0.72096820  1  -1.197796  0  -0.329333  -0.612812  0  2.343566  0
O  O263  1  0.76030575  0.73200794  0.77902135  1  -1.197578  0  -0.329154  -0.612538  0  2.343599  0
O  O264  1  0.30485400  0.79059456  0.57145665  1  -1.076681  0  -0.185044  -0.165218  0  2.594999  0
O  O265  1  0.69516043  0.29059597  0.92854838  1  -1.076765  0  -0.185026  -0.165281  0  2.594784  0
O  O266  1  0.69515752  0.20940925  0.42854788  1  -1.076699  0  -0.185058  -0.165402  0  2.594816  0
O  O267  1  0.30485114  0.70940784  0.07145725  1  -1.076657  0  -0.18506  -0.165369  0  2.59496  0
O  O268  1  0.05482638  0.61840349  0.42181363  1  -1.071506  0  -0.186732  -0.149669  0  2.592533  0
O  O269  1  0.94516448  0.11840744  0.07818274  1  -1.071244  0  -0.186795  -0.149697  0  2.592751  0
O  O270  1  0.94516976  0.38159274  0.57818437  1  -1.071496  0  -0.186761  -0.149707  0  2.592681  0
O  O271  1  0.05481123  0.88162075  0.92180764  1  -1.071495  0  -0.1867  -0.149684  0  2.592326  0
O  O272  1  0.96005911  0.40343628  0.48547114  1  -1.061397  0  -0.185389  -0.147437  0  2.584323  0
O  O273  1  0.03993961  0.90344205  0.01452756  1  -1.061622  0  -0.185438  -0.14748  0  2.58439  0
O  O274  1  0.03994119  0.59656375  0.51452970  1  -1.061449  0  -0.185397  -0.14738  0  2.584467  0
O  O275  1  0.96005245  0.09656555  0.98546905  1  -1.061555  0  -0.185388  -0.147446  0  2.584427  0
O  O276  1  0.37262463  0.85217392  0.35888033  1  -1.156601  0  -0.337787  -0.551722  0  2.139529  0
O  O277  1  0.62736817  0.35214866  0.14110096  1  -1.156234  0  -0.337704  -0.551625  0  2.13951  0
O  O278  1  0.62736663  0.14781961  0.64112028  1  -1.155826  0  -0.337755  -0.551529  0  2.139785  0
O  O279  1  0.37261785  0.64780749  0.85887469  1  -1.156055  0  -0.337836  -0.551664  0  2.139344  0
O  O280  1  0.24921425  0.78035887  0.30190971  1  -1.151412  0  -0.338505  -0.564382  0  2.14165  0
O  O281  1  0.75077753  0.28034405  0.19808492  1  -1.150895  0  -0.338373  -0.564365  0  2.141723  0
O  O282  1  0.75076063  0.21965253  0.69808430  1  -1.151577  0  -0.338382  -0.564221  0  2.141686  0
O  O283  1  0.24922601  0.71965652  0.80192054  1  -1.151427  0  -0.33843  -0.564381  0  2.141679  0
O  O284  1  0.54097670  0.67145093  0.14706354  1  -1.210725  0  -0.570348  -0.73261  0  2.053691  0
O  O285  1  0.45902851  0.17146251  0.35293869  1  -1.210709  0  -0.570352  -0.732334  0  2.054153  0
O  O286  1  0.45903066  0.32853826  0.85293814  1  -1.21111  0  -0.570335  -0.732891  0  2.054249  0
O  O287  1  0.54097807  0.82854077  0.64706734  1  -1.210885  0  -0.570277  -0.732929  0  2.054108  0
O  O288  1  0.57075495  0.36563850  0.25459739  1  -1.168503  0  -0.308271  -0.544567  0  2.36826  0
O  O289  1  0.42924515  0.86562542  0.24539470  1  -1.168659  0  -0.308352  -0.544824  0  2.368532  0
O  O290  1  0.42922082  0.63436856  0.74539446  1  -1.168739  0  -0.308301  -0.544894  0  2.368423  0
O  O291  1  0.57078728  0.13436431  0.75460645  1  -1.168382  0  -0.308256  -0.544688  0  2.368231  0
O  O292  1  0.46004899  0.31771991  0.31200456  1  -1.172331  0  -0.325485  -0.571484  0  2.37619  0
O  O293  1  0.53996096  0.81771669  0.18798587  1  -1.172599  0  -0.325481  -0.571553  0  2.376308  0
O  O294  1  0.53993186  0.68228337  0.68798838  1  -1.172339  0  -0.325377  -0.57146  0  2.376261  0
O  O295  1  0.46003359  0.18227954  0.81199990  1  -1.172414  0  -0.325501  -0.571479  0  2.376201  0
O  O296  1  0.81046035  0.71437965  0.19671179  1  -1.205238  0  -0.547964  -0.708008  0  2.046384  0
O  O297  1  0.18954492  0.21438222  0.30328725  1  -1.205594  0  -0.54794  -0.708079  0  2.046223  0
O  O298  1  0.18953889  0.28562796  0.80328788  1  -1.20628  0  -0.547909  -0.707939  0  2.046172  0
O  O299  1  0.81045436  0.78562322  0.69671316  1  -1.205908  0  -0.547956  -0.708065  0  2.046168  0
O  O300  1  0.26941536  0.86604680  0.64989095  1  -1.067919  0  -0.185544  -0.163701  0  2.61003  0
O  O301  1  0.73059854  0.36604756  0.85011130  1  -1.067931  0  -0.185645  -0.16382  0  2.610068  0
O  O302  1  0.73060609  0.13396243  0.35011130  1  -1.068067  0  -0.185653  -0.163769  0  2.609983  0
O  O303  1  0.26940489  0.63395896  0.14989196  1  -1.068141  0  -0.185495  -0.163575  0  2.609877  0
