# generated using pymatgen
data_SmH9C13N2O7
_symmetry_space_group_name_H-M   'P 1'
_cell_length_a   9.29571341
_cell_length_b   10.54724518
_cell_length_c   14.23500000
_cell_angle_alpha   90.00000000
_cell_angle_beta   90.00000000
_cell_angle_gamma   95.44514729
_symmetry_Int_Tables_number   1
_chemical_formula_structural   SmH9C13N2O7
_chemical_formula_sum   'Sm4 H36 C52 N8 O28'
_cell_volume   1389.36083012
_cell_formula_units_Z   4
loop_
 _symmetry_equiv_pos_site_id
 _symmetry_equiv_pos_as_xyz
  1  'x, y, z'
loop_
 _atom_site_type_symbol
 _atom_site_label
 _atom_site_symmetry_multiplicity
 _atom_site_fract_x
 _atom_site_fract_y
 _atom_site_fract_z
 _atom_site_occupancy
 _atom_site_pbe_bader_charge
 _atom_site_pbe_bader_spin_density
 _atom_site_pbe_cm5_charge
 _atom_site_pbe_ddec_charge
 _atom_site_pbe_ddec_spin_density
 _atom_site_pbe_ddec_sum_bond_order
 _atom_site_pbe_magmom
Sm  Sm0  1  0.62453250  0.96890461  0.86562487  1  2.24279  0  1.503273  2.111638  0  2.158354  0
Sm  Sm1  1  0.37546661  0.53109481  0.36562557  1  2.242806  0  1.503272  2.111628  0  2.158383  0
Sm  Sm2  1  0.37546821  0.03109818  0.13437443  1  2.242698  0  1.503302  2.111688  0  2.158181  0
Sm  Sm3  1  0.62453240  0.46890226  0.63437443  1  2.242694  0  1.503298  2.111645  0  2.158235  0
H  H4  1  0.04549443  0.27363863  0.66383702  1  0.104399  0  0.112878  0.122347  0  1.00549  0
H  H5  1  0.95450392  0.22636086  0.16383913  1  0.104398  0  0.112892  0.122365  0  1.005494  0
H  H6  1  0.95450469  0.72635940  0.33616298  1  0.104403  0  0.112877  0.122331  0  1.005482  0
H  H7  1  0.04549668  0.77364097  0.83616157  1  0.104383  0  0.112881  0.122342  0  1.005467  0
H  H8  1  0.27084787  0.20468871  0.74063224  1  0.123236  0  0.118608  0.124391  0  1.002234  0
H  H9  1  0.72915263  0.29531078  0.24063295  1  0.123239  0  0.118603  0.124394  0  1.00225  0
H  H10  1  0.72915478  0.79531217  0.25936705  1  0.123255  0  0.11859  0.124432  0  1.002248  0
H  H11  1  0.27084658  0.70468820  0.75936635  1  0.123231  0  0.118612  0.12447  0  1.00224  0
H  H12  1  0.99060019  0.96555783  0.92296452  1  0.092403  0  0.12525  0.092341  0  1.010146  0
H  H13  1  0.00940225  0.53444254  0.42296593  1  0.092367  0  0.12524  0.092323  0  1.010127  0
H  H14  1  0.00940441  0.03444115  0.07703548  1  0.092498  0  0.12527  0.092342  0  1.010114  0
H  H15  1  0.99059717  0.46555834  0.57703548  1  0.092478  0  0.125248  0.092327  0  1.010181  0
H  H16  1  0.16523072  0.62280357  0.09468282  1  0.103239  0  0.114608  0.117906  0  0.981894  0
H  H17  1  0.83476849  0.87719680  0.59468142  1  0.103269  0  0.114612  0.117921  0  0.981867  0
H  H18  1  0.83476665  0.37719826  0.90531858  1  0.103304  0  0.114611  0.117934  0  0.98188  0
H  H19  1  0.16523190  0.12280313  0.40531718  1  0.103247  0  0.114615  0.117922  0  0.981909  0
H  H20  1  0.07417354  0.39445788  0.05638005  1  0.090191  0  0.103086  0.103117  0  1.031476  0
H  H21  1  0.92582706  0.10554256  0.55638005  1  0.090197  0  0.103082  0.10312  0  1.031429  0
H  H22  1  0.92582900  0.60554205  0.94361855  1  0.090166  0  0.103071  0.103101  0  1.031473  0
H  H23  1  0.07417216  0.89445642  0.44361925  1  0.090167  0  0.103092  0.103137  0  1.031437  0
H  H24  1  0.20175620  0.28093696  0.93393326  1  0.088126  0  0.112043  0.076007  0  1.038811  0
H  H25  1  0.79824441  0.21906348  0.43393256  1  0.088143  0  0.112036  0.075992  0  1.038838  0
H  H26  1  0.79824441  0.71906487  0.06606744  1  0.088119  0  0.112048  0.076003  0  1.038805  0
H  H27  1  0.20175491  0.78093645  0.56606603  1  0.088137  0  0.112055  0.076029  0  1.038788  0
H  H28  1  0.47985997  0.60194478  0.87463224  1  0.130307  0  0.124118  0.105069  0  1.029145  0
H  H29  1  0.52013699  0.89805463  0.37463224  1  0.13027  0  0.124117  0.10509  0  1.02911  0
H  H30  1  0.52013602  0.39805419  0.12536705  1  0.130277  0  0.124096  0.105061  0  1.029137  0
H  H31  1  0.47986223  0.10194434  0.62536635  1  0.130302  0  0.124107  0.105067  0  1.029114  0
H  H32  1  0.44271292  0.87441289  0.68480717  1  0.649112  0  0.283919  0.349343  0  1.012082  0
H  H33  1  0.55728727  0.62558652  0.18480717  1  0.649107  0  0.283922  0.349343  0  1.012089  0
H  H34  1  0.55728932  0.12558418  0.31519283  1  0.649093  0  0.283922  0.349361  0  1.012063  0
H  H35  1  0.44271118  0.37441531  0.81519354  1  0.649105  0  0.283911  0.349319  0  1.012114  0
H  H36  1  0.53311333  0.76118627  0.72702143  1  0.643955  0  0.308784  0.403969  0  0.922012  0
H  H37  1  0.46688696  0.73881410  0.22702143  1  0.643964  0  0.308776  0.40396  0  0.922001  0
H  H38  1  0.46688773  0.23880985  0.27297647  1  0.644031  0  0.308733  0.403964  0  0.922059  0
H  H39  1  0.53311180  0.26119059  0.77297647  1  0.64404  0  0.308724  0.403937  0  0.9221  0
C  C40  1  0.90426256  0.15073644  0.75107833  1  0.468983  0  0.120136  0.107112  0  3.973164  0
C  C41  1  0.09573578  0.34926305  0.25107903  1  0.468796  0  0.120174  0.107135  0  3.973247  0
C  C42  1  0.09573860  0.84926063  0.24892308  1  0.468834  0  0.120083  0.107049  0  3.973207  0
C  C43  1  0.90426482  0.65073879  0.74892237  1  0.468754  0  0.120156  0.10714  0  3.973133  0
C  C44  1  0.03952459  0.20342486  0.72007587  1  -0.030913  0  -0.076298  -0.131707  0  3.936421  0
C  C45  1  0.96047602  0.29657558  0.22007727  1  -0.030734  0  -0.076336  -0.131775  0  3.93653  0
C  C46  1  0.96048021  0.79657602  0.27992343  1  -0.03069  0  -0.076259  -0.131611  0  3.936418  0
C  C47  1  0.03952330  0.70342435  0.77992273  1  -0.030672  0  -0.076263  -0.131574  0  3.936318  0
C  C48  1  0.16329603  0.16604076  0.76300878  1  -0.044212  0  -0.055443  -0.038417  0  3.906576  0
C  C49  1  0.83670360  0.33396063  0.26300878  1  -0.044339  0  -0.05544  -0.038373  0  3.906578  0
C  C50  1  0.83670426  0.83395822  0.23699122  1  -0.044295  0  -0.05545  -0.038539  0  3.906632  0
C  C51  1  0.16329915  0.66604120  0.73699052  1  -0.044326  0  -0.055508  -0.038663  0  3.906667  0
C  C52  1  0.14737205  0.08258751  0.83958553  1  0.025402  0  -0.003496  -0.071237  0  3.919549  0
C  C53  1  0.85262876  0.41741484  0.33958553  1  0.025249  0  -0.00349  -0.071258  0  3.919609  0
C  C54  1  0.85263071  0.91741432  0.16041377  1  0.025243  0  -0.003438  -0.071161  0  3.919509  0
C  C55  1  0.14736830  0.58258414  0.66041377  1  0.025264  0  -0.003445  -0.071168  0  3.919454  0
C  C56  1  0.00783092  0.03233631  0.86464629  1  0.507344  0  0.065134  0.096524  0  3.927548  0
C  C57  1  0.99216978  0.46766508  0.36464629  1  0.50751  0  0.065144  0.096532  0  3.927585  0
C  C58  1  0.99217172  0.96766457  0.13535441  1  0.507514  0  0.065123  0.096525  0  3.927611  0
C  C59  1  0.00782836  0.53233390  0.63535371  1  0.507481  0  0.065126  0.09653  0  3.92768  0
C  C60  1  0.76460103  0.19163780  0.71240885  1  1.621239  0  0.232748  0.59192  0  4.206809  0
C  C61  1  0.23539732  0.30836169  0.21240955  1  1.621228  0  0.232809  0.59203  0  4.206733  0
C  C62  1  0.23540182  0.80836498  0.28759045  1  1.621371  0  0.232821  0.592079  0  4.20665  0
C  C63  1  0.76459739  0.69163539  0.78759115  1  1.621426  0  0.232797  0.591975  0  4.206704  0
C  C64  1  0.27502051  0.05233698  0.89771409  1  1.613138  0  0.235562  0.643381  0  4.187998  0
C  C65  1  0.72497794  0.44766346  0.39771268  1  1.612582  0  0.235575  0.643401  0  4.187889  0
C  C66  1  0.72497236  0.94766295  0.10229364  1  1.612342  0  0.235619  0.643408  0  4.18782  0
C  C67  1  0.27502676  0.55233647  0.60229083  1  1.612599  0  0.235634  0.643444  0  4.187908  0
C  C68  1  0.38522185  0.76374731  0.00728346  1  1.617797  0  0.23405  0.658145  0  4.174568  0
C  C69  1  0.61477639  0.73625401  0.50728065  1  1.617751  0  0.234063  0.658225  0  4.174502  0
C  C70  1  0.61476881  0.23626214  0.99272357  1  1.618027  0  0.233944  0.658026  0  4.17484  0
C  C71  1  0.38522867  0.26373925  0.49272146  1  1.618029  0  0.23399  0.65806  0  4.174808  0
C  C72  1  0.32851315  0.62867520  0.98716895  1  -0.003297  0  -0.011162  -0.087043  0  3.947212  0
C  C73  1  0.67148694  0.87132327  0.48716965  1  -0.003261  0  -0.011178  -0.087113  0  3.9472  0
C  C74  1  0.67148648  0.37132759  0.01282894  1  -0.003607  0  -0.011125  -0.086921  0  3.947373  0
C  C75  1  0.32851197  0.12867285  0.51282824  1  -0.003269  0  -0.011165  -0.086887  0  3.947163  0
C  C76  1  0.21338442  0.56951228  0.03916544  1  -0.047053  0  -0.057128  -0.037621  0  3.929047  0
C  C77  1  0.78661361  0.93048714  0.53916403  1  -0.047064  0  -0.057121  -0.0376  0  3.929093  0
C  C78  1  0.78661305  0.43049051  0.96083667  1  -0.047084  0  -0.057147  -0.037714  0  3.92922  0
C  C79  1  0.21338443  0.06951088  0.46083456  1  -0.047114  0  -0.05714  -0.037688  0  3.929115  0
C  C80  1  0.16456935  0.44388905  0.01871163  1  -0.027035  0  -0.087451  -0.133424  0  4.006488  0
C  C81  1  0.83543007  0.05611044  0.51871092  1  -0.027094  0  -0.087447  -0.133437  0  4.006521  0
C  C82  1  0.83543125  0.55611278  0.98128837  1  -0.02756  0  -0.087442  -0.133388  0  4.006542  0
C  C83  1  0.16456914  0.94388854  0.48128767  1  -0.027576  0  -0.087505  -0.133515  0  4.006603  0
C  C84  1  0.23487633  0.38048694  0.94917246  1  0.445213  0  0.052142  0.101204  0  3.942607  0
C  C85  1  0.76512319  0.11951350  0.44917176  1  0.445243  0  0.052119  0.101177  0  3.942782  0
C  C86  1  0.76512319  0.61951489  0.05082824  1  0.445737  0  0.052098  0.101147  0  3.942652  0
C  C87  1  0.23487602  0.88048548  0.55082684  1  0.445818  0  0.052152  0.101176  0  3.942613  0
C  C88  1  0.39032987  0.55869573  0.91696171  1  0.529698  0  0.058516  0.078009  0  3.895284  0
C  C89  1  0.60966729  0.94130560  0.41696031  1  0.529734  0  0.058553  0.077995  0  3.895102  0
C  C90  1  0.60966566  0.44130896  0.08303969  1  0.530034  0  0.058602  0.07805  0  3.895053  0
C  C91  1  0.39033290  0.05869243  0.58303829  1  0.529748  0  0.058596  0.078029  0  3.894964  0
N  N92  1  0.88933799  0.06271732  0.81993959  1  -1.232239  0  -0.362086  -0.338701  0  3.497159  0
N  N93  1  0.11066154  0.43728312  0.31994029  1  -1.232114  0  -0.362083  -0.33868  0  3.497195  0
N  N94  1  0.11066133  0.93728260  0.18005971  1  -1.232232  0  -0.362079  -0.33868  0  3.497106  0
N  N95  1  0.88933886  0.56271681  0.68005971  1  -1.232091  0  -0.36209  -0.338706  0  3.497165  0
N  N96  1  0.34552131  0.43634309  0.89875659  1  -1.236861  0  -0.300819  -0.231861  0  3.395608  0
N  N97  1  0.65447724  0.06365831  0.39875659  1  -1.236912  0  -0.300842  -0.23185  0  3.395664  0
N  N98  1  0.65447842  0.56366065  0.10124412  1  -1.236851  0  -0.300865  -0.231911  0  3.395609  0
N  N99  1  0.34552295  0.93633972  0.60124341  1  -1.236922  0  -0.30087  -0.231895  0  3.395532  0
O  O100  1  0.50565593  0.84736628  0.73864559  1  -1.31113  0  -0.65398  -0.869103  0  2.140241  0
O  O101  1  0.49434533  0.65263314  0.23864559  1  -1.311125  0  -0.653964  -0.86907  0  2.140232  0
O  O102  1  0.49434749  0.15263174  0.26135371  1  -1.31117  0  -0.653922  -0.869156  0  2.140195  0
O  O103  1  0.50565301  0.34736774  0.76135300  1  -1.311179  0  -0.653919  -0.869095  0  2.140244  0
O  O104  1  0.77174647  0.29325261  0.66450018  1  -1.203025  0  -0.377908  -0.647986  0  2.285598  0
O  O105  1  0.22825306  0.20674783  0.16450018  1  -1.203025  0  -0.377907  -0.648011  0  2.285593  0
O  O106  1  0.22825352  0.70674351  0.33550334  1  -1.203036  0  -0.377925  -0.648122  0  2.285363  0
O  O107  1  0.77174774  0.79325591  0.83550404  1  -1.203056  0  -0.377902  -0.648059  0  2.285359  0
O  O108  1  0.64943926  0.12223645  0.73329470  1  -1.182412  0  -0.356626  -0.624581  0  2.309904  0
O  O109  1  0.35055802  0.37776304  0.23329540  1  -1.182457  0  -0.356686  -0.624667  0  2.3099  0
O  O110  1  0.35055847  0.87775872  0.26670671  1  -1.182578  0  -0.356634  -0.624577  0  2.310082  0
O  O111  1  0.64944171  0.62224070  0.76670530  1  -1.182605  0  -0.356649  -0.624594  0  2.310128  0
O  O112  1  0.39441999  0.05025215  0.85523569  1  -1.186148  0  -0.387037  -0.641196  0  2.29024  0
O  O113  1  0.60558189  0.44975020  0.35523850  1  -1.185897  0  -0.38708  -0.641255  0  2.290483  0
O  O114  1  0.60558481  0.94974873  0.14476291  1  -1.18601  0  -0.387099  -0.641267  0  2.290773  0
O  O115  1  0.39441625  0.55024878  0.64476080  1  -1.185981  0  -0.387087  -0.641264  0  2.290773  0
O  O116  1  0.25125811  0.03481354  0.98485002  1  -1.186296  0  -0.379182  -0.664228  0  2.295129  0
O  O117  1  0.74874413  0.46518214  0.48485423  1  -1.185962  0  -0.379163  -0.664188  0  2.294773  0
O  O118  1  0.74874080  0.96518258  0.01514436  1  -1.185596  0  -0.379212  -0.664235  0  2.294393  0
O  O119  1  0.25125498  0.53481588  0.51514506  1  -1.185905  0  -0.379224  -0.664234  0  2.29452  0
O  O120  1  0.48036914  0.81718337  0.95259080  1  -1.218156  0  -0.408389  -0.704694  0  2.355859  0
O  O121  1  0.51963039  0.68281985  0.45259290  1  -1.218182  0  -0.408376  -0.704715  0  2.355925  0
O  O122  1  0.51963141  0.18282799  0.04740710  1  -1.218448  0  -0.408347  -0.704668  0  2.356198  0
O  O123  1  0.48037242  0.31717245  0.54740569  1  -1.21842  0  -0.408387  -0.704694  0  2.356031  0
O  O124  1  0.33314705  0.81499092  0.07852898  1  -1.187908  0  -0.387874  -0.660604  0  2.336764  0
O  O125  1  0.66686067  0.68500850  0.57852547  1  -1.18783  0  -0.387892  -0.660617  0  2.336608  0
O  O126  1  0.66685990  0.18500996  0.92147102  1  -1.187678  0  -0.387836  -0.660543  0  2.336292  0
O  O127  1  0.33313824  0.31498762  0.42147313  1  -1.187645  0  -0.38783  -0.660559  0  2.336516  0
