# generated using pymatgen
data_CdH10C14(N3O)4
_symmetry_space_group_name_H-M   'P 1'
_cell_length_a   8.33739496
_cell_length_b   8.33742721
_cell_length_c   15.45689050
_cell_angle_alpha   88.66820497
_cell_angle_beta   88.66863758
_cell_angle_gamma   69.49618292
_symmetry_Int_Tables_number   1
_chemical_formula_structural   CdH10C14(N3O)4
_chemical_formula_sum   'Cd2 H20 C28 N24 O8'
_cell_volume   1005.97597472
_cell_formula_units_Z   2
loop_
 _symmetry_equiv_pos_site_id
 _symmetry_equiv_pos_as_xyz
  1  'x, y, z'
loop_
 _atom_site_type_symbol
 _atom_site_label
 _atom_site_symmetry_multiplicity
 _atom_site_fract_x
 _atom_site_fract_y
 _atom_site_fract_z
 _atom_site_occupancy
 _atom_site_hle17_bader_spin_density
 _atom_site_hle17_ddec_charge
 _atom_site_hle17_ddec_spin_density
 _atom_site_hle17_ddec_sum_bond_order
 _atom_site_hle17_magmom
 _atom_site_hse06_10hf_bader_spin_density
 _atom_site_hse06_10hf_ddec_charge
 _atom_site_hse06_10hf_ddec_spin_density
 _atom_site_hse06_10hf_ddec_sum_bond_order
 _atom_site_hse06_10hf_magmom
 _atom_site_hse06_bader_spin_density
 _atom_site_hse06_ddec_charge
 _atom_site_hse06_ddec_spin_density
 _atom_site_hse06_ddec_sum_bond_order
 _atom_site_hse06_magmom
 _atom_site_pbe_bader_spin_density
 _atom_site_pbe_cm5_charge
 _atom_site_pbe_ddec_charge
 _atom_site_pbe_ddec_spin_density
 _atom_site_pbe_ddec_sum_bond_order
 _atom_site_pbe_magmom
Cd  Cd0  1  0.68818344  0.31181627  0.75000265  1  0  1.057787  0  1.704253  0  0  0.849899  0  2.146313  0  0  0.911731  0  2.095528  0  0  0.766595  0.806112  0  2.180611  0
Cd  Cd1  1  0.31181321  0.68818684  0.24999873  1  0  1.057789  0  1.704154  0  0  0.849905  0  2.146224  0  0  0.911738  0  2.095439  0  0  0.766583  0.806119  0  2.180519  0
H  H2  1  0.69389592  0.97641908  0.50976469  1  0  0.128654  0  0.924633  0  0  0.135764  0  0.99272  0  0  0.139225  0  0.989393  0  0  0.126423  0.133325  0  0.995114  0
H  H3  1  0.02360293  0.30608918  0.99023916  1  0  0.128632  0  0.924598  0  0  0.135676  0  0.992748  0  0  0.13914  0  0.989417  0  0  0.126413  0.133237  0  0.995141  0
H  H4  1  0.30611035  0.02359135  0.49023780  1  0  0.12864  0  0.924639  0  0  0.135789  0  0.99271  0  0  0.139241  0  0.989393  0  0  0.126433  0.13335  0  0.995105  0
H  H5  1  0.97641001  0.69389696  0.00976288  1  0  0.128617  0  0.924667  0  0  0.135718  0  0.992759  0  0  0.139179  0  0.989432  0  0  0.126434  0.133279  0  0.995154  0
H  H6  1  0.89941724  0.84627472  0.55003162  1  0  0.133502  0  0.926869  0  0  0.141915  0  0.990226  0  0  0.14481  0  0.987934  0  0  0.128418  0.139838  0  0.991932  0
H  H7  1  0.15374855  0.10056812  0.94996903  1  0  0.133353  0  0.927132  0  0  0.14179  0  0.990453  0  0  0.144682  0  0.988163  0  0  0.128344  0.13971  0  0.992161  0
H  H8  1  0.10058467  0.15372698  0.44996843  1  0  0.133503  0  0.92683  0  0  0.14194  0  0.990187  0  0  0.144834  0  0.987895  0  0  0.128422  0.139861  0  0.991896  0
H  H9  1  0.84626761  0.89942303  0.05002645  1  0  0.13339  0  0.927086  0  0  0.141858  0  0.990382  0  0  0.144751  0  0.988091  0  0  0.128412  0.139781  0  0.992085  0
H  H10  1  0.24647624  0.73854016  0.50480142  1  0  0.106306  0  0.961053  0  0  0.11051  0  1.028048  0  0  0.114551  0  1.025135  0  0  0.116035  0.107517  0  1.030335  0
H  H11  1  0.26146476  0.75351520  0.99519759  1  0  0.106313  0  0.961064  0  0  0.110481  0  1.028076  0  0  0.114523  0  1.02516  0  0  0.116037  0.107487  0  1.030362  0
H  H12  1  0.75351591  0.26146942  0.49520059  1  0  0.106301  0  0.961022  0  0  0.110467  0  1.02804  0  0  0.114508  0  1.025127  0  0  0.116019  0.107474  0  1.030327  0
H  H13  1  0.73853317  0.24648028  0.00480128  1  0  0.106288  0  0.961046  0  0  0.110469  0  1.028035  0  0  0.114511  0  1.02512  0  0  0.116026  0.107475  0  1.030322  0
H  H14  1  0.05164473  0.37209941  0.59738532  1  0  0.101457  0  0.932513  0  0  0.102956  0  1.002886  0  0  0.106758  0  0.999382  0  0  0.12176  0.100165  0  1.005541  0
H  H15  1  0.62791116  0.94834323  0.90261337  1  0  0.101477  0  0.93253  0  0  0.103026  0  1.002818  0  0  0.106827  0  0.999316  0  0  0.121804  0.100236  0  1.005474  0
H  H16  1  0.94835390  0.62790872  0.40261470  1  0  0.101465  0  0.932543  0  0  0.103002  0  1.00287  0  0  0.1068  0  0.999372  0  0  0.121784  0.100213  0  1.005527  0
H  H17  1  0.37208515  0.05165356  0.09738550  1  0  0.101455  0  0.932503  0  0  0.103004  0  1.002814  0  0  0.106807  0  0.999311  0  0  0.121796  0.100214  0  1.00547  0
H  H18  1  0.30939347  0.24472207  0.69338864  1  0  0.101544  0  0.933849  0  0  0.105258  0  0.999391  0  0  0.108755  0  0.996534  0  0  0.12383  0.102659  0  1.001667  0
H  H19  1  0.75528497  0.69059260  0.80661220  1  0  0.101498  0  0.93382  0  0  0.105212  0  0.999372  0  0  0.108708  0  0.996514  0  0  0.123807  0.102613  0  1.001648  0
H  H20  1  0.69060483  0.75527975  0.30660691  1  0  0.101471  0  0.933932  0  0  0.105208  0  0.999452  0  0  0.108706  0  0.996593  0  0  0.123822  0.102608  0  1.001726  0
H  H21  1  0.24471777  0.30940652  0.19338981  1  0  0.101512  0  0.933851  0  0  0.105236  0  0.999378  0  0  0.108733  0  0.99652  0  0  0.123812  0.102638  0  1.001653  0
C  C22  1  0.74013192  0.03747445  0.63993705  1  0  0.657887  0  3.921697  0  0  0.615238  0  4.216467  0  0  0.647864  0  4.212528  0  0  0.188878  0.593111  0  4.218126  0
C  C23  1  0.96252036  0.25985080  0.86007176  1  0  0.658033  0  3.921752  0  0  0.615414  0  4.216445  0  0  0.648038  0  4.212508  0  0  0.189  0.593286  0  4.218104  0
C  C24  1  0.25986471  0.96252865  0.36006693  1  0  0.657951  0  3.921957  0  0  0.615343  0  4.216693  0  0  0.647971  0  4.212751  0  0  0.188912  0.593214  0  4.218352  0
C  C25  1  0.03748002  0.74014079  0.13992971  1  0  0.657983  0  3.921773  0  0  0.615336  0  4.216521  0  0  0.647962  0  4.212584  0  0  0.188971  0.593209  0  4.218176  0
C  C26  1  0.76335828  0.90851638  0.56682278  1  0  -0.208738  0  3.585852  0  0  -0.264716  0  3.83709  0  0  -0.266485  0  3.84073  0  0  -0.042964  -0.263455  0  3.834728  0
C  C27  1  0.09149299  0.23662462  0.93318022  1  0  -0.208551  0  3.585843  0  0  -0.264508  0  3.837098  0  0  -0.266273  0  3.840727  0  0  -0.04287  -0.263247  0  3.834735  0
C  C28  1  0.23664560  0.09149032  0.43317913  1  0  -0.208648  0  3.585758  0  0  -0.264756  0  3.837117  0  0  -0.266517  0  3.840755  0  0  -0.042924  -0.263494  0  3.834757  0
C  C29  1  0.90851588  0.76336672  0.06681987  1  0  -0.208547  0  3.585835  0  0  -0.264591  0  3.837126  0  0  -0.266357  0  3.840758  0  0  -0.042942  -0.263332  0  3.834763  0
C  C30  1  0.53757092  0.63207001  0.60688278  1  0  0.235423  0  3.804602  0  0  0.209368  0  4.081594  0  0  0.217754  0  4.098654  0  0  0.226434  0.203722  0  4.070189  0
C  C31  1  0.36793652  0.46241809  0.89311641  1  0  0.235219  0  3.804804  0  0  0.209298  0  4.081736  0  0  0.217671  0  4.098821  0  0  0.226414  0.203649  0  4.070328  0
C  C32  1  0.46242812  0.36793684  0.39311789  1  0  0.235379  0  3.804688  0  0  0.209326  0  4.081783  0  0  0.217714  0  4.098844  0  0  0.226413  0.203676  0  4.070375  0
C  C33  1  0.63206589  0.53757473  0.10688114  1  0  0.235274  0  3.804732  0  0  0.209297  0  4.081718  0  0  0.217685  0  4.098779  0  0  0.226397  0.203647  0  4.070309  0
C  C34  1  0.40025916  0.56213294  0.60297655  1  0  0.110588  0  3.798321  0  0  0.114911  0  4.038868  0  0  0.116525  0  4.060332  0  0  0.121888  0.113585  0  4.024494  0
C  C35  1  0.43787559  0.59972681  0.89702186  1  0  0.110929  0  3.798166  0  0  0.114996  0  4.038952  0  0  0.116612  0  4.060423  0  0  0.122067  0.113674  0  4.024572  0
C  C36  1  0.59973584  0.43787530  0.39702220  1  0  0.110728  0  3.798215  0  0  0.11491  0  4.038929  0  0  0.116523  0  4.060394  0  0  0.121971  0.113587  0  4.024552  0
C  C37  1  0.56212518  0.40026731  0.10297699  1  0  0.110893  0  3.798313  0  0  0.115023  0  4.039031  0  0  0.116638  0  4.060498  0  0  0.121995  0.1137  0  4.024652  0
C  C38  1  0.25913189  0.63049786  0.54892266  1  0  0.044787  0  3.659491  0  0  0.014368  0  3.916544  0  0  0.015675  0  3.932522  0  0  0.051487  0.013468  0  3.905938  0
C  C39  1  0.36950683  0.74085517  0.95107405  1  0  0.04455  0  3.659543  0  0  0.014295  0  3.916582  0  0  0.015601  0  3.932559  0  0  0.05139  0.013394  0  3.905974  0
C  C40  1  0.74086026  0.36951172  0.45107741  1  0  0.044644  0  3.65948  0  0  0.014356  0  3.916463  0  0  0.015664  0  3.932437  0  0  0.051449  0.013455  0  3.905858  0
C  C41  1  0.63048949  0.25914163  0.04892352  1  0  0.044546  0  3.659628  0  0  0.014282  0  3.916603  0  0  0.015587  0  3.93258  0  0  0.051383  0.013381  0  3.905997  0
C  C42  1  0.15291855  0.42639371  0.59858439  1  0  0.086187  0  3.664724  0  0  0.054377  0  3.940951  0  0  0.057331  0  3.955406  0  0  0.05954  0.052335  0  3.931344  0
C  C43  1  0.57361228  0.84707226  0.90141506  1  0  0.085958  0  3.664865  0  0  0.054123  0  3.941186  0  0  0.057077  0  3.955635  0  0  0.059418  0.052079  0  3.93158  0
C  C44  1  0.84708212  0.57361182  0.40141628  1  0  0.086081  0  3.664646  0  0  0.054203  0  3.940973  0  0  0.057158  0  3.955424  0  0  0.059471  0.052158  0  3.931367  0
C  C45  1  0.42638403  0.15292454  0.09858381  1  0  0.086084  0  3.664481  0  0  0.05419  0  3.940861  0  0  0.057141  0  3.955312  0  0  0.059454  0.052146  0  3.931254  0
C  C46  1  0.29486901  0.35606370  0.65175385  1  0  0.101268  0  3.649876  0  0  0.07288  0  3.906455  0  0  0.075842  0  3.923441  0  0  0.059175  0.070729  0  3.895132  0
C  C47  1  0.64394316  0.70512002  0.84824734  1  0  0.101467  0  3.649869  0  0  0.073084  0  3.906461  0  0  0.076051  0  3.923443  0  0  0.059238  0.070932  0  3.895138  0
C  C48  1  0.70513413  0.64393797  0.34824230  1  0  0.101382  0  3.64993  0  0  0.073  0  3.906505  0  0  0.075964  0  3.92349  0  0  0.059198  0.070851  0  3.895178  0
C  C49  1  0.35605840  0.29487533  0.15175472  1  0  0.101397  0  3.649742  0  0  0.073043  0  3.906336  0  0  0.076008  0  3.923321  0  0  0.05922  0.070892  0  3.895011  0
N  N50  1  0.69570080  0.77511550  0.59063354  1  0  0.258911  0  3.541826  0  0  0.3032  0  3.829352  0  0  0.300447  0  3.849722  0  0  0.007053  0.304719  0  3.815859  0
N  N51  1  0.22488680  0.30428946  0.90936442  1  0  0.258882  0  3.541773  0  0  0.303157  0  3.829307  0  0  0.300402  0  3.849675  0  0  0.00705  0.304675  0  3.815814  0
N  N52  1  0.30429949  0.22488752  0.40936457  1  0  0.258916  0  3.541874  0  0  0.303243  0  3.829386  0  0  0.300491  0  3.849753  0  0  0.00708  0.304761  0  3.815891  0
N  N53  1  0.77511599  0.69570588  0.09063245  1  0  0.258847  0  3.541629  0  0  0.303134  0  3.829169  0  0  0.30038  0  3.849536  0  0  0.006991  0.304653  0  3.815674  0
N  N54  1  0.77741378  0.64913831  0.64529240  1  0  -0.04108  0  2.815649  0  0  -0.044402  0  3.098297  0  0  -0.038529  0  3.107066  0  0  -0.041713  -0.04812  0  3.092504  0
N  N55  1  0.35086201  0.22258265  0.85470400  1  0  -0.041132  0  2.815495  0  0  -0.044454  0  3.098173  0  0  -0.038581  0  3.106941  0  0  -0.041751  -0.048173  0  3.09238  0
N  N56  1  0.22258526  0.35086854  0.35470762  1  0  -0.041112  0  2.815596  0  0  -0.044417  0  3.098243  0  0  -0.038544  0  3.107013  0  0  -0.041717  -0.048135  0  3.092448  0
N  N57  1  0.64913754  0.77741533  0.14529094  1  0  -0.041029  0  2.815428  0  0  -0.044372  0  3.098118  0  0  -0.038499  0  3.106888  0  0  -0.041682  -0.04809  0  3.092322  0
N  N58  1  0.67847445  0.55708624  0.65561639  1  0  -0.264934  0  3.115391  0  0  -0.218694  0  3.405925  0  0  -0.233479  0  3.419832  0  0  -0.188333  -0.208625  0  3.396379  0
N  N59  1  0.44291696  0.32151922  0.84438259  1  0  -0.264879  0  3.115189  0  0  -0.218661  0  3.405708  0  0  -0.233444  0  3.419619  0  0  -0.188393  -0.208589  0  3.39616  0
N  N60  1  0.32152458  0.44292060  0.34438558  1  0  -0.264946  0  3.115338  0  0  -0.218749  0  3.405959  0  0  -0.233534  0  3.419862  0  0  -0.188402  -0.208677  0  3.39641  0
N  N61  1  0.55708583  0.67847612  0.15561429  1  0  -0.264991  0  3.115347  0  0  -0.218762  0  3.405886  0  0  -0.233548  0  3.419793  0  0  -0.18841  -0.208691  0  3.396337  0
N  N62  1  0.54548232  0.77169727  0.56481080  1  0  -0.286396  0  2.78998  0  0  -0.275005  0  3.055749  0  0  -0.281679  0  3.068035  0  0  -0.183813  -0.270574  0  3.047736  0
N  N63  1  0.22830936  0.45450594  0.93518812  1  0  -0.286317  0  2.790093  0  0  -0.27494  0  3.05581  0  0  -0.28161  0  3.068105  0  0  -0.183771  -0.270507  0  3.047796  0
N  N64  1  0.45451714  0.22830830  0.43518858  1  0  -0.286366  0  2.790027  0  0  -0.274965  0  3.055801  0  0  -0.28164  0  3.068089  0  0  -0.183802  -0.270532  0  3.047788  0
N  N65  1  0.77169546  0.54548679  0.06481070  1  0  -0.286314  0  2.789995  0  0  -0.274919  0  3.055727  0  0  -0.281594  0  3.068019  0  0  -0.183749  -0.270486  0  3.047712  0
N  N66  1  0.13530481  0.56313374  0.54725787  1  0  -0.246289  0  3.080843  0  0  -0.217315  0  3.365941  0  0  -0.225394  0  3.381952  0  0  -0.293289  -0.21162  0  3.355085  0
N  N67  1  0.43687383  0.86467762  0.95274198  1  0  -0.246109  0  3.080861  0  0  -0.217179  0  3.365948  0  0  -0.225261  0  3.381971  0  0  -0.293248  -0.211482  0  3.355084  0
N  N68  1  0.86468533  0.43687464  0.45274352  1  0  -0.246215  0  3.080904  0  0  -0.21725  0  3.366004  0  0  -0.225328  0  3.382016  0  0  -0.293296  -0.211553  0  3.35514  0
N  N69  1  0.56312127  0.13531921  0.04725626  1  0  -0.246138  0  3.080882  0  0  -0.217197  0  3.365999  0  0  -0.225276  0  3.382016  0  0  -0.293233  -0.211501  0  3.355134  0
N  N70  1  0.41748588  0.42460755  0.65439976  1  0  -0.300024  0  3.173677  0  0  -0.246334  0  3.428174  0  0  -0.260506  0  3.448344  0  0  -0.29451  -0.236312  0  3.414311  0
N  N71  1  0.57540466  0.58250188  0.84560150  1  0  -0.300107  0  3.17363  0  0  -0.246363  0  3.42822  0  0  -0.260535  0  3.448389  0  0  -0.294533  -0.236341  0  3.414355  0
N  N72  1  0.58251642  0.57539668  0.34559831  1  0  -0.300044  0  3.173747  0  0  -0.246321  0  3.428293  0  0  -0.260494  0  3.448465  0  0  -0.294515  -0.2363  0  3.414425  0
N  N73  1  0.42459812  0.41749346  0.15439796  1  0  -0.300137  0  3.173767  0  0  -0.24642  0  3.428331  0  0  -0.260593  0  3.448502  0  0  -0.294511  -0.236398  0  3.414465  0
O  O74  1  0.85258664  0.18745235  0.87490267  1  0  -0.63171  0  1.929811  0  0  -0.570658  0  2.156568  0  0  -0.599999  0  2.147653  0  0  -0.3391  -0.549852  0  2.161738  0
O  O75  1  0.81251355  0.14742679  0.62510474  1  0  -0.631577  0  1.929802  0  0  -0.570538  0  2.156622  0  0  -0.599881  0  2.147709  0  0  -0.339012  -0.549729  0  2.161788  0
O  O76  1  0.14741777  0.81253784  0.12510136  1  0  -0.63164  0  1.92971  0  0  -0.570593  0  2.156499  0  0  -0.599936  0  2.147587  0  0  -0.339067  -0.549786  0  2.161663  0
O  O77  1  0.18749118  0.85257353  0.37490111  1  0  -0.631616  0  1.929931  0  0  -0.570569  0  2.15669  0  0  -0.599913  0  2.147777  0  0  -0.338994  -0.549761  0  2.161854  0
O  O78  1  0.96860480  0.34853924  0.79400817  1  0  -0.616378  0  1.917845  0  0  -0.568699  0  2.143006  0  0  -0.595457  0  2.136157  0  0  -0.330597  -0.5498  0  2.146896  0
O  O79  1  0.65146186  0.03137275  0.70600497  1  0  -0.616381  0  1.917675  0  0  -0.568716  0  2.142874  0  0  -0.595474  0  2.136033  0  0  -0.330586  -0.549817  0  2.146763  0
O  O80  1  0.03138010  0.65146675  0.20599460  1  0  -0.616386  0  1.917877  0  0  -0.568682  0  2.143019  0  0  -0.595441  0  2.136176  0  0  -0.330588  -0.549785  0  2.146905  0
O  O81  1  0.34853968  0.96862258  0.29400097  1  0  -0.616416  0  1.917883  0  0  -0.568736  0  2.143035  0  0  -0.595497  0  2.136194  0  0  -0.330628  -0.549838  0  2.146922  0
