# generated using pymatgen
data_Zn4H61C59NO27
_symmetry_space_group_name_H-M   'P 1'
_cell_length_a   16.90557780
_cell_length_b   17.08065280
_cell_length_c   17.02634313
_cell_angle_alpha   94.90673045
_cell_angle_beta   96.15219406
_cell_angle_gamma   91.11797990
_symmetry_Int_Tables_number   1
_chemical_formula_structural   Zn4H61C59NO27
_chemical_formula_sum   'Zn8 H122 C118 N2 O54'
_cell_volume   4868.22726902
_cell_formula_units_Z   2
loop_
 _symmetry_equiv_pos_site_id
 _symmetry_equiv_pos_as_xyz
  1  'x, y, z'
loop_
 _atom_site_type_symbol
 _atom_site_label
 _atom_site_symmetry_multiplicity
 _atom_site_fract_x
 _atom_site_fract_y
 _atom_site_fract_z
 _atom_site_occupancy
 _atom_site_pbe_bader_charge
 _atom_site_pbe_bader_spin_density
 _atom_site_pbe_cm5_charge
 _atom_site_pbe_ddec_charge
 _atom_site_pbe_ddec_spin_density
 _atom_site_pbe_ddec_sum_bond_order
 _atom_site_pbe_magmom
Zn  Zn0  1  0.33566481  0.23202280  0.21393851  1  1.310661  0  0.663676  0.955867  0  2.392454  0
Zn  Zn1  1  0.66433533  0.76797805  0.78605967  1  1.310667  0  0.66368  0.955903  0  2.392501  0
Zn  Zn2  1  0.19012884  0.34464767  0.22956453  1  1.355866  0  0.653262  0.974473  0  2.320598  0
Zn  Zn3  1  0.80986947  0.65535143  0.77043390  1  1.356017  0  0.65322  0.974394  0  2.320522  0
Zn  Zn4  1  0.35222868  0.36615601  0.35614409  1  1.305162  0  0.663371  0.947961  0  2.373924  0
Zn  Zn5  1  0.64776797  0.63384721  0.64385218  1  1.304922  0  0.663381  0.947895  0  2.374064  0
Zn  Zn6  1  0.23812168  0.22310074  0.36166718  1  1.309991  0  0.665831  0.957475  0  2.402724  0
Zn  Zn7  1  0.76187728  0.77690012  0.63833030  1  1.309915  0  0.665798  0.957364  0  2.403003  0
H  H8  1  0.58808214  0.32253506  0.43930003  1  0.106214  0  0.106733  0.125491  0  1.030776  0
H  H9  1  0.41191822  0.67747110  0.56070625  1  0.106452  0  0.106732  0.125426  0  1.030689  0
H  H10  1  0.57730807  0.20456422  0.20603160  1  0.09606  0  0.101989  0.119879  0  1.040406  0
H  H11  1  0.42269087  0.79543430  0.79397859  1  0.096015  0  0.102027  0.120013  0  1.040407  0
H  H12  1  0.42171771  0.59191203  0.31048916  1  0.091665  0  0.105505  0.123237  0  1.037444  0
H  H13  1  0.57827865  0.40808354  0.68949997  1  0.091671  0  0.105442  0.123142  0  1.037411  0
H  H14  1  0.16175556  0.38576304  0.99043295  1  0.088508  0  0.100045  0.117072  0  1.039922  0
H  H15  1  0.83824445  0.61423370  0.00956428  1  0.088461  0  0.100015  0.11709  0  1.039878  0
H  H16  1  0.39506467  0.29247824  0.99557468  1  0.075099  0  0.101605  0.117159  0  1.04023  0
H  H17  1  0.60493896  0.70751967  0.00442536  1  0.075152  0  0.101641  0.117201  0  1.0403  0
H  H18  1  0.97864800  0.39219219  0.33117422  1  0.036829  0  0.101636  0.110362  0  1.055015  0
H  H19  1  0.02134974  0.60780750  0.66882714  1  0.036842  0  0.101657  0.110428  0  1.054976  0
H  H20  1  0.03856166  0.45160806  0.82503010  1  0.051296  0  0.101976  0.104987  0  1.002853  0
H  H21  1  0.96143592  0.54838692  0.17496908  1  0.051293  0  0.101933  0.104945  0  1.002931  0
H  H22  1  0.09606161  0.47659526  0.91860568  1  0.040884  0  0.099822  0.098173  0  0.981264  0
H  H23  1  0.90393946  0.52339736  0.08139307  1  0.040795  0  0.099794  0.098131  0  0.981268  0
H  H24  1  0.05495493  0.37876986  0.89486394  1  0.030733  0  0.094893  0.088486  0  1.002643  0
H  H25  1  0.94504623  0.62122569  0.10513507  1  0.030849  0  0.094879  0.088507  0  1.002582  0
H  H26  1  0.80221954  0.49560673  0.27481898  1  0.106737  0  0.104797  0.114757  0  1.033623  0
H  H27  1  0.19777938  0.50439237  0.72518303  1  0.106721  0  0.10479  0.114754  0  1.033557  0
H  H28  1  0.88872999  0.44734961  0.24577195  1  0.057919  0  0.096204  0.094122  0  1.004177  0
H  H29  1  0.11127016  0.55265007  0.75423377  1  0.057811  0  0.096214  0.09416  0  1.004022  0
H  H30  1  0.88777109  0.49074202  0.34580938  1  0.039295  0  0.099992  0.101116  0  0.974002  0
H  H31  1  0.11222790  0.50925884  0.65419397  1  0.039361  0  0.100016  0.101163  0  0.974069  0
H  H32  1  0.17507770  0.58777989  0.22021359  1  0.075724  0  0.098137  0.106484  0  1.058124  0
H  H33  1  0.82491702  0.41221980  0.77977807  1  0.075914  0  0.098174  0.106528  0  1.058142  0
H  H34  1  0.05453985  0.75079504  0.16770992  1  0.053568  0  0.106829  0.110159  0  0.97794  0
H  H35  1  0.94545570  0.24920995  0.83229166  1  0.053711  0  0.106774  0.110081  0  0.977954  0
H  H36  1  0.07760091  0.67933912  0.23733784  1  0.047984  0  0.099824  0.098816  0  0.985112  0
H  H37  1  0.92239576  0.32066410  0.76266313  1  0.047973  0  0.099814  0.098866  0  0.985118  0
H  H38  1  0.09790236  0.65990739  0.13618001  1  0.037937  0  0.095548  0.08929  0  0.998341  0
H  H39  1  0.90208777  0.34009644  0.86381800  1  0.037877  0  0.095575  0.089325  0  0.998393  0
H  H40  1  0.55665706  0.75992500  0.35388764  1  0.071847  0  0.109342  0.122175  0  0.968656  0
H  H41  1  0.44333880  0.24007234  0.64611040  1  0.071924  0  0.109324  0.122153  0  0.968643  0
H  H42  1  0.53274813  0.66904557  0.29536649  1  0.075822  0  0.097122  0.099392  0  1.028073  0
H  H43  1  0.46724773  0.33095119  0.70463267  1  0.075783  0  0.097152  0.099472  0  1.028129  0
H  H44  1  0.49847038  0.68577770  0.39181475  1  0.054918  0  0.097502  0.098834  0  0.989275  0
H  H45  1  0.50152253  0.31422082  0.60818016  1  0.054898  0  0.097517  0.098854  0  0.989253  0
H  H46  1  0.76292238  0.37087823  0.57862286  1  0.0525  0  0.106783  0.117926  0  0.980089  0
H  H47  1  0.23708192  0.62912086  0.42138440  1  0.052634  0  0.106779  0.117928  0  0.980003  0
H  H48  1  0.67198161  0.31476424  0.55552115  1  0.042405  0  0.096586  0.097575  0  1.014004  0
H  H49  1  0.32802213  0.68523602  0.44448439  1  0.042397  0  0.096644  0.097669  0  1.014103  0
H  H50  1  0.68419098  0.40724186  0.51365756  1  0.02471  0  0.100831  0.104435  0  0.982731  0
H  H51  1  0.31581109  0.59276077  0.48635447  1  0.024708  0  0.100859  0.104494  0  0.982723  0
H  H52  1  0.84051260  0.00929755  0.39208237  1  0.059593  0  0.108695  0.112434  0  0.98195  0
H  H53  1  0.15949045  0.99070035  0.60791996  1  0.059593  0  0.108717  0.112453  0  0.98188  0
H  H54  1  0.92423951  0.06751952  0.44035536  1  0.067399  0  0.097748  0.092238  0  0.992555  0
H  H55  1  0.07576300  0.93248015  0.55964707  1  0.067492  0  0.097792  0.092277  0  0.992589  0
H  H56  1  0.91798787  0.03957458  0.33587241  1  0.057093  0  0.093715  0.086089  0  1.009615  0
H  H57  1  0.08201417  0.96042921  0.66412915  1  0.057305  0  0.093738  0.086089  0  1.009589  0
H  H58  1  0.41249449  0.58259108  0.78043447  1  0.07447  0  0.107564  0.117042  0  0.972216  0
H  H59  1  0.58750575  0.41741213  0.21956745  1  0.074564  0  0.107561  0.117114  0  0.972189  0
H  H60  1  0.35238607  0.56713504  0.68707348  1  0.068147  0  0.097114  0.100602  0  1.017312  0
H  H61  1  0.64761348  0.43286465  0.31293101  1  0.068091  0  0.097107  0.100663  0  1.017385  0
H  H62  1  0.44449588  0.51662214  0.70333541  1  0.062871  0  0.098755  0.101675  0  0.987826  0
H  H63  1  0.55550809  0.48338635  0.29666498  1  0.063649  0  0.098786  0.101793  0  0.98791  0
H  H64  1  0.40193458  0.82542286  0.02755530  1  0.059762  0  0.107625  0.109709  0  0.98989  0
H  H65  1  0.59806754  0.17456623  0.97243914  1  0.060023  0  0.10761  0.109704  0  0.989787  0
H  H66  1  0.43439010  0.91024541  0.09355975  1  0.057332  0  0.100684  0.098416  0  0.98422  0
H  H67  1  0.56561390  0.08974602  0.90643743  1  0.057083  0  0.100686  0.098464  0  0.9842  0
H  H68  1  0.33606394  0.90538291  0.04170419  1  0.042122  0  0.095533  0.088111  0  1.002696  0
H  H69  1  0.66393954  0.09461146  0.95828966  1  0.042511  0  0.095568  0.088159  0  1.002621  0
H  H70  1  0.51835904  0.26614081  0.83596276  1  0.070394  0  0.104669  0.115419  0  1.0218  0
H  H71  1  0.48163924  0.73385828  0.16403156  1  0.070517  0  0.104669  0.115374  0  1.02182  0
H  H72  1  0.46070821  0.22408059  0.90493631  1  0.037358  0  0.094682  0.088851  0  0.997968  0
H  H73  1  0.53929602  0.77591848  0.09505860  1  0.037266  0  0.094731  0.088928  0  0.998105  0
H  H74  1  0.50513193  0.32095569  0.92820949  1  0.050166  0  0.098631  0.097334  0  0.98072  0
H  H75  1  0.49487167  0.67904279  0.07178296  1  0.050027  0  0.098643  0.097366  0  0.980647  0
H  H76  1  0.74149099  0.15061890  0.09529376  1  0.02799  0  0.10139  0.100463  0  1.011714  0
H  H77  1  0.25850502  0.84938139  0.90471335  1  0.027779  0  0.101343  0.100428  0  1.011616  0
H  H78  1  0.66526170  0.21983308  0.11131834  1  0.051097  0  0.100267  0.097211  0  0.991055  0
H  H79  1  0.33473675  0.78016838  0.88869147  1  0.050809  0  0.100275  0.097268  0  0.991044  0
H  H80  1  0.65370987  0.12045925  0.13652692  1  0.053994  0  0.099425  0.097142  0  0.984291  0
H  H81  1  0.34628680  0.87954281  0.86348159  1  0.053862  0  0.099439  0.097123  0  0.984289  0
H  H82  1  0.99841527  0.14953861  0.37473779  1  0.095551  0  0.100576  0.116762  0  1.047902  0
H  H83  1  0.00158378  0.85046402  0.62526630  1  0.095557  0  0.100607  0.11683  0  1.048025  0
H  H84  1  0.35686433  0.45163487  0.60414327  1  0.087804  0  0.105816  0.122717  0  1.029884  0
H  H85  1  0.64314295  0.54836537  0.39585792  1  0.087827  0  0.105771  0.122733  0  1.030068  0
H  H86  1  0.22528277  0.23262746  0.58474754  1  0.079212  0  0.103067  0.120473  0  1.040729  0
H  H87  1  0.77473093  0.76736923  0.41525224  1  0.078623  0  0.103093  0.120525  0  1.040714  0
H  H88  1  0.14247310  0.13704939  0.73931963  1  0.049375  0  0.104551  0.105576  0  0.980968  0
H  H89  1  0.85753372  0.86295438  0.26068534  1  0.049954  0  0.104512  0.105467  0  0.98091  0
H  H90  1  0.21585578  0.13624396  0.67051869  1  0.017968  0  0.098311  0.093935  0  0.992059  0
H  H91  1  0.78414660  0.86375219  0.32948225  1  0.018032  0  0.098325  0.093909  0  0.992085  0
H  H92  1  0.12416664  0.18585323  0.65010140  1  0.05768  0  0.098798  0.095732  0  0.987091  0
H  H93  1  0.87583963  0.81415173  0.34990420  1  0.057545  0  0.098831  0.095738  0  0.987164  0
H  H94  1  0.25871230  0.98903858  0.38085595  1  0.123922  0  0.104049  0.121671  0  1.038134  0
H  H95  1  0.74129328  0.01096578  0.61913720  1  0.123732  0  0.104001  0.121674  0  1.038197  0
H  H96  1  0.34350814  0.99048567  0.15296986  1  0.09557  0  0.10055  0.117405  0  1.040975  0
H  H97  1  0.65648937  0.00950930  0.84701757  1  0.09579  0  0.100535  0.117491  0  1.040905  0
H  H98  1  0.22322747  0.82073863  0.48949044  1  0.092393  0  0.106047  0.117263  0  1.020218  0
H  H99  1  0.77677522  0.17926692  0.51050956  1  0.092394  0  0.106147  0.117388  0  1.020106  0
H  H100  1  0.18303380  0.90144649  0.43859233  1  0.018431  0  0.093173  0.086812  0  0.996009  0
H  H101  1  0.81697014  0.09856199  0.56140335  1  0.018834  0  0.093183  0.08685  0  0.996011  0
H  H102  1  0.28424862  0.90677790  0.48399610  1  0.052833  0  0.100667  0.101432  0  0.977752  0
H  H103  1  0.71575767  0.09322939  0.51599972  1  0.053136  0  0.10071  0.101532  0  0.977869  0
H  H104  1  0.06769321  0.40223361  0.25761323  1  0.633458  0  0.28828  0.37142  0  0.970365  0
H  H105  1  0.93230613  0.59776020  0.74238897  1  0.633603  0  0.288339  0.371478  0  0.970288  0
H  H106  1  0.11474588  0.46148627  0.21520142  1  0.606578  0  0.301603  0.392788  0  0.923632  0
H  H107  1  0.88524649  0.53851285  0.78479877  1  0.606595  0  0.301563  0.392751  0  0.923693  0
H  H108  1  0.01328681  0.27027471  0.16683434  1  0.075886  0  0.126682  0.056732  0  0.978979  0
H  H109  1  0.98670610  0.72972090  0.83317559  1  0.075958  0  0.1267  0.056827  0  0.978841  0
H  H110  1  0.05280733  0.04068872  0.09506063  1  0.015976  0  0.101734  0.066116  0  0.994669  0
H  H111  1  0.94719093  0.95930861  0.90493999  1  0.015935  0  0.101738  0.066142  0  0.994752  0
H  H112  1  0.13522900  0.10230682  0.13703395  1  0.121953  0  0.117  0.102304  0  0.972342  0
H  H113  1  0.86476527  0.89769640  0.86296442  1  0.121889  0  0.117023  0.102391  0  0.972247  0
H  H114  1  0.90895013  0.19008908  0.15162053  1  0.089419  0  0.115381  0.091277  0  0.972412  0
H  H115  1  0.09104448  0.80990592  0.84837894  1  0.089442  0  0.1154  0.091199  0  0.972372  0
H  H116  1  0.91941825  0.08853196  0.15812746  1  0.042998  0  0.110043  0.085492  0  0.964317  0
H  H117  1  0.08057394  0.91146187  0.84186991  1  0.043129  0  0.110078  0.08551  0  0.964373  0
H  H118  1  0.11673945  0.99140048  0.22112676  1  0.055218  0  0.094352  0.134715  0  0.996514  0
H  H119  1  0.88326495  0.00860213  0.77887729  1  0.055205  0  0.094344  0.134645  0  0.996643  0
H  H120  1  0.01801520  0.02038496  0.23342667  1  -0.005498  0  0.081051  0.099044  0  1.034258  0
H  H121  1  0.98198804  0.97961824  0.76657965  1  -0.005615  0  0.081031  0.098979  0  1.034333  0
H  H122  1  0.10061948  0.08308159  0.27401672  1  0.085398  0  0.094278  0.139099  0  1.011803  0
H  H123  1  0.89938439  0.91692395  0.72598164  1  0.085535  0  0.094306  0.139091  0  1.011813  0
H  H124  1  0.84958127  0.11002914  0.02552539  1  0.007729  0  0.094247  0.127081  0  1.005169  0
H  H125  1  0.15041411  0.88997173  0.97447114  1  0.00781  0  0.094201  0.12702  0  1.005262  0
H  H126  1  0.94447784  0.07243778  0.01174953  1  0.016614  0  0.08691  0.109198  0  1.028236  0
H  H127  1  0.05551756  0.92756368  0.98824704  1  0.016585  0  0.086936  0.109226  0  1.028132  0
H  H128  1  0.92785838  0.17449563  0.00655752  1  0.040477  0  0.094687  0.128392  0  0.992489  0
H  H129  1  0.07213884  0.82550641  0.99344281  1  0.040489  0  0.09466  0.128332  0  0.99253  0
C  C130  1  0.23535219  0.70240595  0.23009269  1  0.43819  0  0.082847  0.223666  0  4.056106  0
C  C131  1  0.76464316  0.29759433  0.76990143  1  0.438214  0  0.08294  0.223971  0  4.056017  0
C  C132  1  0.61976269  0.29355211  0.39323499  1  -0.004242  0  -0.114882  -0.260369  0  4.006027  0
C  C133  1  0.38023539  0.70645699  0.60676955  1  -0.004659  0  -0.114798  -0.260101  0  4.005862  0
C  C134  1  0.33036660  0.87417173  0.19536333  1  0.523232  0  0.082724  0.221706  0  4.055871  0
C  C135  1  0.66963334  0.12582383  0.80462968  1  0.523237  0  0.082725  0.221625  0  4.055511  0
C  C136  1  0.48923263  0.27615019  0.30920875  1  1.564471  0  0.226478  0.607588  0  4.154181  0
C  C137  1  0.51076631  0.72384949  0.69079333  1  1.564512  0  0.226433  0.607468  0  4.154234  0
C  C138  1  0.29140532  0.49854129  0.28039071  1  1.532412  0  0.222668  0.610393  0  4.139164  0
C  C139  1  0.70859525  0.50145602  0.71959899  1  1.532319  0  0.222646  0.610514  0  4.138717  0
C  C140  1  0.31918388  0.41636256  0.71497040  1  0.471989  0  0.085607  0.215626  0  4.075845  0
C  C141  1  0.68082746  0.58363473  0.28502978  1  0.472298  0  0.08568  0.215893  0  4.075738  0
C  C142  1  0.86663571  0.32874508  0.33287857  1  0.476791  0  0.086767  0.227914  0  4.059448  0
C  C143  1  0.13336561  0.67125401  0.66712604  1  0.476908  0  0.086628  0.227741  0  4.059458  0
C  C144  1  0.61392703  0.22657760  0.26005668  1  -0.017059  0  -0.119107  -0.268771  0  4.015442  0
C  C145  1  0.38607140  0.77342386  0.73995078  1  -0.017386  0  -0.119118  -0.269016  0  4.015899  0
C  C146  1  0.21290708  0.38030815  0.87761917  1  0.468493  0  0.083188  0.222972  0  4.055849  0
C  C147  1  0.78709469  0.61968799  0.12237819  1  0.468385  0  0.083121  0.222959  0  4.056112  0
C  C148  1  0.74182254  0.25225503  0.33939183  1  0.14613  0  -0.019855  -0.10643  0  3.991397  0
C  C149  1  0.25817663  0.74775054  0.66061605  1  0.146545  0  -0.019857  -0.106399  0  3.991571  0
C  C150  1  0.29814139  0.58323185  0.26585568  1  0.02025  0  -0.022137  0.003356  0  4.038913  0
C  C151  1  0.70185508  0.41676607  0.73413953  1  0.020068  0  -0.022229  0.003064  0  4.039078  0
C  C152  1  0.57659623  0.26386901  0.32192235  1  -0.012493  0  -0.022071  0.005646  0  4.039664  0
C  C153  1  0.42340166  0.73613422  0.67808403  1  -0.01236  0  -0.022164  0.005508  0  4.040072  0
C  C154  1  0.37083307  0.62400513  0.28717775  1  -0.021895  0  -0.112681  -0.257811  0  3.998476  0
C  C155  1  0.62916811  0.37599160  0.71281607  1  -0.022019  0  -0.112606  -0.257613  0  3.998449  0
C  C156  1  0.27808468  0.33785982  0.99878192  1  -0.033788  0  -0.025264  0.007285  0  4.050276  0
C  C157  1  0.72191898  0.66213926  0.00121705  1  -0.033724  0  -0.025257  0.007096  0  4.050507  0
C  C158  1  0.34635816  0.33025300  0.88163303  1  0.48361  0  0.083817  0.22535  0  4.047779  0
C  C159  1  0.65364380  0.66974844  0.11836656  1  0.483306  0  0.083769  0.22532  0  4.047994  0
C  C160  1  0.30714210  0.74523869  0.25339750  1  0.07295  0  -0.019396  -0.101405  0  3.984111  0
C  C161  1  0.69285373  0.25475806  0.74659696  1  0.07296  0  -0.019542  -0.101791  0  3.984464  0
C  C162  1  0.21231914  0.37070548  0.95825251  1  -0.032806  0  -0.12177  -0.267734  0  4.019505  0
C  C163  1  0.78768382  0.62929066  0.04174438  1  -0.032918  0  -0.121637  -0.267573  0  4.01973  0
C  C164  1  0.34560443  0.31817169  0.96162221  1  0.036146  0  -0.118232  -0.261274  0  4.019749  0
C  C165  1  0.65439740  0.68182622  0.03837530  1  0.036079  0  -0.118276  -0.261234  0  4.019909  0
C  C166  1  0.82959786  0.25665757  0.34470997  1  0.052897  0  -0.018572  -0.097427  0  3.988051  0
C  C167  1  0.17040477  0.74334505  0.65529683  1  0.052488  0  -0.018509  -0.097266  0  3.987625  0
C  C168  1  0.87715758  0.19197784  0.35994886  1  0.410529  0  0.083108  0.219112  0  4.058062  0
C  C169  1  0.12284383  0.80802419  0.64005601  1  0.410297  0  0.083069  0.219027  0  4.058186  0
C  C170  1  0.30748834  0.83207698  0.25697128  1  0.044104  0  -0.018204  -0.096857  0  3.984  0
C  C171  1  0.69251000  0.16792329  0.74302667  1  0.043875  0  -0.018173  -0.096644  0  3.983839  0
C  C172  1  0.94943971  0.33627733  0.33765022  1  -0.012681  0  -0.119273  -0.265846  0  4.026793  0
C  C173  1  0.05055995  0.66372530  0.66235569  1  -0.012607  0  -0.119239  -0.265948  0  4.026713  0
C  C174  1  0.27424131  0.32026031  0.08259374  1  1.541266  0  0.223534  0.612551  0  4.146658  0
C  C175  1  0.72575758  0.67973878  0.91740299  1  1.541742  0  0.223559  0.612595  0  4.146715  0
C  C176  1  0.27943542  0.35970781  0.83818477  1  0.079816  0  -0.02179  -0.103066  0  3.980967  0
C  C177  1  0.72056772  0.64029362  0.16181435  1  0.080337  0  -0.021824  -0.103155  0  3.981097  0
C  C178  1  0.08138338  0.42966563  0.87037306  1  0.429535  0  -0.135683  -0.165616  0  3.932758  0
C  C179  1  0.91861539  0.57032877  0.12962972  1  0.429462  0  -0.13573  -0.165704  0  3.932967  0
C  C180  1  0.27856178  0.35871831  0.75106966  1  0.046075  0  -0.018325  -0.104015  0  3.981486  0
C  C181  1  0.72144429  0.64128135  0.24893078  1  0.045476  0  -0.018286  -0.104096  0  3.981379  0
C  C182  1  0.85168739  0.45936223  0.29458061  1  0.368756  0  -0.139289  -0.167  0  3.89302  0
C  C183  1  0.14831221  0.54063922  0.70542344  1  0.369012  0  -0.139328  -0.167099  0  3.89294  0
C  C184  1  0.69670066  0.22179103  0.26894980  1  0.459496  0  0.083926  0.228309  0  4.048866  0
C  C185  1  0.30329668  0.77821337  0.73105721  1  0.459849  0  0.083934  0.22854  0  4.048898  0
C  C186  1  0.37504204  0.70513370  0.28117153  1  0.519983  0  0.087789  0.223339  0  4.059808  0
C  C187  1  0.62495387  0.29486482  0.71882603  1  0.519976  0  0.08789  0.223542  0  4.059941  0
C  C188  1  0.23043677  0.62151928  0.23606334  1  -0.002163  0  -0.121261  -0.267565  0  4.031338  0
C  C189  1  0.76956031  0.37847923  0.76393315  1  -0.002046  0  -0.121261  -0.267564  0  4.031422  0
C  C190  1  0.09672949  0.70597347  0.18549674  1  0.405588  0  -0.136336  -0.172254  0  3.956846  0
C  C191  1  0.90326538  0.29402975  0.81450111  1  0.405596  0  -0.136351  -0.172314  0  3.957186  0
C  C192  1  0.70244973  0.28704487  0.40187680  1  0.415801  0  0.088225  0.223477  0  4.064089  0
C  C193  1  0.29754899  0.71296540  0.59812967  1  0.415834  0  0.088278  0.223393  0  4.064161  0
C  C194  1  0.51103607  0.71323753  0.33810172  1  0.366208  0  -0.137896  -0.174584  0  3.906079  0
C  C195  1  0.48895988  0.28676217  0.66189652  1  0.366069  0  -0.137941  -0.174699  0  3.906252  0
C  C196  1  0.71424095  0.35414691  0.53217901  1  0.452096  0  -0.136652  -0.166114  0  3.896848  0
C  C197  1  0.28576173  0.64585689  0.46782966  1  0.451798  0  -0.136754  -0.166306  0  3.897018  0
C  C198  1  0.88318539  0.05677286  0.38546310  1  0.368666  0  -0.132842  -0.164871  0  3.937984  0
C  C199  1  0.11681593  0.94322682  0.61453980  1  0.368432  0  -0.132891  -0.164902  0  3.938003  0
C  C200  1  0.39245320  0.53912146  0.73091899  1  0.360925  0  -0.137906  -0.169784  0  3.89982  0
C  C201  1  0.60754950  0.46088350  0.26908567  1  0.359048  0  -0.138052  -0.170214  0  3.9001  0
C  C202  1  0.38327706  0.87070721  0.07074191  1  0.395907  0  -0.135726  -0.171117  0  3.942823  0
C  C203  1  0.61672580  0.12928657  0.92925125  1  0.395264  0  -0.13573  -0.171226  0  3.942698  0
C  C204  1  0.47690353  0.27897059  0.88015686  1  0.404354  0  -0.137111  -0.167693  0  3.908338  0
C  C205  1  0.52309777  0.72102966  0.11983728  1  0.404815  0  -0.137171  -0.16774  0  3.908302  0
C  C206  1  0.69678397  0.16935297  0.13450907  1  0.41438  0  -0.136586  -0.171842  0  3.95544  0
C  C207  1  0.30321508  0.83064849  0.86550079  1  0.414911  0  -0.136533  -0.171799  0  3.955117  0
C  C208  1  0.99543436  0.27098289  0.35252460  1  0.046506  0  -0.031118  -0.004969  0  4.066257  0
C  C209  1  0.00456289  0.72901975  0.64747755  1  0.046098  0  -0.031121  -0.004816  0  4.066023  0
C  C210  1  0.08350038  0.27791913  0.35268651  1  1.529197  0  0.20891  0.585914  0  4.17778  0
C  C211  1  0.91649920  0.72208173  0.64731631  1  1.529226  0  0.208894  0.585959  0  4.17777  0
C  C212  1  0.96007184  0.19858824  0.36364868  1  -0.031041  0  -0.123261  -0.270956  0  4.02239  0
C  C213  1  0.03992721  0.80141497  0.63635312  1  -0.030244  0  -0.123364  -0.271209  0  4.022583  0
C  C214  1  0.32531986  0.40828931  0.63325343  1  0.025729  0  -0.111892  -0.25615  0  3.996165  0
C  C215  1  0.67469157  0.59171091  0.36674525  1  0.026198  0  -0.111878  -0.256356  0  3.996624  0
C  C216  1  0.29200003  0.34100865  0.58828366  1  -0.077128  0  -0.021266  0.005996  0  4.039977  0
C  C217  1  0.70801142  0.65899216  0.41171625  1  -0.076954  0  -0.021297  0.00614  0  4.039969  0
C  C218  1  0.30267903  0.32676204  0.50257584  1  1.567128  0  0.221411  0.601469  0  4.150289  0
C  C219  1  0.69732351  0.67323939  0.49742205  1  1.566138  0  0.221363  0.601321  0  4.150325  0
C  C220  1  0.24987606  0.28380070  0.62238817  1  0.069287  0  -0.12098  -0.268531  0  4.021099  0
C  C221  1  0.75013889  0.71619774  0.37761307  1  0.069956  0  -0.121078  -0.268689  0  4.021122  0
C  C222  1  0.24271086  0.29341364  0.70343968  1  0.419202  0  0.084807  0.225804  0  4.052784  0
C  C223  1  0.75730109  0.70658423  0.29656120  1  0.419977  0  0.08475  0.225781  0  4.052854  0
C  C224  1  0.16995002  0.17129082  0.69732077  1  0.423204  0  -0.135049  -0.168765  0  3.954589  0
C  C225  1  0.83005728  0.82870943  0.30268513  1  0.422598  0  -0.135104  -0.168643  0  3.954407  0
C  C226  1  0.28201202  0.87362681  0.32441751  1  0.469631  0  0.08864  0.229292  0  4.0529  0
C  C227  1  0.71798930  0.12637403  0.67557844  1  0.469266  0  0.088474  0.22908  0  4.05283  0
C  C228  1  0.27807179  0.95541805  0.32964624  1  -0.043868  0  -0.118489  -0.264735  0  4.016071  0
C  C229  1  0.72193075  0.04458455  0.67034528  1  -0.043679  0  -0.118421  -0.264739  0  4.016303  0
C  C230  1  0.32656729  0.95611759  0.19968903  1  -0.037543  0  -0.119825  -0.266594  0  4.016686  0
C  C231  1  0.67343325  0.04387796  0.80030286  1  -0.037588  0  -0.119783  -0.266582  0  4.016195  0
C  C232  1  0.29986817  0.99571226  0.26677582  1  -0.057819  0  -0.025406  0.000686  0  4.053047  0
C  C233  1  0.70013549  0.00428857  0.73321272  1  -0.057378  0  -0.025426  0.000539  0  4.052802  0
C  C234  1  0.29378424  0.08287010  0.27187566  1  1.534775  0  0.224251  0.603553  0  4.153774  0
C  C235  1  0.70620557  0.91712607  0.72810816  1  1.53352  0  0.22447  0.603964  0  4.153255  0
C  C236  1  0.23670106  0.86736956  0.45236448  1  0.402906  0  -0.138815  -0.168406  0  3.908605  0
C  C237  1  0.76330229  0.13263834  0.54763345  1  0.402149  0  -0.139003  -0.168726  0  3.908779  0
C  C238  1  0.05645589  0.22253867  0.16682156  1  1.389352  0  0.181892  0.317442  0  4.090278  0
C  C239  1  0.94353707  0.77745811  0.83319023  1  1.389843  0  0.181802  0.317269  0  4.090129  0
C  C240  1  0.07528635  0.08176812  0.14624327  1  0.267186  0  -0.056989  -0.003782  0  3.897773  0
C  C241  1  0.92471148  0.91823392  0.85375889  1  0.267207  0  -0.056988  -0.003923  0  3.897668  0
C  C242  1  0.93829384  0.13821742  0.12671734  1  0.322326  0  -0.052851  -0.017088  0  3.935267  0
C  C243  1  0.06169791  0.86178112  0.87328038  1  0.322565  0  -0.052909  -0.017001  0  3.935063  0
C  C244  1  0.07752471  0.04189944  0.22337522  1  -0.076693  0  -0.244173  -0.385386  0  3.931876  0
C  C245  1  0.92247737  0.95810552  0.77662644  1  -0.076692  0  -0.244163  -0.385208  0  3.931887  0
C  C246  1  0.91385219  0.12300461  0.03756108  1  -0.047358  0  -0.239163  -0.381237  0  3.956308  0
C  C247  1  0.08614613  0.87699507  0.96243682  1  -0.047661  0  -0.239117  -0.381152  0  3.956257  0
N  N248  1  0.02435341  0.15041607  0.14618822  1  -1.176951  0  -0.275433  -0.072494  0  3.648712  0
N  N249  1  0.97564010  0.84958128  0.85381252  1  -1.177413  0  -0.275499  -0.072513  0  3.648693  0
O  O250  1  0.27775267  0.29276774  0.28963919  1  -1.222548  0  -0.57275  -1.00888  0  2.528906  0
O  O251  1  0.72224388  0.70723254  0.71035799  1  -1.222479  0  -0.57276  -1.008847  0  2.528813  0
O  O252  1  0.35493398  0.46742095  0.31011443  1  -1.164923  0  -0.319325  -0.542628  0  2.307199  0
O  O253  1  0.64506480  0.53257579  0.68987680  1  -1.164919  0  -0.319262  -0.542597  0  2.307013  0
O  O254  1  0.32913031  0.38366045  0.46760520  1  -1.163916  0  -0.315657  -0.538471  0  2.291884  0
O  O255  1  0.67086577  0.61634336  0.53239164  1  -1.163853  0  -0.315586  -0.538367  0  2.291989  0
O  O256  1  0.22313754  0.35603733  0.12058556  1  -1.177918  0  -0.31798  -0.551093  0  2.34275  0
O  O257  1  0.77686133  0.64396059  0.87941400  1  -1.178398  0  -0.317966  -0.551054  0  2.342777  0
O  O258  1  0.27037795  0.11519165  0.33547234  1  -1.172358  0  -0.318069  -0.545889  0  2.348834  0
O  O259  1  0.72960289  0.88480396  0.66450759  1  -1.171904  0  -0.317938  -0.545806  0  2.348999  0
O  O260  1  0.22354405  0.46365984  0.26513435  1  -1.198017  0  -0.318729  -0.57945  0  2.340646  0
O  O261  1  0.77645725  0.53634042  0.73486037  1  -1.197895  0  -0.318766  -0.579507  0  2.340473  0
O  O262  1  0.46002091  0.32291867  0.36046808  1  -1.179149  0  -0.319692  -0.550055  0  2.328699  0
O  O263  1  0.53997565  0.67708044  0.63953605  1  -1.178855  0  -0.319614  -0.549887  0  2.328781  0
O  O264  1  0.75073758  0.31464201  0.46822041  1  -1.082411  0  -0.186212  -0.163204  0  2.582669  0
O  O265  1  0.24926162  0.68536532  0.53178351  1  -1.082281  0  -0.186281  -0.163254  0  2.582768  0
O  O266  1  0.40873856  0.31159799  0.83927158  1  -1.073542  0  -0.182893  -0.15564  0  2.582643  0
O  O267  1  0.59126210  0.68840109  0.16072357  1  -1.073803  0  -0.182844  -0.155619  0  2.582583  0
O  O268  1  0.32266558  0.26896104  0.10838008  1  -1.170249  0  -0.326384  -0.553418  0  2.327975  0
O  O269  1  0.67733333  0.73103806  0.89161900  1  -1.170274  0  -0.326406  -0.553407  0  2.327978  0
O  O270  1  0.28557669  0.25730642  0.47043182  1  -1.187364  0  -0.32565  -0.560594  0  2.346249  0
O  O271  1  0.71442589  0.74269618  0.52956558  1  -1.18737  0  -0.32566  -0.560553  0  2.34629  0
O  O272  1  0.12332087  0.21749733  0.37102146  1  -1.158658  0  -0.321134  -0.542007  0  2.31247  0
O  O273  1  0.87667880  0.78250531  0.62898799  1  -1.158759  0  -0.321084  -0.541989  0  2.312599  0
O  O274  1  0.45138307  0.24028562  0.24721005  1  -1.179316  0  -0.321043  -0.551578  0  2.338532  0
O  O275  1  0.54861754  0.75970995  0.75279595  1  -1.179356  0  -0.321031  -0.551567  0  2.338499  0
O  O276  1  0.31159127  0.11813161  0.21256853  1  -1.177173  0  -0.318819  -0.54851  0  2.321125  0
O  O277  1  0.68841001  0.88186864  0.78742326  1  -1.176806  0  -0.319108  -0.548879  0  2.320738  0
O  O278  1  0.44209439  0.75091757  0.30381440  1  -1.074186  0  -0.187304  -0.163247  0  2.569184  0
O  O279  1  0.55790268  0.24908035  0.69618146  1  -1.074169  0  -0.187276  -0.163246  0  2.569391  0
O  O280  1  0.11413784  0.34097622  0.33293210  1  -1.190659  0  -0.321703  -0.581568  0  2.275571  0
O  O281  1  0.88586048  0.65902288  0.66706869  1  -1.190709  0  -0.321731  -0.581628  0  2.275511  0
O  O282  1  0.17202806  0.74599426  0.20409807  1  -1.064592  0  -0.189981  -0.161956  0  2.57206  0
O  O283  1  0.82797087  0.25400601  0.79589817  1  -1.064537  0  -0.189949  -0.162035  0  2.57216  0
O  O284  1  0.81677173  0.38807195  0.31561125  1  -1.073014  0  -0.181558  -0.151754  0  2.576033  0
O  O285  1  0.18322843  0.61192833  0.68439393  1  -1.073268  0  -0.181497  -0.151675  0  2.576063  0
O  O286  1  0.83683069  0.12376255  0.37033526  1  -1.067564  0  -0.186372  -0.158803  0  2.573536  0
O  O287  1  0.16317193  0.87624007  0.62966919  1  -1.067657  0  -0.186387  -0.158758  0  2.573666  0
O  O288  1  0.35158660  0.47821803  0.76492394  1  -1.073056  0  -0.187519  -0.161783  0  2.571362  0
O  O289  1  0.64842184  0.52178162  0.23507615  1  -1.072183  0  -0.187432  -0.161683  0  2.571225  0
O  O290  1  0.35516849  0.82957850  0.13211855  1  -1.075264  0  -0.187364  -0.159688  0  2.573615  0
O  O291  1  0.64483090  0.17041765  0.86787798  1  -1.074962  0  -0.187361  -0.159603  0  2.573384  0
O  O292  1  0.12950973  0.23590221  0.18500293  1  -1.155769  0  -0.290551  -0.458397  0  2.402695  0
O  O293  1  0.87048142  0.76409458  0.81500574  1  -1.156104  0  -0.290434  -0.458298  0  2.402621  0
O  O294  1  0.73968424  0.19074713  0.21022939  1  -1.070562  0  -0.193883  -0.168177  0  2.571328  0
O  O295  1  0.26031288  0.80925023  0.78977993  1  -1.070643  0  -0.193893  -0.168284  0  2.571186  0
O  O296  1  0.14961921  0.40819932  0.83179717  1  -1.077706  0  -0.187757  -0.161698  0  2.577929  0
O  O297  1  0.85038016  0.59179566  0.16820279  1  -1.077651  0  -0.187648  -0.161599  0  2.578046  0
O  O298  1  0.20380378  0.24013130  0.74266562  1  -1.067464  0  -0.188583  -0.158904  0  2.574677  0
O  O299  1  0.79620938  0.75986716  0.25733602  1  -1.067528  0  -0.188435  -0.158795  0  2.574667  0
O  O300  1  0.26181988  0.82834904  0.38196049  1  -1.071597  0  -0.184329  -0.156474  0  2.576258  0
O  O301  1  0.73818101  0.17165651  0.61803816  1  -1.071291  0  -0.184203  -0.156305  0  2.576291  0
O  O302  1  0.07670493  0.41661381  0.20405578  1  -1.220036  0  -0.583985  -0.737923  0  1.976244  0
O  O303  1  0.92329092  0.58338236  0.79594509  1  -1.220191  0  -0.584  -0.737934  0  1.976295  0
