# generated using pymatgen
data_AlH7C13BrNO6
_symmetry_space_group_name_H-M   'P 1'
_cell_length_a   6.71555422
_cell_length_b   11.08141508
_cell_length_c   17.07140668
_cell_angle_alpha   84.58337745
_cell_angle_beta   81.38613482
_cell_angle_gamma   72.80038434
_symmetry_Int_Tables_number   1
_chemical_formula_structural   AlH7C13BrNO6
_chemical_formula_sum   'Al2 H14 C26 Br2 N2 O12'
_cell_volume   1198.22557101
_cell_formula_units_Z   2
loop_
 _symmetry_equiv_pos_site_id
 _symmetry_equiv_pos_as_xyz
  1  'x, y, z'
loop_
 _atom_site_type_symbol
 _atom_site_label
 _atom_site_symmetry_multiplicity
 _atom_site_fract_x
 _atom_site_fract_y
 _atom_site_fract_z
 _atom_site_occupancy
 _atom_site_pbe_bader_charge
 _atom_site_pbe_bader_spin_density
 _atom_site_pbe_cm5_charge
 _atom_site_pbe_ddec_charge
 _atom_site_pbe_ddec_spin_density
 _atom_site_pbe_ddec_sum_bond_order
 _atom_site_pbe_magmom
Al  Al0  1  0.49706522  0.50103902  0.49608997  1  2.505306  0  0.39669  1.643589  0  2.57712  0
Al  Al1  1  0.99651906  0.50094459  0.49635920  1  2.502549  0  0.400916  1.638258  0  2.574028  0
H  H2  1  0.18831693  0.65164787  0.45136351  1  0.61891  0  0.352317  0.427437  0  0.85699  0
H  H3  1  0.80624930  0.35235957  0.54531453  1  0.603517  0  0.339197  0.41225  0  0.894351  0
H  H4  1  0.83924141  0.49970668  0.73967353  1  0.134156  0  0.10205  0.113686  0  1.053009  0
H  H5  1  0.78388976  0.49836332  0.88743734  1  0.104999  0  0.102572  0.107394  0  1.039331  0
H  H6  1  0.42565311  0.49820672  0.88642066  1  0.074545  0  0.114954  0.138719  0  0.993448  0
H  H7  1  0.57037183  0.50651503  0.10612518  1  0.103054  0  0.114787  0.137053  0  0.997018  0
H  H8  1  0.22352624  0.47861880  0.10708024  1  0.092604  0  0.102923  0.106744  0  1.039738  0
H  H9  1  0.16510652  0.48102826  0.25472362  1  0.144837  0  0.105309  0.116267  0  1.045076  0
H  H10  1  0.87951505  0.76646019  0.60765329  1  0.126397  0  0.11223  0.135853  0  1.015903  0
H  H11  1  0.61907343  0.23509178  0.60497604  1  0.089206  0  0.110116  0.12214  0  1.034279  0
H  H12  1  0.18857581  0.11758628  0.44339045  1  0.109097  0  0.115833  0.123944  0  0.97421  0
H  H13  1  0.30622127  0.88135313  0.45008008  1  0.079248  0  0.11228  0.116387  0  0.985328  0
H  H14  1  0.51549990  0.49685388  0.67540556  1  0.659879  0  0.313787  0.357406  0  0.962806  0
H  H15  1  0.47685365  0.51115854  0.31690695  1  0.658355  0  0.315777  0.358822  0  0.963576  0
C  C16  1  0.62987521  0.72726519  0.50927383  1  1.596035  0  0.275727  0.659152  0  4.064356  0
C  C17  1  0.80685713  0.49933463  0.35143798  1  1.515232  0  0.262448  0.64937  0  4.078031  0
C  C18  1  0.35745052  0.27373220  0.49800672  1  1.567026  0  0.274971  0.658274  0  4.071214  0
C  C19  1  0.18906362  0.49955075  0.64198010  1  1.428199  0  0.25479  0.638841  0  4.098207  0
C  C20  1  0.16299229  0.49896512  0.72890418  1  0.017569  0  -0.043917  -0.215673  0  4.013951  0
C  C21  1  0.96682429  0.49907482  0.77219380  1  -0.035368  0  -0.08541  -0.051064  0  3.998895  0
C  C22  1  0.93480766  0.49835861  0.85388634  1  0.021659  0  -0.098715  -0.175507  0  3.969609  0
C  C23  1  0.10272314  0.49797101  0.89485332  1  0.307529  0  0.094644  0.202274  0  4.052536  0
C  C24  1  0.29833424  0.49846616  0.85359989  1  0.044886  0  -0.091011  -0.260388  0  3.885086  0
C  C25  1  0.33106213  0.49870915  0.77060490  1  0.52368  0  0.093371  0.323991  0  4.059611  0
C  C26  1  0.69963850  0.50074238  0.13934145  1  0.031843  0  -0.089164  -0.259917  0  3.887546  0
C  C27  1  0.89900099  0.49317223  0.09863427  1  0.381319  0  0.094013  0.200447  0  4.057146  0
C  C28  1  0.06957978  0.48514960  0.14016308  1  -0.057286  0  -0.097714  -0.176433  0  3.97548  0
C  C29  1  0.03601202  0.48617132  0.22180464  1  -0.023977  0  -0.081242  -0.049581  0  3.993902  0
C  C30  1  0.83574428  0.49527750  0.26458788  1  -0.005073  0  -0.036557  -0.202884  0  3.98016  0
C  C31  1  0.66524440  0.50244865  0.22229908  1  0.50909  0  0.096543  0.323781  0  4.055341  0
C  C32  1  0.55701484  0.86682226  0.51732717  1  -0.039552  0  -0.005685  -0.084201  0  3.93481  0
C  C33  1  0.66064571  0.93239599  0.55870265  1  0.060466  0  0.00301  0.071945  0  3.943721  0
C  C34  1  0.38493656  0.93352882  0.47968188  1  0.085212  0  -0.077819  -0.086395  0  3.992423  0
C  C35  1  0.82492113  0.86918867  0.60451160  1  0.01699  0  -0.091868  -0.171711  0  3.934185  0
C  C36  1  0.91653496  0.93538466  0.64582801  1  -0.035281  0  -0.019071  0.065409  0  3.986255  0
C  C37  1  0.42198229  0.13342250  0.51118624  1  -0.005385  0  -0.004877  -0.080612  0  3.933521  0
C  C38  1  0.31824748  0.06612934  0.47608565  1  -0.079414  0  -0.07582  -0.084784  0  3.983729  0
C  C39  1  0.58892847  0.06837391  0.55647082  1  -0.049265  0  0.003724  0.074114  0  3.948405  0
C  C40  1  0.68056065  0.13307123  0.60211572  1  0.070995  0  -0.096877  -0.181048  0  3.967531  0
C  C41  1  0.84230121  0.06939423  0.64506793  1  -0.171778  0  -0.020627  0.061779  0  3.99324  0
Br  Br42  1  0.13741446  0.84406886  0.70424091  1  -0.021399  0  0.052209  -0.022714  0  1.473689  0
Br  Br43  1  0.95679814  0.16556885  0.70240749  1  -0.014332  0  0.051489  -0.023295  0  1.454432  0
N  N44  1  0.08969788  0.49723178  0.97843638  1  -0.482648  0  -0.142344  -0.126393  0  3.250096  0
N  N45  1  0.91253497  0.49410821  0.01506761  1  -0.489917  0  -0.141745  -0.12569  0  3.254685  0
O  O46  1  0.48873898  0.67245589  0.50696907  1  -1.266987  0  -0.235058  -0.601504  0  2.356923  0
O  O47  1  0.96136427  0.49727031  0.38696088  1  -1.259905  0  -0.23405  -0.578413  0  2.331779  0
O  O48  1  0.16260363  0.32823476  0.49574997  1  -1.262684  0  -0.231001  -0.596064  0  2.355367  0
O  O49  1  0.37649401  0.49187406  0.60553239  1  -1.259383  0  -0.245448  -0.623524  0  2.418129  0
O  O50  1  0.50104917  0.32945834  0.48867963  1  -1.272078  0  -0.234024  -0.590036  0  2.352785  0
O  O51  1  0.03238854  0.50574262  0.60659266  1  -1.25155  0  -0.23666  -0.582676  0  2.352968  0
O  O52  1  0.82713902  0.67305608  0.50207214  1  -1.262209  0  -0.230846  -0.591028  0  2.354955  0
O  O53  1  0.61916229  0.50691196  0.38758721  1  -1.267651  0  -0.242255  -0.617481  0  2.393414  0
O  O54  1  0.23080864  0.56071945  0.46235079  1  -1.423694  0  -0.44688  -0.978251  0  2.161105  0
O  O55  1  0.76195641  0.44233704  0.53080347  1  -1.411707  0  -0.451092  -0.984151  0  2.185022  0
O  O56  1  0.52246240  0.49973561  0.73339741  1  -1.17242  0  -0.341402  -0.434382  0  2.330206  0
O  O57  1  0.46910081  0.51181631  0.25870962  1  -1.163449  0  -0.339497  -0.429529  0  2.308683  0
