# generated using pymatgen
data_Ag2H15C16(NO2)3
_symmetry_space_group_name_H-M   'P 1'
_cell_length_a   12.35341828
_cell_length_b   16.49971044
_cell_length_c   16.49973185
_cell_angle_alpha   120.00025997
_cell_angle_beta   89.99992449
_cell_angle_gamma   90.00000360
_symmetry_Int_Tables_number   1
_chemical_formula_structural   Ag2H15C16(NO2)3
_chemical_formula_sum   'Ag12 H90 C96 N18 O36'
_cell_volume   2912.52625933
_cell_formula_units_Z   6
loop_
 _symmetry_equiv_pos_site_id
 _symmetry_equiv_pos_as_xyz
  1  'x, y, z'
loop_
 _atom_site_type_symbol
 _atom_site_label
 _atom_site_symmetry_multiplicity
 _atom_site_fract_x
 _atom_site_fract_y
 _atom_site_fract_z
 _atom_site_occupancy
 _atom_site_pbe_bader_charge
 _atom_site_pbe_bader_spin_density
 _atom_site_pbe_cm5_charge
 _atom_site_pbe_ddec_charge
 _atom_site_pbe_ddec_spin_density
 _atom_site_pbe_ddec_sum_bond_order
 _atom_site_pbe_magmom
Ag  Ag0  1  0.58334110  0.69693329  0.34846657  1  0.553302  0  0.411858  0.348093  0  1.938712  0
Ag  Ag1  1  0.41667682  0.34847340  0.65153816  1  0.55103  0  0.411872  0.348126  0  1.938635  0
Ag  Ag2  1  0.25000668  0.65153608  0.30306462  1  0.55339  0  0.411849  0.348109  0  1.93861  0
Ag  Ag3  1  0.08333508  0.30306526  0.65153228  1  0.553293  0  0.411843  0.348066  0  1.938749  0
Ag  Ag4  1  0.91666989  0.65153368  0.34846971  1  0.551091  0  0.411855  0.3481  0  1.938653  0
Ag  Ag5  1  0.75000558  0.34846513  0.69693609  1  0.553299  0  0.411868  0.348094  0  1.938672  0
Ag  Ag6  1  0.58333356  0.21311567  0.60655852  1  0.63693  0  0.441293  0.45304  0  2.112969  0
Ag  Ag7  1  0.41666654  0.60655837  0.39344295  1  0.633547  0  0.441309  0.453133  0  2.112978  0
Ag  Ag8  1  0.24999653  0.39344257  0.78688187  1  0.636974  0  0.441344  0.453131  0  2.113028  0
Ag  Ag9  1  0.08333371  0.78688667  0.39344623  1  0.636853  0  0.441308  0.453096  0  2.113132  0
Ag  Ag10  1  0.91666479  0.39344559  0.60656319  1  0.633646  0  0.441335  0.453109  0  2.112902  0
Ag  Ag11  1  0.75000116  0.60655737  0.21311406  1  0.63689  0  0.441285  0.45309  0  2.113079  0
H  H12  1  0.66666850  0.49718725  0.49718799  1  0.106499  0  0.108499  0.116037  0  1.002816  0
H  H13  1  0.50000083  0.49717905  0.99998677  1  0.098749  0  0.10847  0.115959  0  1.002784  0
H  H14  1  0.33333563  0.00000690  0.50281231  1  0.098823  0  0.108459  0.115956  0  1.002792  0
H  H15  1  0.16666357  0.50280602  0.50281113  1  0.106401  0  0.10847  0.11597  0  1.002817  0
H  H16  1  0.99999531  0.50281363  0.00000383  1  0.098812  0  0.108506  0.116027  0  1.002791  0
H  H17  1  0.83332923  0.00001063  0.49719344  1  0.098855  0  0.10846  0.115954  0  1.002801  0
H  H18  1  0.64976318  0.19599380  0.34578274  1  0.110273  0  0.115006  0.124404  0  1.02858  0
H  H19  1  0.48307589  0.34579085  0.14979624  1  0.107501  0  0.114968  0.124287  0  1.028591  0
H  H20  1  0.31643560  0.14979179  0.80400511  1  0.109385  0  0.114974  0.124373  0  1.028705  0
H  H21  1  0.14975882  0.80400370  0.65420733  1  0.110376  0  0.115027  0.124338  0  1.028534  0
H  H22  1  0.98309964  0.65423282  0.85022885  1  0.107903  0  0.114967  0.124361  0  1.028679  0
H  H23  1  0.81642410  0.85020738  0.19599631  1  0.109826  0  0.115026  0.124358  0  1.028511  0
H  H24  1  0.35023856  0.85021402  0.65421482  1  0.107521  0  0.115022  0.124368  0  1.028515  0
H  H25  1  0.68356935  0.34578172  0.19599396  1  0.1102  0  0.115014  0.124431  0  1.028512  0
H  H26  1  0.01690454  0.80400572  0.14980407  1  0.109571  0  0.115011  0.124396  0  1.028777  0
H  H27  1  0.51688777  0.19598977  0.85021978  1  0.108907  0  0.114992  0.12438  0  1.02895  0
H  H28  1  0.85023724  0.14978414  0.34577786  1  0.10724  0  0.115033  0.124454  0  1.0287  0
H  H29  1  0.18356471  0.65422147  0.80400247  1  0.110262  0  0.115004  0.124373  0  1.028767  0
H  H30  1  0.43678565  0.05791018  0.38181329  1  0.018954  0  0.099963  0.14738  0  0.979024  0
H  H31  1  0.27012092  0.38181598  0.32390400  1  0.027649  0  0.099969  0.147412  0  0.978959  0
H  H32  1  0.10345071  0.32390354  0.94208678  1  0.018827  0  0.099937  0.147354  0  0.978989  0
H  H33  1  0.93678798  0.94208773  0.61818188  1  0.019005  0  0.099977  0.14741  0  0.978945  0
H  H34  1  0.77011745  0.61818229  0.67609235  1  0.027546  0  0.099958  0.147354  0  0.979003  0
H  H35  1  0.60345077  0.67609499  0.05791205  1  0.018826  0  0.099967  0.147422  0  0.978961  0
H  H36  1  0.56321445  0.67609366  0.61818133  1  0.027637  0  0.099949  0.147369  0  0.978972  0
H  H37  1  0.89654858  0.38181748  0.05791004  1  0.018967  0  0.099964  0.147382  0  0.978986  0
H  H38  1  0.22987945  0.94208838  0.32390463  1  0.018859  0  0.099974  0.147422  0  0.978955  0
H  H39  1  0.72988079  0.05790991  0.67609176  1  0.018841  0  0.099973  0.147344  0  0.978985  0
H  H40  1  0.06321457  0.32390454  0.38181790  1  0.027581  0  0.099955  0.147366  0  0.978984  0
H  H41  1  0.39654774  0.61818288  0.94208762  1  0.018972  0  0.09995  0.147387  0  0.978984  0
H  H42  1  0.55625467  0.02044192  0.31302837  1  0.047528  0  0.09968  0.148818  0  0.987698  0
H  H43  1  0.38958990  0.31302951  0.29258640  1  0.062017  0  0.099683  0.1488  0  0.987785  0
H  H44  1  0.22292045  0.29258591  0.97955464  1  0.053028  0  0.099664  0.148754  0  0.987769  0
H  H45  1  0.05625593  0.97955709  0.68696886  1  0.047512  0  0.099662  0.148769  0  0.987783  0
H  H46  1  0.88958396  0.68697242  0.70741213  1  0.061995  0  0.099628  0.148735  0  0.987782  0
H  H47  1  0.72292057  0.70741220  0.02044438  1  0.052668  0  0.099669  0.148778  0  0.987749  0
H  H48  1  0.44374624  0.70741156  0.68696739  1  0.062091  0  0.099648  0.148746  0  0.987777  0
H  H49  1  0.77707965  0.31303144  0.02044425  1  0.047605  0  0.099659  0.148767  0  0.987753  0
H  H50  1  0.11041052  0.97955584  0.29258660  1  0.052628  0  0.099662  0.148774  0  0.987826  0
H  H51  1  0.61041261  0.02044010  0.70740753  1  0.052678  0  0.099629  0.148703  0  0.987763  0
H  H52  1  0.94374662  0.29258798  0.31303221  1  0.062067  0  0.099649  0.14874  0  0.98777  0
H  H53  1  0.27707875  0.68696820  0.97955557  1  0.04754  0  0.099659  0.148767  0  0.987781  0
H  H54  1  0.55652576  0.12547323  0.42404033  1  0.120581  0  0.095279  0.153174  0  1.057326  0
H  H55  1  0.38986270  0.42404213  0.29856787  1  0.116077  0  0.095271  0.153148  0  1.057327  0
H  H56  1  0.22319172  0.29856721  0.87452414  1  0.077105  0  0.095261  0.15313  0  1.057335  0
H  H57  1  0.05652964  0.87452647  0.57595620  1  0.120555  0  0.095281  0.153141  0  1.057345  0
H  H58  1  0.88985918  0.57596092  0.70143317  1  0.116181  0  0.095284  0.153173  0  1.05723  0
H  H59  1  0.72319166  0.70143090  0.12547488  1  0.077074  0  0.095282  0.153169  0  1.057315  0
H  H60  1  0.44347435  0.70143018  0.57595496  1  0.115864  0  0.095275  0.153144  0  1.057304  0
H  H61  1  0.77680838  0.42404420  0.12547478  1  0.12056  0  0.095276  0.153172  0  1.057309  0
H  H62  1  0.11014014  0.87452446  0.29856850  1  0.077087  0  0.095279  0.153163  0  1.057292  0
H  H63  1  0.61013901  0.12547286  0.70142910  1  0.077161  0  0.095266  0.153102  0  1.057301  0
H  H64  1  0.94347453  0.29856815  0.42404343  1  0.116118  0  0.095265  0.153137  0  1.057315  0
H  H65  1  0.27680847  0.57595649  0.87452399  1  0.12052  0  0.09527  0.153146  0  1.057328  0
H  H66  1  0.59651408  0.85054973  0.23920047  1  0.052315  0  0.10257  0.153207  0  0.985678  0
H  H67  1  0.42984750  0.23920130  0.38864875  1  0.037422  0  0.102557  0.153194  0  0.985684  0
H  H68  1  0.26318210  0.38864926  0.14944444  1  0.051962  0  0.102588  0.153236  0  0.985627  0
H  H69  1  0.09651594  0.14944925  0.76079671  1  0.052389  0  0.102565  0.153225  0  0.985653  0
H  H70  1  0.92985063  0.76079687  0.61134739  1  0.037461  0  0.102556  0.153192  0  0.985653  0
H  H71  1  0.76318318  0.61134736  0.85055236  1  0.051993  0  0.102562  0.153197  0  0.985654  0
H  H72  1  0.40348039  0.61135053  0.76079627  1  0.037395  0  0.102594  0.153251  0  0.985548  0
H  H73  1  0.73681071  0.23920150  0.85055426  1  0.052253  0  0.102603  0.153272  0  0.985524  0
H  H74  1  0.07014786  0.14944157  0.38864441  1  0.051912  0  0.102619  0.153267  0  0.985562  0
H  H75  1  0.57014615  0.85055379  0.61134916  1  0.051888  0  0.102594  0.153252  0  0.985527  0
H  H76  1  0.90347848  0.38864738  0.23920383  1  0.037371  0  0.102605  0.15327  0  0.985528  0
H  H77  1  0.23681209  0.76079584  0.14944188  1  0.052299  0  0.102622  0.153275  0  0.98556  0
H  H78  1  0.45701420  0.87547401  0.26546285  1  0.04956  0  0.100701  0.146115  0  0.98658  0
H  H79  1  0.29034765  0.26546368  0.38998954  1  0.041173  0  0.100691  0.146112  0  0.986608  0
H  H80  1  0.12368227  0.38998957  0.12452441  1  0.057987  0  0.100696  0.146139  0  0.986611  0
H  H81  1  0.95701625  0.12452536  0.73453447  1  0.049497  0  0.100716  0.146147  0  0.986587  0
H  H82  1  0.79035078  0.73453605  0.61000895  1  0.041236  0  0.100684  0.146095  0  0.986648  0
H  H83  1  0.62368250  0.61000905  0.87547308  1  0.057849  0  0.100715  0.146126  0  0.986593  0
H  H84  1  0.54298108  0.61001006  0.73453484  1  0.041266  0  0.100697  0.146123  0  0.986652  0
H  H85  1  0.87631135  0.26546344  0.87547386  1  0.049698  0  0.100695  0.146122  0  0.986694  0
H  H86  1  0.20964771  0.12452421  0.38999021  1  0.05791  0  0.100718  0.146159  0  0.986627  0
H  H87  1  0.70964681  0.87547314  0.61000596  1  0.057993  0  0.100697  0.146137  0  0.98671  0
H  H88  1  0.04297979  0.38998720  0.26546415  1  0.041252  0  0.100698  0.14613  0  0.98663  0
H  H89  1  0.37631277  0.73453381  0.12452210  1  0.049518  0  0.100703  0.146145  0  0.986623  0
H  H90  1  0.51512363  0.77318902  0.25895024  1  0.073824  0  0.092542  0.143717  0  1.041467  0
H  H91  1  0.34846022  0.25895124  0.48576062  1  0.073346  0  0.092567  0.143741  0  1.041436  0
H  H92  1  0.18179404  0.48576054  0.22680719  1  0.084268  0  0.092544  0.143715  0  1.041396  0
H  H93  1  0.01512553  0.22680966  0.74104739  1  0.073853  0  0.09257  0.14373  0  1.041454  0
H  H94  1  0.84846191  0.74104567  0.51423572  1  0.073309  0  0.092543  0.143682  0  1.04146  0
H  H95  1  0.68179525  0.51423612  0.77318971  1  0.084204  0  0.092548  0.143699  0  1.041449  0
H  H96  1  0.48486922  0.51423975  0.74104746  1  0.073367  0  0.092542  0.143722  0  1.041439  0
H  H97  1  0.81819716  0.25895078  0.77319171  1  0.073935  0  0.092553  0.14374  0  1.041432  0
H  H98  1  0.15153173  0.22680768  0.48575820  1  0.08436  0  0.092565  0.143765  0  1.041391  0
H  H99  1  0.65153180  0.77318945  0.51423709  1  0.08427  0  0.092535  0.143706  0  1.041462  0
H  H100  1  0.98486728  0.48575785  0.25895157  1  0.073432  0  0.092551  0.143752  0  1.041387  0
H  H101  1  0.31820002  0.74104867  0.22680579  1  0.073986  0  0.092561  0.143783  0  1.041375  0
C  C102  1  0.66666856  0.43118074  0.43118084  1  0.016223  0  -0.06781  -0.091326  0  3.893284  0
C  C103  1  0.49999759  0.43117027  0.99998803  1  0.010911  0  -0.067916  -0.091363  0  3.89327  0
C  C104  1  0.33333558  0.00000341  0.56881950  1  0.010732  0  -0.067787  -0.091194  0  3.89336  0
C  C105  1  0.16666595  0.56881435  0.56882010  1  0.016307  0  -0.067741  -0.091187  0  3.893289  0
C  C106  1  0.99999693  0.56882101  0.00000397  1  0.010869  0  -0.067867  -0.09136  0  3.893355  0
C  C107  1  0.83333172  0.00000812  0.43118375  1  0.010563  0  -0.067809  -0.091233  0  3.893339  0
C  C108  1  0.66020233  0.34644665  0.43133609  1  -0.000676  0  -0.010372  -0.011167  0  3.926854  0
C  C109  1  0.49352650  0.43133939  0.08489195  1  -0.004824  0  -0.010313  -0.011171  0  3.926165  0
C  C110  1  0.32687171  0.08489339  0.65355125  1  0.006695  0  -0.010339  -0.011112  0  3.926923  0
C  C111  1  0.16019891  0.65354996  0.56865727  1  -0.000736  0  -0.010422  -0.011372  0  3.92657  0
C  C112  1  0.99353556  0.56867179  0.91512136  1  0.022712  0  -0.01023  -0.011095  0  3.926709  0
C  C113  1  0.82686480  0.91511170  0.34644908  1  0.006605  0  -0.010403  -0.011335  0  3.926476  0
C  C114  1  0.33980023  0.91511425  0.56866224  1  -0.004966  0  -0.010369  -0.011297  0  3.926841  0
C  C115  1  0.67313243  0.43133581  0.34644593  1  -0.000562  0  -0.010337  -0.011109  0  3.926744  0
C  C116  1  0.00646133  0.65355501  0.08489989  1  0.006633  0  -0.010374  -0.011139  0  3.926632  0
C  C117  1  0.50645822  0.34644456  0.91511263  1  0.037213  0  -0.010286  -0.010996  0  3.926786  0
C  C118  1  0.83979795  0.08489022  0.43133747  1  -0.004742  0  -0.010366  -0.011167  0  3.926998  0
C  C119  1  0.17312886  0.56866236  0.65354828  1  -0.000629  0  -0.010326  -0.011042  0  3.926962  0
C  C120  1  0.65754160  0.26183293  0.34631235  1  0.005778  0  -0.071351  -0.128915  0  3.92553  0
C  C121  1  0.49085760  0.34630985  0.08447112  1  0.004834  0  -0.071312  -0.128715  0  3.926119  0
C  C122  1  0.32421326  0.08448428  0.73816928  1  0.008862  0  -0.071258  -0.128774  0  3.925564  0
C  C123  1  0.15753804  0.73816079  0.65368513  1  0.0055  0  -0.071268  -0.128543  0  3.926073  0
C  C124  1  0.99087395  0.65369616  0.91553282  1  0.004436  0  -0.071332  -0.128735  0  3.925338  0
C  C125  1  0.82420407  0.91552573  0.26183947  1  0.008952  0  -0.07133  -0.128673  0  3.926045  0
C  C126  1  0.34246419  0.91552694  0.65368637  1  0.004626  0  -0.071277  -0.128629  0  3.92561  0
C  C127  1  0.67579492  0.34631249  0.26183419  1  0.005771  0  -0.071322  -0.128912  0  3.92562  0
C  C128  1  0.00912537  0.73817274  0.08449251  1  0.008376  0  -0.07122  -0.128659  0  3.925728  0
C  C129  1  0.50911254  0.26181815  0.91551413  1  0.008689  0  -0.071215  -0.128811  0  3.924451  0
C  C130  1  0.84245964  0.08448451  0.34631121  1  0.004823  0  -0.071312  -0.128843  0  3.924951  0
C  C131  1  0.17578959  0.65368858  0.73816923  1  0.005768  0  -0.07133  -0.128827  0  3.925034  0
C  C132  1  0.66666951  0.26315267  0.26315221  1  0.130544  0  0.073634  0.062145  0  3.969229  0
C  C133  1  0.49997984  0.26316098  0.00002134  1  0.132477  0  0.073622  0.062098  0  3.969311  0
C  C134  1  0.33334109  0.00000071  0.73684367  1  0.131583  0  0.073547  0.06186  0  3.969577  0
C  C135  1  0.16666257  0.73685276  0.73683597  1  0.131  0  0.073534  0.061829  0  3.969631  0
C  C136  1  0.00000165  0.73685691  0.00001879  1  0.131777  0  0.073534  0.061795  0  3.969574  0
C  C137  1  0.83333268  0.99998765  0.26314761  1  0.131502  0  0.073627  0.061997  0  3.969441  0
C  C138  1  0.65508868  0.34097188  0.51984278  1  1.601151  0  0.196259  0.562231  0  4.224933  0
C  C139  1  0.48841934  0.51984274  0.17886998  1  1.598107  0  0.196247  0.562354  0  4.224965  0
C  C140  1  0.32175733  0.17887460  0.65902920  1  1.602759  0  0.196243  0.562157  0  4.225065  0
C  C141  1  0.15508786  0.65902143  0.48015148  1  1.600716  0  0.196256  0.562253  0  4.225091  0
C  C142  1  0.98842774  0.48016477  0.82113126  1  1.570654  0  0.196199  0.562096  0  4.225307  0
C  C143  1  0.82175609  0.82112881  0.34097646  1  1.602503  0  0.196326  0.562435  0  4.224991  0
C  C144  1  0.34490739  0.82112769  0.48015892  1  1.598109  0  0.196331  0.562443  0  4.224974  0
C  C145  1  0.67823953  0.51984258  0.34096767  1  1.601317  0  0.196222  0.562253  0  4.225022  0
C  C146  1  0.01157643  0.65903549  0.17888076  1  1.602823  0  0.196298  0.562246  0  4.225159  0
C  C147  1  0.51157511  0.34095801  0.82112569  1  1.572401  0  0.196282  0.562136  0  4.224656  0
C  C148  1  0.84490901  0.17887965  0.51984155  1  1.598475  0  0.19631  0.562294  0  4.225065  0
C  C149  1  0.17824080  0.48016015  0.65903530  1  1.601299  0  0.196226  0.562152  0  4.225121  0
C  C150  1  0.52560803  0.05371390  0.38506037  1  -0.055156  0  -0.240005  -0.450567  0  3.925735  0
C  C151  1  0.35894410  0.38506187  0.33134673  1  -0.07735  0  -0.240049  -0.45063  0  3.925794  0
C  C152  1  0.19227390  0.33134680  0.94628489  1  0.010049  0  -0.239963  -0.450469  0  3.925721  0
C  C153  1  0.02561104  0.94628547  0.61493655  1  -0.055051  0  -0.24  -0.450499  0  3.925742  0
C  C154  1  0.85894065  0.61493938  0.66865254  1  -0.077362  0  -0.23996  -0.450473  0  3.925591  0
C  C155  1  0.69227396  0.66865219  0.05371573  1  0.010485  0  -0.240011  -0.450583  0  3.925739  0
C  C156  1  0.47439207  0.66865089  0.61493547  1  -0.077232  0  -0.239958  -0.45044  0  3.925639  0
C  C157  1  0.80772539  0.38506360  0.05371490  1  -0.054987  0  -0.240015  -0.450556  0  3.925669  0
C  C158  1  0.14105707  0.94628597  0.33134736  1  0.010466  0  -0.240014  -0.450609  0  3.925746  0
C  C159  1  0.64105842  0.05371307  0.66864845  1  0.010496  0  -0.240019  -0.450392  0  3.925574  0
C  C160  1  0.97439233  0.33134742  0.38506288  1  -0.077407  0  -0.239971  -0.450459  0  3.925665  0
C  C161  1  0.30772536  0.61493637  0.94628452  1  -0.054936  0  -0.240001  -0.450581  0  3.925754  0
C  C162  1  0.52924926  0.84707073  0.28115300  1  -0.035993  0  -0.236489  -0.442293  0  3.931027  0
C  C163  1  0.36258510  0.28115459  0.43408158  1  -0.040347  0  -0.236514  -0.442357  0  3.930999  0
C  C164  1  0.19591813  0.43408217  0.15292538  1  -0.080602  0  -0.236492  -0.442359  0  3.930881  0
C  C165  1  0.02925201  0.15292768  0.71884365  1  -0.03596  0  -0.236521  -0.44237  0  3.93097  0
C  C166  1  0.86258670  0.71884423  0.56591525  1  -0.040444  0  -0.236459  -0.442221  0  3.930906  0
C  C167  1  0.69591840  0.56591544  0.84707176  1  -0.080509  0  -0.236497  -0.442279  0  3.930845  0
C  C168  1  0.47074440  0.56591828  0.71884359  1  -0.040287  0  -0.236502  -0.442347  0  3.930877  0
C  C169  1  0.80407388  0.28115388  0.84707298  1  -0.035931  0  -0.236569  -0.442421  0  3.930898  0
C  C170  1  0.13740856  0.15292545  0.43408022  1  -0.080247  0  -0.236596  -0.442458  0  3.930921  0
C  C171  1  0.63740935  0.84707264  0.56591534  1  -0.080391  0  -0.23652  -0.442365  0  3.930894  0
C  C172  1  0.97074323  0.43408028  0.28115572  1  -0.040245  0  -0.236544  -0.44243  0  3.93085  0
C  C173  1  0.30407606  0.71884402  0.15292368  1  -0.035808  0  -0.236562  -0.44247  0  3.930839  0
C  C174  1  0.55649264  0.90123080  0.38284821  1  0.519274  0  0.12245  0.21109  0  3.925563  0
C  C175  1  0.38982935  0.38285004  0.48161716  1  0.54585  0  0.122435  0.21105  0  3.925544  0
C  C176  1  0.22316084  0.48161790  0.09876539  1  0.586811  0  0.122437  0.211091  0  3.925548  0
C  C177  1  0.05649475  0.09876820  0.61714902  1  0.519304  0  0.122431  0.211056  0  3.925542  0
C  C178  1  0.88982859  0.61714796  0.51838164  1  0.545911  0  0.122441  0.211039  0  3.925523  0
C  C179  1  0.72315939  0.51838117  0.90123389  1  0.586689  0  0.122435  0.21107  0  3.925435  0
C  C180  1  0.44350264  0.51838235  0.61714863  1  0.545835  0  0.122442  0.210986  0  3.925617  0
C  C181  1  0.77683279  0.38285071  0.90123524  1  0.519358  0  0.122466  0.211004  0  3.925612  0
C  C182  1  0.11016666  0.09876630  0.48161610  1  0.586963  0  0.122478  0.211023  0  3.925558  0
C  C183  1  0.61016673  0.90123216  0.51837915  1  0.587033  0  0.122456  0.21099  0  3.925592  0
C  C184  1  0.94350210  0.48161588  0.38285106  1  0.545764  0  0.122406  0.210989  0  3.925603  0
C  C185  1  0.27683425  0.61714858  0.09876493  1  0.519329  0  0.122456  0.211045  0  3.925523  0
C  C186  1  0.55640275  0.99982537  0.43232589  1  0.523659  0  0.122675  0.213537  0  3.938219  0
C  C187  1  0.38973873  0.43232775  0.43250080  1  0.531957  0  0.12273  0.213665  0  3.938356  0
C  C188  1  0.22306864  0.43250139  0.00017100  1  0.460879  0  0.122659  0.213512  0  3.938382  0
C  C189  1  0.05640494  0.00017433  0.56767064  1  0.52363  0  0.122578  0.213443  0  3.938496  0
C  C190  1  0.88973788  0.56767131  0.56749695  1  0.531959  0  0.12265  0.213515  0  3.938443  0
C  C191  1  0.72306784  0.56749595  0.99982515  1  0.460915  0  0.122669  0.213562  0  3.938352  0
C  C192  1  0.44359658  0.56749546  0.56766837  1  0.532086  0  0.122552  0.213416  0  3.938579  0
C  C193  1  0.77692742  0.43232902  0.99982541  1  0.523436  0  0.122612  0.213527  0  3.93848  0
C  C194  1  0.11026060  0.00017291  0.43250211  1  0.460385  0  0.122642  0.213634  0  3.938382  0
C  C195  1  0.61026221  0.99982555  0.56749314  1  0.460481  0  0.122618  0.213502  0  3.938522  0
C  C196  1  0.94359677  0.43250312  0.43233097  1  0.53197  0  0.122611  0.213482  0  3.938477  0
C  C197  1  0.27692824  0.56766829  0.00017068  1  0.523478  0  0.122622  0.213548  0  3.93848  0
N  N198  1  0.58332890  0.85395510  0.42697582  1  -1.18761  0  -0.318423  -0.248683  0  3.488658  0
N  N199  1  0.41666476  0.42697790  0.57302053  1  -1.183582  0  -0.318395  -0.248637  0  3.488496  0
N  N200  1  0.24999629  0.57302110  0.14604147  1  -1.187845  0  -0.318403  -0.248714  0  3.488584  0
N  N201  1  0.08332947  0.14604363  0.57302041  1  -1.187743  0  -0.318428  -0.248679  0  3.488519  0
N  N202  1  0.91666415  0.57302079  0.42697754  1  -1.183588  0  -0.318395  -0.248659  0  3.488514  0
N  N203  1  0.74999573  0.42697614  0.85395595  1  -1.187817  0  -0.318385  -0.248627  0  3.488437  0
N  N204  1  0.58333282  0.04725207  0.52362411  1  -1.232147  0  -0.30982  -0.277473  0  3.441392  0
N  N205  1  0.41666727  0.52362526  0.47637220  1  -1.232168  0  -0.309829  -0.277462  0  3.441521  0
N  N206  1  0.24999881  0.47637281  0.95274459  1  -1.232166  0  -0.309856  -0.277424  0  3.441645  0
N  N207  1  0.08333283  0.95274692  0.47637309  1  -1.232116  0  -0.309769  -0.277438  0  3.441505  0
N  N208  1  0.91666730  0.47637394  0.52362778  1  -1.232149  0  -0.309807  -0.277404  0  3.441529  0
N  N209  1  0.74999806  0.52362633  0.04725335  1  -1.232101  0  -0.309823  -0.27748  0  3.441403  0
N  N210  1  0.66666715  0.17365792  0.17366384  1  0.396014  0  0.055824  0.51811  0  4.216281  0
N  N211  1  0.49999603  0.17366179  0.00000097  1  0.398213  0  0.055768  0.518096  0  4.21638  0
N  N212  1  0.33333535  0.00000796  0.82633877  1  0.398319  0  0.055908  0.518157  0  4.216241  0
N  N213  1  0.16667221  0.82633440  0.82633502  1  0.395625  0  0.055831  0.518136  0  4.216295  0
N  N214  1  0.00000247  0.82633879  0.00000435  1  0.397569  0  0.055795  0.518071  0  4.21653  0
N  N215  1  0.83334247  0.00000262  0.17366423  1  0.398609  0  0.055782  0.51802  0  4.216415  0
O  O216  1  0.68876351  0.40910619  0.59607264  1  -1.154465  0  -0.324729  -0.539469  0  2.276595  0
O  O217  1  0.52210313  0.59607190  0.18696020  1  -1.14747  0  -0.324722  -0.539565  0  2.276501  0
O  O218  1  0.35542824  0.18696961  0.59089180  1  -1.146989  0  -0.324717  -0.539473  0  2.276532  0
O  O219  1  0.18876119  0.59089022  0.40392330  1  -1.154224  0  -0.324686  -0.539417  0  2.276741  0
O  O220  1  0.02210088  0.40393260  0.81303765  1  -1.147783  0  -0.324691  -0.539477  0  2.276604  0
O  O221  1  0.85543254  0.81303747  0.40910770  1  -1.146967  0  -0.324706  -0.539497  0  2.276811  0
O  O222  1  0.31123014  0.81303760  0.40392859  1  -1.147441  0  -0.324735  -0.539597  0  2.2766  0
O  O223  1  0.64456620  0.59607045  0.40910406  1  -1.154453  0  -0.324675  -0.539475  0  2.276802  0
O  O224  1  0.97790247  0.59088902  0.18696921  1  -1.14704  0  -0.324717  -0.5395  0  2.276352  0
O  O225  1  0.47790670  0.40910317  0.81303282  1  -1.14733  0  -0.324733  -0.539535  0  2.276298  0
O  O226  1  0.81123972  0.18696852  0.59607559  1  -1.1479  0  -0.324715  -0.5395  0  2.276392  0
O  O227  1  0.14456515  0.40392433  0.59089238  1  -1.154509  0  -0.324671  -0.539457  0  2.276332  0
O  O228  1  0.61705792  0.26369191  0.50761901  1  -1.141308  0  -0.327906  -0.53916  0  2.431277  0
O  O229  1  0.45039175  0.50762428  0.24392947  1  -1.141519  0  -0.327907  -0.53926  0  2.43146  0
O  O230  1  0.28373217  0.24393178  0.73630955  1  -1.146556  0  -0.327911  -0.539104  0  2.431377  0
O  O231  1  0.11706032  0.73630766  0.49237875  1  -1.141223  0  -0.32795  -0.539251  0  2.431277  0
O  O232  1  0.95040594  0.49238983  0.75607979  1  -1.141326  0  -0.327952  -0.539113  0  2.431706  0
O  O233  1  0.78372863  0.75607244  0.26369415  1  -1.146469  0  -0.327991  -0.539318  0  2.431366  0
O  O234  1  0.38292195  0.75607051  0.49237972  1  -1.141559  0  -0.328013  -0.539287  0  2.431538  0
O  O235  1  0.71626227  0.50761821  0.26368719  1  -1.14156  0  -0.327921  -0.53917  0  2.431383  0
O  O236  1  0.04959743  0.73630893  0.24393511  1  -1.146685  0  -0.327956  -0.539176  0  2.431887  0
O  O237  1  0.54959379  0.26368011  0.75606967  1  -1.146896  0  -0.32793  -0.539043  0  2.431382  0
O  O238  1  0.88292361  0.24393429  0.50761959  1  -1.141703  0  -0.327961  -0.539182  0  2.431786  0
O  O239  1  0.21626178  0.49238331  0.73630964  1  -1.14154  0  -0.327983  -0.539154  0  2.431811  0
O  O240  1  0.63192130  0.10376599  0.17467307  1  -0.448732  0  -0.133749  -0.332029  0  1.92489  0
O  O241  1  0.46523717  0.17468406  0.07093408  1  -0.449033  0  -0.134026  -0.332314  0  1.923326  0
O  O242  1  0.29858459  0.07090321  0.89622831  1  -0.445809  0  -0.13367  -0.33192  0  1.925145  0
O  O243  1  0.13191746  0.89624249  0.82531819  1  -0.449035  0  -0.133987  -0.332234  0  1.923839  0
O  O244  1  0.96525837  0.82533618  0.92911629  1  -0.448698  0  -0.133422  -0.331627  0  1.925596  0
O  O245  1  0.79858863  0.92907630  0.10375765  1  -0.446208  0  -0.133984  -0.332214  0  1.923871  0
O  O246  1  0.36809258  0.92908843  0.82532244  1  -0.448357  0  -0.133942  -0.33215  0  1.923979  0
O  O247  1  0.70142035  0.17467366  0.10376308  1  -0.448735  0  -0.133826  -0.332082  0  1.924296  0
O  O248  1  0.03477011  0.89624725  0.07093029  1  -0.444986  0  -0.134077  -0.332344  0  1.923473  0
O  O249  1  0.53474591  0.10377231  0.92911551  1  -0.445358  0  -0.133464  -0.33176  0  1.925637  0
O  O250  1  0.86808751  0.07089492  0.17466803  1  -0.448478  0  -0.133536  -0.331779  0  1.92526  0
O  O251  1  0.20142123  0.82533079  0.89622479  1  -0.448115  0  -0.133543  -0.331806  0  1.925126  0
