# generated using pymatgen
data_CdH8C12(NCl)2
_symmetry_space_group_name_H-M   'P 1'
_cell_length_a   7.13102305
_cell_length_b   9.66994912
_cell_length_c   9.66967929
_cell_angle_alpha   62.52972680
_cell_angle_beta   84.38358489
_cell_angle_gamma   84.38578964
_symmetry_Int_Tables_number   1
_chemical_formula_structural   CdH8C12(NCl)2
_chemical_formula_sum   'Cd2 H16 C24 N4 Cl4'
_cell_volume   587.71926652
_cell_formula_units_Z   2
loop_
 _symmetry_equiv_pos_site_id
 _symmetry_equiv_pos_as_xyz
  1  'x, y, z'
loop_
 _atom_site_type_symbol
 _atom_site_label
 _atom_site_symmetry_multiplicity
 _atom_site_fract_x
 _atom_site_fract_y
 _atom_site_fract_z
 _atom_site_occupancy
 _atom_site_pbe_bader_spin_density
 _atom_site_pbe_cm5_charge
 _atom_site_pbe_ddec_charge
 _atom_site_pbe_ddec_spin_density
 _atom_site_pbe_ddec_sum_bond_order
 _atom_site_pbe_magmom
Cd  Cd0  1  0.75000830  0.06330070  0.93669268  1  0  0.58553  0.764114  0  2.433055  0
Cd  Cd1  1  0.25000048  0.93669571  0.06330837  1  0  0.585549  0.764105  0  2.433124  0
H  H2  1  0.81709880  0.33113166  0.95227803  1  0  0.089275  0.099471  0  1.069624  0
H  H3  1  0.68293638  0.04772463  0.66884541  1  0  0.089395  0.099669  0  1.069504  0
H  H4  1  0.18293432  0.66887875  0.04772206  1  0  0.089321  0.09954  0  1.069578  0
H  H5  1  0.31705069  0.95227999  0.33115435  1  0  0.089416  0.099713  0  1.069381  0
H  H6  1  0.87223394  0.58324851  0.94435830  1  0  0.102213  0.102501  0  1.014635  0
H  H7  1  0.62776513  0.05564232  0.41673114  1  0  0.102224  0.102526  0  1.014494  0
H  H8  1  0.12777321  0.41677126  0.05563406  1  0  0.102205  0.102498  0  1.014628  0
H  H9  1  0.37222099  0.94435532  0.58327503  1  0  0.102226  0.102495  0  1.01455  0
H  H10  1  0.83119615  0.82103683  0.44418495  1  0  0.095351  0.116186  0  1.040819  0
H  H11  1  0.66881497  0.55580953  0.17893595  1  0  0.095303  0.116045  0  1.040981  0
H  H12  1  0.16880684  0.17896300  0.55579940  1  0  0.095359  0.116224  0  1.04084  0
H  H13  1  0.33118100  0.44418920  0.82105870  1  0  0.095307  0.116065  0  1.041045  0
H  H14  1  0.88921533  0.82505921  0.69508138  1  0  0.093013  0.103136  0  1.027406  0
H  H15  1  0.61079049  0.30491797  0.17492004  1  0  0.093044  0.103192  0  1.027467  0
H  H16  1  0.11078095  0.17495583  0.30489945  1  0  0.093009  0.103112  0  1.027576  0
H  H17  1  0.38920718  0.69507612  0.82508286  1  0  0.093074  0.103237  0  1.027442  0
C  C18  1  0.78353956  0.43196015  0.70255161  1  0  0.120242  0.182763  0  3.979532  0
C  C19  1  0.71647035  0.29744287  0.56801890  1  0  0.120227  0.182784  0  3.979523  0
C  C20  1  0.21646475  0.56803976  0.29744708  1  0  0.120252  0.182746  0  3.979461  0
C  C21  1  0.28352280  0.70255478  0.43198989  1  0  0.120195  0.182752  0  3.979549  0
C  C22  1  0.81685729  0.43818711  0.84198760  1  0  -0.094899  -0.170324  0  3.949998  0
C  C23  1  0.68315562  0.15801469  0.56178107  1  0  -0.094997  -0.170515  0  3.949797  0
C  C24  1  0.18315631  0.56182096  0.15800769  1  0  -0.094916  -0.17039  0  3.949977  0
C  C25  1  0.31683582  0.84198760  0.43822154  1  0  -0.095056  -0.170594  0  3.949739  0
C  C26  1  0.84990481  0.57810327  0.83700975  1  0  -0.076239  -0.038807  0  3.957887  0
C  C27  1  0.65010310  0.16299519  0.42186384  1  0  -0.076328  -0.038985  0  3.957651  0
C  C28  1  0.15009928  0.42190012  0.16298424  1  0  -0.076199  -0.038813  0  3.957528  0
C  C29  1  0.34988593  0.83700128  0.57814165  1  0  -0.076274  -0.038896  0  3.957869  0
C  C30  1  0.82556195  0.71682735  0.55665355  1  0  -0.084772  -0.145761  0  3.936338  0
C  C31  1  0.67445133  0.44336023  0.28315408  1  0  -0.084704  -0.145549  0  3.936368  0
C  C32  1  0.17444119  0.28316907  0.44334892  1  0  -0.084771  -0.145737  0  3.936441  0
C  C33  1  0.32553782  0.55663503  0.71684576  1  0  -0.084697  -0.145603  0  3.936555  0
C  C34  1  0.78536474  0.57521033  0.55688551  1  0  0.117487  0.163721  0  4.010705  0
C  C35  1  0.71463214  0.44311438  0.42476849  1  0  0.117444  0.16368  0  4.010841  0
C  C36  1  0.21463581  0.42478261  0.44312083  1  0  0.117561  0.163803  0  4.01054  0
C  C37  1  0.28536394  0.55688206  0.57523446  1  0  0.117413  0.163724  0  4.010879  0
C  C38  1  0.85684815  0.71795299  0.69372132  1  0  -0.083851  -0.060168  0  3.974981  0
C  C39  1  0.64314503  0.30629164  0.28202026  1  0  -0.083796  -0.060169  0  3.97486  0
C  C40  1  0.14314785  0.28204463  0.30628315  1  0  -0.083898  -0.060199  0  3.974875  0
C  C41  1  0.35684860  0.69370009  0.71797884  1  0  -0.083839  -0.060191  0  3.974999  0
N  N42  1  0.75000915  0.29592709  0.70406322  1  0  -0.30955  -0.279428  0  3.435989  0
N  N43  1  0.24999664  0.70407166  0.29593798  1  0  -0.309504  -0.279349  0  3.435993  0
N  N44  1  0.74999664  0.57844361  0.42154908  1  0  -0.289385  -0.28301  0  3.244946  0
N  N45  1  0.24999820  0.42155049  0.57845504  1  0  -0.289468  -0.283112  0  3.244976  0
Cl  Cl46  1  0.92943809  0.03758867  0.16225163  1  0  -0.271131  -0.453551  0  1.343554  0
Cl  Cl47  1  0.57056309  0.83774572  0.96241675  1  0  -0.271128  -0.453549  0  1.343522  0
Cl  Cl48  1  0.07057068  0.96240773  0.83774942  1  0  -0.271098  -0.453549  0  1.343562  0
Cl  Cl49  1  0.42944596  0.16224606  0.03759368  1  0  -0.271133  -0.453554  0  1.343523  0
