# generated using pymatgen
data_FeAg2H10(C8N5)2
_symmetry_space_group_name_H-M   'P 1'
_cell_length_a   12.67877252
_cell_length_b   15.76062133
_cell_length_c   16.76267673
_cell_angle_alpha   109.46149096
_cell_angle_beta   111.32663921
_cell_angle_gamma   89.97398298
_symmetry_Int_Tables_number   1
_chemical_formula_structural   FeAg2H10(C8N5)2
_chemical_formula_sum   'Fe4 Ag8 H40 C64 N40'
_cell_volume   2914.04127362
_cell_formula_units_Z   4
loop_
 _symmetry_equiv_pos_site_id
 _symmetry_equiv_pos_as_xyz
  1  'x, y, z'
loop_
 _atom_site_type_symbol
 _atom_site_label
 _atom_site_symmetry_multiplicity
 _atom_site_fract_x
 _atom_site_fract_y
 _atom_site_fract_z
 _atom_site_occupancy
 _atom_site_pbe_bader_charge
 _atom_site_pbe_bader_spin_density
 _atom_site_pbe_cm5_charge
 _atom_site_pbe_ddec_charge
 _atom_site_pbe_ddec_spin_density
 _atom_site_pbe_ddec_sum_bond_order
 _atom_site_pbe_magmom
Fe  Fe0  1  0.29871866  0.53020464  0.59958324  1  1.240415  0  0.916522  0.569804  0  3.990684  0
Fe  Fe1  1  0.70127880  0.46979326  0.40041559  1  1.24045  0  0.916539  0.569764  0  3.990857  0
Fe  Fe2  1  0.80830724  0.03590157  0.61573228  1  1.242925  0  0.824748  0.570726  0  3.750954  0
Fe  Fe3  1  0.19169010  0.96409563  0.38426688  1  1.243039  0  0.824788  0.570797  0  3.750948  0
Ag  Ag4  1  0.54115454  0.79016066  0.60611618  1  0.394996  0  0.309812  0.160692  0  2.409633  0
Ag  Ag5  1  0.45884652  0.20983383  0.39388191  1  0.394991  0  0.309813  0.160713  0  2.409634  0
Ag  Ag6  1  0.56183179  0.29023308  0.60738496  1  0.404742  0  0.308939  0.161525  0  2.403961  0
Ag  Ag7  1  0.43815914  0.70976157  0.39260741  1  0.404659  0  0.308944  0.161555  0  2.403893  0
Ag  Ag8  1  0.03644976  0.77010803  0.59793279  1  0.392457  0  0.308135  0.155742  0  2.50672  0
Ag  Ag9  1  0.96355521  0.22989384  0.40207182  1  0.392335  0  0.308143  0.155793  0  2.506717  0
Ag  Ag10  1  0.06276676  0.27311500  0.60192671  1  0.390496  0  0.30981  0.153735  0  2.519446  0
Ag  Ag11  1  0.93723273  0.72688471  0.39808164  1  0.390286  0  0.309735  0.153647  0  2.519578  0
H  H12  1  0.66331149  0.71595438  0.07391735  1  0.437371  0  0.321997  0.287994  0  0.920708  0
H  H13  1  0.33669167  0.28404690  0.92608358  1  0.437394  0  0.322003  0.287996  0  0.920712  0
H  H14  1  0.64384342  0.80651665  0.04474495  1  0.419593  0  0.314568  0.278929  0  0.947934  0
H  H15  1  0.35615817  0.19348528  0.95525696  1  0.419608  0  0.314571  0.278937  0  0.947933  0
H  H16  1  0.92019282  0.22493458  0.09345073  1  0.44414  0  0.322889  0.288873  0  0.918264  0
H  H17  1  0.07981144  0.77506806  0.90655036  1  0.444098  0  0.322899  0.288851  0  0.918269  0
H  H18  1  0.90898979  0.31585483  0.06454864  1  0.446981  0  0.315089  0.279069  0  0.949981  0
H  H19  1  0.09101460  0.68414851  0.93545212  1  0.447043  0  0.315088  0.279085  0  0.949964  0
H  H20  1  0.18327168  0.56273408  0.72571961  1  0.144553  0  0.126105  0.102335  0  0.999962  0
H  H21  1  0.81672785  0.43726583  0.27428106  1  0.144543  0  0.126087  0.102328  0  0.999906  0
H  H22  1  0.23099257  0.64410010  0.89132992  1  0.095785  0  0.105059  0.105178  0  1.049736  0
H  H23  1  0.76901059  0.35590116  0.10867161  1  0.095791  0  0.105038  0.105165  0  1.049716  0
H  H24  1  0.58040942  0.70130329  0.91961888  1  0.107094  0  0.103108  0.099419  0  1.083801  0
H  H25  1  0.41959096  0.29869670  0.08037848  1  0.107112  0  0.103117  0.099401  0  1.083742  0
H  H26  1  0.51909376  0.61814562  0.75741612  1  0.137239  0  0.121279  0.089563  0  1.040201  0
H  H27  1  0.48090337  0.38185507  0.24258117  1  0.137217  0  0.121284  0.089554  0  1.040222  0
H  H28  1  0.43644510  0.92788744  0.29250277  1  0.127399  0  0.110905  0.121408  0  1.027407  0
H  H29  1  0.56355334  0.07211118  0.70749478  1  0.127423  0  0.11088  0.121343  0  1.0274  0
H  H30  1  0.55647329  0.01041314  0.45698547  1  0.12461  0  0.119757  0.09419  0  1.008177  0
H  H31  1  0.44352540  0.98958682  0.54301320  1  0.124595  0  0.119788  0.094225  0  1.008151  0
H  H32  1  0.84820303  0.91493375  0.42457895  1  0.143217  0  0.115314  0.091684  0  1.012962  0
H  H33  1  0.15179650  0.08506619  0.57542054  1  0.143202  0  0.115321  0.091677  0  1.013016  0
H  H34  1  0.74110273  0.82707380  0.25835983  1  0.113756  0  0.100184  0.102735  0  1.054717  0
H  H35  1  0.25889667  0.17292544  0.74163998  1  0.113749  0  0.100177  0.102725  0  1.054728  0
H  H36  1  0.41184356  0.50109164  0.47205618  1  0.127312  0  0.123495  0.096252  0  1.023447  0
H  H37  1  0.58815561  0.49891094  0.52794766  1  0.127352  0  0.123494  0.096264  0  1.023407  0
H  H38  1  0.36622266  0.41950756  0.30759782  1  0.13638  0  0.110554  0.119609  0  1.035423  0
H  H39  1  0.63378298  0.58050254  0.69240673  1  0.135908  0  0.110555  0.119546  0  1.035524  0
H  H40  1  0.01840946  0.35451294  0.27594651  1  0.146464  0  0.100423  0.103338  0  1.061047  0
H  H41  1  0.98159348  0.64548711  0.72404859  1  0.146485  0  0.100438  0.103339  0  1.061072  0
H  H42  1  0.07868487  0.43982839  0.44237386  1  0.118975  0  0.121677  0.098841  0  1.009444  0
H  H43  1  0.92131332  0.56016888  0.55762258  1  0.118216  0  0.121672  0.098799  0  1.009488  0
H  H44  1  0.16463830  0.14738948  0.90291895  1  0.088046  0  0.106418  0.108843  0  1.039988  0
H  H45  1  0.83536267  0.85260906  0.09708166  1  0.087966  0  0.106399  0.108842  0  1.039976  0
H  H46  1  0.04713760  0.06386270  0.73891170  1  0.123721  0  0.127532  0.105524  0  0.993512  0
H  H47  1  0.95286095  0.93613652  0.26108907  1  0.123708  0  0.127578  0.105581  0  0.993566  0
H  H48  1  0.74768248  0.13063914  0.77811799  1  0.13413  0  0.121797  0.09183  0  1.039961  0
H  H49  1  0.25231974  0.86936619  0.22188523  1  0.1339  0  0.121772  0.091835  0  1.039922  0
H  H50  1  0.84854975  0.21512782  0.93893484  1  0.092297  0  0.102412  0.096476  0  1.088286  0
H  H51  1  0.15145319  0.78487685  0.06106716  1  0.092279  0  0.102384  0.096444  0  1.088326  0
C  C52  1  0.26988027  0.59464822  0.77174677  1  0.416873  0  0.049453  0.086525  0  3.915268  0
C  C53  1  0.73011770  0.40535243  0.22825192  1  0.41686  0  0.049446  0.086504  0  3.915269  0
C  C54  1  0.29714603  0.64035346  0.86403099  1  0.028981  0  -0.086173  -0.162523  0  3.968789  0
C  C55  1  0.70285569  0.35964917  0.13597059  1  0.028918  0  -0.086155  -0.162497  0  3.968644  0
C  C56  1  0.40938812  0.68295552  0.92261394  1  -0.024052  0  0.000801  0.05619  0  4.042978  0
C  C57  1  0.59061252  0.31704583  0.07738394  1  -0.024024  0  0.000815  0.056164  0  4.042858  0
C  C58  1  0.49073066  0.67266894  0.88236098  1  -0.051933  0  -0.090787  -0.183827  0  3.955359  0
C  C59  1  0.50927095  0.32733308  0.11763739  1  -0.051884  0  -0.090843  -0.183852  0  3.955343  0
C  C60  1  0.45677670  0.62476688  0.78881102  1  0.490615  0  0.056878  0.107707  0  3.881691  0
C  C61  1  0.54322226  0.37523450  0.21118580  1  0.490678  0  0.056904  0.107744  0  3.881661  0
C  C62  1  0.42844350  0.73509912  0.01772395  1  0.892234  0  0.211476  0.163312  0  4.02559  0
C  C63  1  0.57155785  0.26490153  0.98227449  1  0.892242  0  0.211486  0.163384  0  4.025507  0
C  C64  1  0.50245159  0.81731356  0.16590290  1  0.929058  0  0.227084  0.193145  0  3.966757  0
C  C65  1  0.49754841  0.18268432  0.83409663  1  0.92897  0  0.227114  0.193171  0  3.966758  0
C  C66  1  0.57803825  0.86903570  0.26078383  1  -0.016853  0  0.010884  0.064159  0  4.010263  0
C  C67  1  0.42195981  0.13096084  0.73921471  1  -0.016873  0  0.010869  0.064192  0  4.010301  0
C  C68  1  0.52716602  0.92261096  0.31862659  1  0.029421  0  -0.073857  -0.152353  0  3.930691  0
C  C69  1  0.47283241  0.07738760  0.68137333  1  0.029473  0  -0.073893  -0.152382  0  3.930641  0
C  C70  1  0.59375208  0.96878417  0.41057020  1  0.478109  0  0.056045  0.093924  0  3.942066  0
C  C71  1  0.40624623  0.03121377  0.58942709  1  0.478205  0  0.05606  0.093932  0  3.941969  0
C  C72  1  0.75658468  0.91573993  0.39232381  1  0.504191  0  0.05495  0.097593  0  3.934784  0
C  C73  1  0.24341362  0.08425798  0.60767466  1  0.504188  0  0.054942  0.097577  0  3.934731  0
C  C74  1  0.69622810  0.86663661  0.29925429  1  -0.074652  0  -0.086501  -0.170809  0  3.950729  0
C  C75  1  0.30377130  0.13336263  0.70074612  1  -0.074624  0  -0.08647  -0.170791  0  3.950593  0
C  C76  1  0.32598407  0.46735712  0.42647185  1  0.449668  0  0.053779  0.092354  0  3.900955  0
C  C77  1  0.67401570  0.53264417  0.57352875  1  0.449932  0  0.05379  0.092402  0  3.900867  0
C  C78  1  0.29958405  0.42171292  0.33418679  1  0.045738  0  -0.075947  -0.153325  0  3.945945  0
C  C79  1  0.70041927  0.57829379  0.66581600  1  0.046425  0  -0.07592  -0.153268  0  3.945899  0
C  C80  1  0.18797613  0.37794086  0.27610145  1  -0.062652  0  0.009367  0.062464  0  4.009742  0
C  C81  1  0.81202852  0.62206384  0.72389924  1  -0.062356  0  0.009383  0.062496  0  4.009802  0
C  C82  1  0.10668388  0.38581543  0.31624554  1  -0.010331  0  -0.086509  -0.170285  0  3.957402  0
C  C83  1  0.89331930  0.61418592  0.68375244  1  -0.010901  0  -0.086499  -0.170292  0  3.957397  0
C  C84  1  0.13995187  0.43363948  0.40981036  1  0.417073  0  0.053213  0.094032  0  3.884786  0
C  C85  1  0.86004644  0.56635845  0.59018753  1  0.418268  0  0.053196  0.094067  0  3.884842  0
C  C86  1  0.16854858  0.32647586  0.18047916  1  0.945196  0  0.226715  0.192772  0  3.96868  0
C  C87  1  0.83145594  0.67352820  0.81952009  1  0.944759  0  0.226717  0.192815  0  3.968659  0
C  C88  1  0.09539230  0.24398650  0.03221293  1  0.887594  0  0.210969  0.164716  0  4.02601  0
C  C89  1  0.90461087  0.75601479  0.96778742  1  0.887325  0  0.21095  0.164638  0  4.026233  0
C  C90  1  0.02002740  0.19130926  0.93819653  1  -4e-05  0  0.000326  0.052565  0  4.042661  0
C  C91  1  0.97997323  0.80869203  0.06180371  1  0.000175  0  0.000355  0.052615  0  4.042618  0
C  C92  1  0.07236115  0.14532724  0.87787131  1  -0.014449  0  -0.084441  -0.159181  0  3.964741  0
C  C93  1  0.92763754  0.85467270  0.12212853  1  -0.014389  0  -0.084438  -0.159181  0  3.96476  0
C  C94  1  0.00774700  0.09849036  0.78643357  1  0.428896  0  0.048424  0.083727  0  3.904302  0
C  C95  1  0.99225083  0.90150958  0.21356604  1  0.428921  0  0.04837  0.083673  0  3.904434  0
C  C96  1  0.84016059  0.13467080  0.80752490  1  0.468394  0  0.055578  0.103434  0  3.873054  0
C  C97  1  0.15983969  0.86533318  0.19247733  1  0.468598  0  0.055626  0.103458  0  3.873082  0
C  C98  1  0.89995592  0.18351417  0.90034497  1  0.033759  0  -0.091078  -0.180168  0  3.955798  0
C  C99  1  0.10004508  0.81648916  0.09965605  1  0.033843  0  -0.091057  -0.180122  0  3.955824  0
C  C100  1  0.44787301  0.68392370  0.60217257  1  0.752413  0  -0.031951  -0.048967  0  3.761888  0
C  C101  1  0.55212516  0.31607347  0.39782800  1  0.752735  0  -0.031952  -0.048959  0  3.761865  0
C  C102  1  0.12429438  0.66282302  0.59162863  1  0.739401  0  -0.036165  -0.056457  0  3.771552  0
C  C103  1  0.87570504  0.33717628  0.40836942  1  0.739255  0  -0.036171  -0.056563  0  3.771452  0
C  C104  1  0.15381600  0.37989897  0.60521452  1  0.75883  0  -0.040946  -0.065612  0  3.787426  0
C  C105  1  0.84618446  0.62010146  0.39479254  1  0.759031  0  -0.040949  -0.065596  0  3.787642  0
C  C106  1  0.47442485  0.39796549  0.61372349  1  0.736312  0  -0.035322  -0.051798  0  3.763099  0
C  C107  1  0.52557248  0.60203173  0.38627508  1  0.736469  0  -0.035239  -0.051736  0  3.762993  0
C  C108  1  0.65240316  0.18512587  0.61078897  1  0.745088  0  -0.031899  -0.044855  0  3.76176  0
C  C109  1  0.34758545  0.81486542  0.38920045  1  0.745106  0  -0.031898  -0.044879  0  3.76187  0
C  C110  1  0.97071927  0.16864856  0.60161719  1  0.744563  0  -0.036698  -0.052052  0  3.776223  0
C  C111  1  0.02928107  0.83135117  0.39839080  1  0.744017  0  -0.036715  -0.051998  0  3.776069  0
C  C112  1  0.95493211  0.88084399  0.60886211  1  0.749584  0  -0.039799  -0.060971  0  3.781393  0
C  C113  1  0.04506849  0.11915714  0.39114463  1  0.749694  0  -0.039857  -0.061069  0  3.781389  0
C  C114  1  0.64085628  0.89834102  0.62006616  1  0.75001  0  -0.035897  -0.049433  0  3.771844  0
C  C115  1  0.35914453  0.10165214  0.37993023  1  0.750065  0  -0.035907  -0.049524  0  3.77167  0
N  N116  1  0.34808346  0.58725188  0.73302837  1  -1.141702  0  -0.322692  -0.128982  0  3.577085  0
N  N117  1  0.65191632  0.41274942  0.26697163  1  -1.141758  0  -0.322687  -0.128977  0  3.577122  0
N  N118  1  0.34350839  0.75194053  0.04753919  1  -0.679387  0  -0.228908  -0.256821  0  3.25406  0
N  N119  1  0.65649115  0.24805944  0.95245911  1  -0.67939  0  -0.228911  -0.256831  0  3.254098  0
N  N120  1  0.38926895  0.80249256  0.13890525  1  -0.659156  0  -0.21297  -0.22348  0  3.230655  0
N  N121  1  0.61073020  0.19750534  0.86109346  1  -0.659206  0  -0.212994  -0.223511  0  3.230657  0
N  N122  1  0.53068321  0.77576416  0.09102918  1  -0.849647  0  -0.137938  0.088345  0  3.710567  0
N  N123  1  0.46931691  0.22423442  0.90897002  1  -0.849619  0  -0.13795  0.088323  0  3.710602  0
N  N124  1  0.64193181  0.78019086  0.09239585  1  -0.715672  0  -0.483941  -0.496213  0  3.161555  0
N  N125  1  0.35806953  0.21980973  0.90760495  1  -0.715713  0  -0.48394  -0.496224  0  3.161565  0
N  N126  1  0.70617474  0.96494832  0.44676295  1  -1.208943  0  -0.26951  -0.163651  0  3.380774  0
N  N127  1  0.29382575  0.03505223  0.55323940  1  -1.208978  0  -0.269503  -0.163614  0  3.380878  0
N  N128  1  0.24835609  0.47289884  0.46526350  1  -1.160433  0  -0.32009  -0.129605  0  3.568526  0
N  N129  1  0.75164416  0.52710042  0.53473596  1  -1.160446  0  -0.320119  -0.129651  0  3.568564  0
N  N130  1  0.25368073  0.31096338  0.15078585  1  -0.651619  0  -0.215096  -0.225916  0  3.229714  0
N  N131  1  0.74632367  0.68903998  0.84921373  1  -0.651612  0  -0.215137  -0.225984  0  3.229698  0
N  N132  1  0.20875231  0.26030489  0.05950431  1  -0.671227  0  -0.229445  -0.25967  0  3.254139  0
N  N133  1  0.79125158  0.73969573  0.94049541  1  -0.670995  0  -0.229439  -0.259579  0  3.254243  0
N  N134  1  0.06688509  0.28531006  0.10718082  1  -0.861901  0  -0.138422  0.087109  0  3.71292  0
N  N135  1  0.93312027  0.71469395  0.89282044  1  -0.861907  0  -0.138442  0.086955  0  3.712802  0
N  N136  1  0.95841538  0.28934172  0.11142402  1  -0.740806  0  -0.483048  -0.493754  0  3.160556  0
N  N137  1  0.04158986  0.71066161  0.88857697  1  -0.74094  0  -0.483019  -0.493662  0  3.160321  0
N  N138  1  0.89192564  0.09337603  0.74991508  1  -1.146823  0  -0.310531  -0.12199  0  3.555291  0
N  N139  1  0.10807160  0.90662524  0.25008601  1  -1.146879  0  -0.310526  -0.122041  0  3.555469  0
N  N140  1  0.39361130  0.62267501  0.60040192  1  -1.311074  0  -0.388073  -0.274726  0  3.668547  0
N  N141  1  0.60638433  0.37732218  0.39959796  1  -1.311335  0  -0.388053  -0.274711  0  3.668564  0
N  N142  1  0.18316489  0.60553181  0.58829210  1  -1.297629  0  -0.385974  -0.265323  0  3.660759  0
N  N143  1  0.81683148  0.39446476  0.41170539  1  -1.297442  0  -0.38599  -0.265215  0  3.660631  0
N  N144  1  0.20507974  0.43878208  0.60073441  1  -1.317932  0  -0.388459  -0.267098  0  3.685224  0
N  N145  1  0.79491880  0.56121708  0.39926872  1  -1.317947  0  -0.388463  -0.267106  0  3.685442  0
N  N146  1  0.41475571  0.45469080  0.61216442  1  -1.294315  0  -0.386725  -0.273216  0  3.654798  0
N  N147  1  0.58524271  0.54530773  0.38783668  1  -1.294401  0  -0.38679  -0.273303  0  3.654867  0
N  N148  1  0.70864029  0.12625892  0.61343843  1  -1.307122  0  -0.382048  -0.273061  0  3.636228  0
N  N149  1  0.29135220  0.87373500  0.38655532  1  -1.307176  0  -0.382099  -0.273072  0  3.636219  0
N  N150  1  0.91020126  0.11216022  0.60113518  1  -1.301217  0  -0.381175  -0.263985  0  3.639576  0
N  N151  1  0.08979813  0.88783894  0.39886818  1  -1.30074  0  -0.381114  -0.264009  0  3.639442  0
N  N152  1  0.90222365  0.94207610  0.61014917  1  -1.312528  0  -0.383472  -0.266251  0  3.652188  0
N  N153  1  0.09777476  0.05792237  0.38985430  1  -1.31262  0  -0.383419  -0.266187  0  3.652079  0
N  N154  1  0.70194111  0.95643104  0.62348768  1  -1.313099  0  -0.381967  -0.271998  0  3.624252  0
N  N155  1  0.29805584  0.04356412  0.37651129  1  -1.313244  0  -0.381986  -0.27196  0  3.624054  0
