# generated using pymatgen
data_CuH28(C13O4)2
_symmetry_space_group_name_H-M   'P 1'
_cell_length_a   4.89397743
_cell_length_b   9.71688072
_cell_length_c   14.90166892
_cell_angle_alpha   111.74941928
_cell_angle_beta   111.90003950
_cell_angle_gamma   81.37264422
_symmetry_Int_Tables_number   1
_chemical_formula_structural   CuH28(C13O4)2
_chemical_formula_sum   'Cu1 H28 C26 O8'
_cell_volume   610.63640780
_cell_formula_units_Z   1
loop_
 _symmetry_equiv_pos_site_id
 _symmetry_equiv_pos_as_xyz
  1  'x, y, z'
loop_
 _atom_site_type_symbol
 _atom_site_label
 _atom_site_symmetry_multiplicity
 _atom_site_fract_x
 _atom_site_fract_y
 _atom_site_fract_z
 _atom_site_occupancy
 _atom_site_hle17_ddec_charge
 _atom_site_hle17_ddec_spin_density
 _atom_site_hle17_ddec_sum_bond_order
 _atom_site_hle17_magmom
 _atom_site_hse06_10hf_ddec_charge
 _atom_site_hse06_10hf_ddec_spin_density
 _atom_site_hse06_10hf_ddec_sum_bond_order
 _atom_site_hse06_10hf_magmom
 _atom_site_hse06_ddec_charge
 _atom_site_hse06_ddec_spin_density
 _atom_site_hse06_ddec_sum_bond_order
 _atom_site_hse06_magmom
 _atom_site_pbe_cm5_charge
 _atom_site_pbe_ddec_charge
 _atom_site_pbe_ddec_spin_density
 _atom_site_pbe_ddec_sum_bond_order
 _atom_site_pbe_magmom
Cu  Cu0  1  0.00000390  0.99999610  0.49999949  1  0.989258  0.68169  1.642097  0.51  0.995787  0.784781  2.022339  0.639  1.08497  0.847754  1.957847  0.726  0.712561  0.931682  0.739669  2.079801  0.583
H  H1  1  0.55693351  0.66088237  0.98764745  1  0.082474  -0.0  0.990254  0.0  0.094755  0.0  1.053158  0.0  0.09715  0.0  1.052501  0.0  0.097331  0.093056  0.0  1.053696  0.0
H  H2  1  0.44307029  0.33912137  0.01235468  1  0.082465  -2e-06  0.99033  0.0  0.094743  0.0  1.053223  0.0  0.097139  1e-06  1.052564  0.0  0.097302  0.093046  0.0  1.053763  0.0
H  H3  1  0.56277728  0.80563359  0.12364653  1  0.095352  -1.4e-05  0.986875  0.0  0.107284  -6e-06  1.051277  0.0  0.11035  -4e-06  1.050148  0.0  0.101944  0.10511  -9e-06  1.052374  0.0
H  H4  1  0.43719644  0.19436888  0.87634754  1  0.095393  -1.9e-05  0.986988  0.0  0.10727  -6e-06  1.051442  0.0  0.110334  -4e-06  1.050311  0.0  0.101936  0.105099  -9e-06  1.052543  0.0
H  H5  1  0.28122539  0.44609370  0.16047132  1  0.08479  -0.0  0.971918  0.0  0.095491  2e-06  1.034911  0.0  0.097982  2e-06  1.034302  0.0  0.097673  0.093782  3e-06  1.03529  0.0
H  H6  1  0.71878623  0.55391641  0.83952609  1  0.084837  6e-06  0.971867  0.0  0.09559  2e-06  1.03482  0.0  0.098093  2e-06  1.034175  0.0  0.097714  0.093879  3e-06  1.035185  0.0
H  H7  1  0.01365022  0.46713027  0.25000863  1  0.092002  0.000171  0.960379  0.0  0.105312  0.000114  1.018236  0.0  0.10804  6.9e-05  1.017831  0.0  0.099469  0.103441  0.000153  1.018572  0.0
H  H8  1  0.98637322  0.53288140  0.74999501  1  0.092012  0.000165  0.960258  0.0  0.10532  0.000114  1.018124  0.0  0.108046  6.9e-05  1.017722  0.0  0.099481  0.103445  0.000153  1.01846  0.0
H  H9  1  0.80261486  0.57376642  0.38872086  1  0.099154  4e-06  0.936863  0.0  0.111334  8.7e-05  0.99098  0.0  0.115121  6.1e-05  0.987662  0.0  0.104013  0.108677  8.6e-05  0.993322  0.0
H  H10  1  0.19737068  0.42622571  0.61127593  1  0.099274  7e-06  0.936912  0.0  0.111414  8.7e-05  0.991088  0.0  0.115201  6.1e-05  0.987767  0.0  0.104045  0.108757  8.6e-05  0.993432  0.0
H  H11  1  0.08508702  0.88848814  0.10720981  1  0.040419  -7e-06  0.935761  0.0  0.056252  -8e-06  1.002921  0.0  0.055362  -4e-06  1.004234  0.0  0.094968  0.056907  -1.1e-05  1.001874  0.0
H  H12  1  0.91489541  0.11151755  0.89279198  1  0.040414  0.0  0.935695  0.0  0.056229  -9e-06  1.002957  0.0  0.05534  -4e-06  1.004269  0.0  0.094978  0.056885  -1.1e-05  1.001909  0.0
H  H13  1  0.37180787  0.02153256  0.16387426  1  0.039349  2.1e-05  0.945487  0.0  0.057403  9e-06  1.006626  0.0  0.056921  0.0  1.0069  0.0  0.096516  0.057659  2.3e-05  1.006581  0.0
H  H14  1  0.62818195  0.97846382  0.83613021  1  0.039212  2.5e-05  0.945486  0.0  0.057329  9e-06  1.006604  0.0  0.056842  -0.0  1.006888  0.0  0.096486  0.057587  2.3e-05  1.006556  0.0
H  H15  1  0.09420861  0.19917415  0.26787146  1  0.078673  0.000119  0.912371  0.0  0.100466  0.000169  0.960681  0.0  0.10119  0.000114  0.961173  0.0  0.09658  0.099903  0.000218  0.960537  0.0
H  H16  1  0.90579547  0.80082773  0.73213872  1  0.078659  9.4e-05  0.912229  0.0  0.1004  0.000169  0.960597  0.0  0.101121  0.000114  0.961094  0.0  0.09653  0.099835  0.000218  0.96045  0.0
H  H17  1  0.82369757  0.06665396  0.22391984  1  0.081799  0.000106  0.943588  0.0  0.096794  0.000127  1.004848  0.0  0.098328  8.4e-05  1.004307  0.0  0.09367  0.095571  0.000169  1.005558  0.0
H  H18  1  0.17628727  0.93335231  0.77607832  1  0.081831  9.8e-05  0.943584  0.0  0.096844  0.000127  1.004753  0.0  0.098393  8.3e-05  1.004195  0.0  0.093714  0.095623  0.000169  1.00546  0.0
H  H19  1  0.95672726  0.20648279  0.08855739  1  0.087015  5e-06  0.968268  0.0  0.106296  -4e-06  1.036874  0.0  0.107169  -4e-06  1.037899  0.0  0.080344  0.105634  -3e-06  1.036239  0.0
H  H20  1  0.04330643  0.79354018  0.91145585  1  0.087087  8e-06  0.968388  0.0  0.10639  -4e-06  1.036954  0.0  0.107251  -4e-06  1.037995  0.0  0.080348  0.105726  -3e-06  1.036319  0.0
H  H21  1  0.64150805  0.23995640  0.12521677  1  0.094923  1e-06  0.970237  0.0  0.11739  6e-06  1.031038  0.0  0.118012  3e-06  1.032059  0.0  0.086598  0.117059  7e-06  1.030126  0.0
H  H22  1  0.35851062  0.76007356  0.87479574  1  0.095157  1.2e-05  0.970197  0.0  0.117557  6e-06  1.031043  0.0  0.118178  3e-06  1.032062  0.0  0.086651  0.117225  7e-06  1.030131  0.0
H  H23  1  0.69906133  0.06336286  0.03973483  1  0.080084  -2e-06  0.976238  0.0  0.101404  -5e-06  1.04225  0.0  0.102452  -5e-06  1.042618  0.0  0.079983  0.100749  -7e-06  1.041817  0.0
H  H24  1  0.30094242  0.93665533  0.96026945  1  0.080122  5e-06  0.976267  0.0  0.101449  -5e-06  1.042267  0.0  0.102495  -5e-06  1.042633  0.0  0.079982  0.100794  -7e-06  1.041835  0.0
H  H25  1  0.28001615  0.79385744  0.54751418  1  0.417995  -0.000602  0.883747  -0.002  0.388497  0.00033  0.947987  0.0  0.401573  5.8e-05  0.929507  -0.001  0.288204  0.379194  0.000573  0.961115  0.0
H  H26  1  0.71997767  0.20613909  0.45248816  1  0.418001  -0.000602  0.883676  -0.002  0.388494  0.00033  0.947986  0.0  0.401573  5.8e-05  0.929503  -0.001  0.28818  0.379193  0.000573  0.961109  0.0
H  H27  1  0.94461772  0.79473011  0.55087808  1  0.421045  -0.000803  0.856697  -0.001  0.394885  0.000136  0.927568  0.0  0.405837  -0.000141  0.911937  0.0  0.300177  0.386978  0.000378  0.938814  0.0
H  H28  1  0.05538967  0.20525040  0.44912083  1  0.421091  -0.000804  0.856632  -0.001  0.394922  0.000135  0.927522  0.0  0.405877  -0.000141  0.911888  0.0  0.30022  0.387013  0.000377  0.938761  0.0
C  C29  1  0.90513082  0.56355823  0.08692783  1  0.047684  0.000208  3.764465  0.0  0.063511  -2.4e-05  3.993598  0.0  0.062872  -4.3e-05  4.016294  0.0  -0.007536  0.063987  -1.7e-05  3.978423  0.0
C  C30  1  0.09484366  0.43644956  0.91306650  1  0.047616  0.000233  3.764327  0.0  0.0634  -2.7e-05  3.993487  0.0  0.062744  -4.3e-05  4.016208  0.0  -0.007654  0.063879  -1.7e-05  3.978311  0.0
C  C31  1  0.80078587  0.62840380  0.17512270  1  0.102728  -0.001388  3.773679  -0.001  0.115219  -0.000776  4.005811  0.0  0.120896  -0.000856  4.026689  0.0  0.000221  0.111443  -0.000773  3.991973  0.0
C  C32  1  0.19922241  0.37160648  0.82487761  1  0.102637  -0.001445  3.773949  -0.001  0.115201  -0.000775  4.005981  0.0  0.120885  -0.000855  4.026856  0.0  0.000263  0.111422  -0.000773  3.992137  0.0
C  C33  1  0.49318494  0.81354081  0.25907473  1  0.302439  -0.002697  3.76236  -0.002  0.280671  -0.001266  4.029308  -0.001  0.29737  -0.001264  4.041679  -0.001  0.101479  0.269164  -0.001285  4.021226  -0.001
C  C34  1  0.50677741  0.18645299  0.74091353  1  0.302468  -0.002731  3.762105  -0.002  0.280597  -0.001266  4.029068  -0.001  0.297304  -0.001266  4.041432  -0.001  0.101359  0.269123  -0.001285  4.02097  -0.001
C  C35  1  0.75702964  0.59337154  0.99489927  1  -0.113295  -6e-06  3.759456  0.0  -0.133774  -9.2e-05  4.008629  0.0  -0.13579  -9.9e-05  4.029307  0.0  -0.093956  -0.132481  -0.000116  3.994689  0.0
C  C36  1  0.24298539  0.40663923  0.00509972  1  -0.113222  -3.8e-05  3.759002  0.0  -0.133672  -9e-05  4.008141  0.0  -0.135681  -0.0001  4.02882  0.0  -0.093853  -0.132384  -0.000116  3.994212  0.0
C  C37  1  0.61459796  0.75317580  0.18109464  1  -0.232339  0.000928  3.704343  0.001  -0.261146  0.000187  3.959844  0.0  -0.269285  0.000211  3.97822  0.0  -0.105092  -0.256223  0.000196  3.94828  0.0
C  C38  1  0.38540016  0.24682320  0.81890863  1  -0.232192  0.000977  3.703999  0.001  -0.261004  0.000188  3.959536  0.0  -0.269131  0.000212  3.977893  0.0  -0.105048  -0.256084  0.000196  3.947971  0.0
C  C39  1  0.15111286  0.46780126  0.08960623  1  -0.109893  -0.000109  3.768512  0.0  -0.130092  -9.6e-05  4.019586  0.0  -0.13246  -9.6e-05  4.041295  0.0  -0.091234  -0.128517  -6.3e-05  4.005094  0.0
C  C40  1  0.84888083  0.53221484  0.91039553  1  -0.109828  -0.000169  3.768705  0.0  -0.130081  -9.2e-05  4.019784  0.0  -0.132442  -9.6e-05  4.041506  0.0  -0.09115  -0.128493  -6.3e-05  4.005268  0.0
C  C41  1  0.56215713  0.74871663  0.33645469  1  -0.209733  0.008773  3.749249  0.011  -0.202538  0.004267  4.014473  0.006  -0.217048  0.002683  4.03509  0.004  -0.037597  -0.192324  0.005591  4.000462  0.007
C  C42  1  0.43781175  0.25126427  0.66353016  1  -0.209812  0.008783  3.749379  0.011  -0.202453  0.004264  4.014458  0.006  -0.217002  0.002684  4.035147  0.004  -0.037389  -0.192232  0.005589  4.000423  0.007
C  C43  1  0.87189490  0.56520068  0.25234579  1  -0.139073  0.001209  3.73778  0.001  -0.160481  0.000505  3.993642  0.001  -0.16738  0.000428  4.015277  0.001  -0.1019  -0.155719  0.000667  3.978709  0.001
C  C44  1  0.12812872  0.43479304  0.74765480  1  -0.138993  0.001259  3.738023  0.001  -0.160394  0.000503  3.993867  0.001  -0.167295  0.000427  4.0155  0.001  -0.101917  -0.15563  0.000667  3.978925  0.001
C  C45  1  0.75338022  0.62486611  0.33036700  1  -0.04612  -0.00047  3.780949  0.0  -0.071209  9.3e-05  4.038345  0.001  -0.066745  -0.000311  4.05705  0.0  -0.086948  -0.073959  0.000409  4.025172  0.001
C  C46  1  0.24660822  0.37513298  0.66962647  1  -0.046314  -0.000525  3.780971  0.0  -0.071459  9.5e-05  4.038404  0.001  -0.066988  -0.000311  4.057109  0.0  -0.087108  -0.07421  0.000408  4.025226  0.001
C  C47  1  0.19410537  0.98219539  0.17678500  1  0.104273  0.000197  3.622147  0.0  0.042648  0.000114  3.89087  0.0  0.051111  4.9e-05  3.89783  0.0  -0.06414  0.036948  0.000189  3.88581  0.0
C  C48  1  0.80589699  0.01779854  0.82322109  1  0.104599  0.000163  3.621679  0.0  0.042747  0.000115  3.890641  0.0  0.051212  5.1e-05  3.897598  0.0  -0.064145  0.037074  0.00019  3.885586  0.0
C  C49  1  0.97597540  0.10622374  0.20039777  1  -0.100866  0.000153  3.709627  0.0  -0.13461  0.000275  3.971691  0.0  -0.135579  0.000178  3.983947  0.0  -0.170029  -0.133825  0.00037  3.96323  0.0
C  C50  1  0.02402996  0.89378135  0.79961259  1  -0.10085  0.000222  3.709408  0.0  -0.134456  0.000274  3.97142  0.0  -0.135433  0.000177  3.983666  0.0  -0.169987  -0.133667  0.000369  3.962946  0.0
C  C51  1  0.43319377  0.80078950  0.42033529  1  0.640722  -0.006876  3.908741  -0.007  0.590773  -0.001027  4.224423  -0.001  0.629153  -0.001229  4.217664  -0.001  0.204775  0.564546  -0.00069  4.227813  -0.001
C  C52  1  0.56680638  0.19919087  0.57965829  1  0.64077  -0.006889  3.908721  -0.007  0.590705  -0.001029  4.224524  -0.001  0.629089  -0.001231  4.217755  -0.001  0.204703  0.564475  -0.000691  4.227906  -0.001
C  C53  1  0.81009804  0.15657260  0.10852275  1  -0.286524  -8e-06  3.737868  0.0  -0.362241  6e-06  3.986503  0.0  -0.3648  2e-06  3.998291  0.0  -0.24797  -0.36024  1.9e-05  3.978231  0.0
C  C54  1  0.18992749  0.84344423  0.89149078  1  -0.286911  -7.5e-05  3.738113  0.0  -0.362644  6e-06  3.986718  0.0  -0.365192  3e-06  3.998505  0.0  -0.248054  -0.360646  1.9e-05  3.978451  0.0
O  O55  1  0.31093445  0.93310202  0.26355772  1  -0.251962  0.00158  2.360416  0.002  -0.175619  0.000607  2.596248  0.001  -0.195071  0.000179  2.600204  0.0  -0.164485  -0.16181  0.001149  2.592914  0.001
O  O56  1  0.68904315  0.06688627  0.73642986  1  -0.252251  0.00157  2.359887  0.002  -0.175688  0.000608  2.595624  0.001  -0.195134  0.00018  2.599572  0.0  -0.164435  -0.161956  0.001149  2.592346  0.001
O  O57  1  0.22346356  0.89726813  0.41214903  1  -0.584962  0.095194  2.153397  0.131  -0.572388  0.053728  2.467967  0.082  -0.618017  0.038195  2.462149  0.063  -0.322508  -0.539876  0.064812  2.471555  0.093
O  O58  1  0.77653095  0.10272101  0.58784559  1  -0.585007  0.095174  2.153722  0.131  -0.572346  0.053713  2.468243  0.082  -0.617998  0.038186  2.462495  0.063  -0.322508  -0.539858  0.064797  2.471883  0.093
O  O59  1  0.53435373  0.74758746  0.49311273  1  -0.632389  -0.000975  1.943967  0.001  -0.57832  -0.001219  2.155855  0.0  -0.603213  -0.001958  2.143284  -0.001  -0.323079  -0.560939  -0.000409  2.163792  0.001
O  O60  1  0.46567157  0.25240569  0.50687900  1  -0.63246  -0.000967  1.943631  0.001  -0.578369  -0.001216  2.155568  0.0  -0.603258  -0.001957  2.14299  -0.001  -0.323117  -0.560991  -0.000407  2.163509  0.001
O  O61  1  0.12220312  0.85431439  0.57503772  1  -0.780381  0.06452  1.940495  0.086  -0.741881  0.051369  2.154591  0.074  -0.773997  0.039822  2.118407  0.063  -0.563751  -0.71974  0.058538  2.181139  0.079
O  O62  1  0.87778948  0.14566867  0.42495731  1  -0.780449  0.064542  1.940293  0.086  -0.74191  0.051382  2.154452  0.074  -0.774036  0.039831  2.118257  0.063  -0.563804  -0.719766  0.058553  2.180981  0.079
