# generated using pymatgen
data_Gd2H18(C3O8)3
_symmetry_space_group_name_H-M   'P 1'
_cell_length_a   8.80888599
_cell_length_b   8.80891833
_cell_length_c   8.80890281
_cell_angle_alpha   66.24645953
_cell_angle_beta   66.24622827
_cell_angle_gamma   66.24617758
_symmetry_Int_Tables_number   1
_chemical_formula_structural   Gd2H18(C3O8)3
_chemical_formula_sum   'Gd2 H18 C9 O24'
_cell_volume   548.52073823
_cell_formula_units_Z   1
loop_
 _symmetry_equiv_pos_site_id
 _symmetry_equiv_pos_as_xyz
  1  'x, y, z'
loop_
 _atom_site_type_symbol
 _atom_site_label
 _atom_site_symmetry_multiplicity
 _atom_site_fract_x
 _atom_site_fract_y
 _atom_site_fract_z
 _atom_site_occupancy
 _atom_site_hle17_bader_spin_density
 _atom_site_hle17_ddec_charge
 _atom_site_hle17_ddec_spin_density
 _atom_site_hle17_ddec_sum_bond_order
 _atom_site_hle17_magmom
 _atom_site_hse06_10hf_bader_spin_density
 _atom_site_hse06_10hf_ddec_charge
 _atom_site_hse06_10hf_ddec_spin_density
 _atom_site_hse06_10hf_ddec_sum_bond_order
 _atom_site_hse06_10hf_magmom
 _atom_site_hse06_bader_spin_density
 _atom_site_hse06_ddec_charge
 _atom_site_hse06_ddec_spin_density
 _atom_site_hse06_ddec_sum_bond_order
 _atom_site_hse06_magmom
 _atom_site_pbe_bader_spin_density
 _atom_site_pbe_cm5_charge
 _atom_site_pbe_ddec_charge
 _atom_site_pbe_ddec_spin_density
 _atom_site_pbe_ddec_sum_bond_order
 _atom_site_pbe_magmom
Gd  Gd0  1  0.73175741  0.73175415  0.73175493  1  0  2.217491  0  1.769387  0  0  2.12665  0  2.111128  0  0  2.168268  0  2.070456  0  0  1.463403  2.0918  0  2.148055  0
Gd  Gd1  1  0.26824461  0.26824637  0.26824452  1  0  2.217414  0  1.769489  0  0  2.126582  0  2.111209  0  0  2.168194  0  2.070544  0  0  1.463356  2.091746  0  2.148118  0
H  H2  1  0.68934740  0.82477939  0.05028514  1  0  0.418293  0  0.876175  0  0  0.384235  0  0.954558  0  0  0.396712  0  0.936608  0  0  0.308851  0.375448  0  0.967182  0
H  H3  1  0.05028540  0.68934853  0.82477942  1  0  0.418297  0  0.876184  0  0  0.384242  0  0.95455  0  0  0.396718  0  0.9366  0  0  0.308852  0.375455  0  0.967173  0
H  H4  1  0.82477895  0.05028319  0.68934586  1  0  0.418352  0  0.876107  0  0  0.384302  0  0.954465  0  0  0.396779  0  0.936513  0  0  0.308882  0.375516  0  0.967087  0
H  H5  1  0.94971368  0.17521911  0.31065126  1  0  0.418336  0  0.876115  0  0  0.384262  0  0.954522  0  0  0.396738  0  0.936573  0  0  0.308853  0.375473  0  0.967147  0
H  H6  1  0.17521981  0.31065312  0.94971672  1  0  0.418317  0  0.87614  0  0  0.384267  0  0.954511  0  0  0.396743  0  0.936562  0  0  0.308866  0.375479  0  0.967135  0
H  H7  1  0.31065126  0.94971689  0.17522091  1  0  0.418322  0  0.876137  0  0  0.384266  0  0.954515  0  0  0.396742  0  0.936567  0  0  0.308864  0.37548  0  0.967136  0
H  H8  1  0.72389131  0.78370402  0.36156354  1  0  0.447435  0  0.84695  0  0  0.415219  0  0.909985  0  0  0.427023  0  0.892722  0  0  0.300989  0.406838  0  0.922231  0
H  H9  1  0.36156414  0.72389270  0.78370364  1  0  0.447415  0  0.846964  0  0  0.415202  0  0.909997  0  0  0.427006  0  0.892734  0  0  0.300982  0.406822  0  0.922241  0
H  H10  1  0.78370254  0.36156492  0.72389303  1  0  0.447435  0  0.846948  0  0  0.415223  0  0.90998  0  0  0.427026  0  0.892717  0  0  0.300987  0.406843  0  0.922223  0
H  H11  1  0.63843615  0.21629665  0.27610799  1  0  0.447423  0  0.846965  0  0  0.415213  0  0.909991  0  0  0.427016  0  0.89273  0  0  0.30099  0.406832  0  0.922236  0
H  H12  1  0.21629492  0.27610913  0.63843724  1  0  0.447434  0  0.846947  0  0  0.415225  0  0.909973  0  0  0.427027  0  0.892711  0  0  0.300998  0.406844  0  0.922217  0
H  H13  1  0.27610793  0.63843540  0.21629601  1  0  0.447442  0  0.84694  0  0  0.415226  0  0.909979  0  0  0.427028  0  0.892718  0  0  0.300994  0.406846  0  0.922222  0
H  H14  1  0.54073458  0.87455152  0.47519987  1  0  0.442145  0  0.847354  0  0  0.414297  0  0.906237  0  0  0.424608  0  0.890887  0  0  0.311696  0.406937  0  0.917197  0
H  H15  1  0.47519746  0.54073758  0.87455067  1  0  0.442094  0  0.847418  0  0  0.414244  0  0.906315  0  0  0.424557  0  0.890961  0  0  0.311683  0.406884  0  0.917275  0
H  H16  1  0.87455011  0.47519812  0.54073536  1  0  0.442147  0  0.847328  0  0  0.414297  0  0.906237  0  0  0.42461  0  0.890883  0  0  0.311705  0.406937  0  0.917198  0
H  H17  1  0.52480082  0.12545138  0.45926450  1  0  0.442226  0  0.847247  0  0  0.414355  0  0.906176  0  0  0.424669  0  0.890818  0  0  0.311729  0.406994  0  0.917138  0
H  H18  1  0.12545275  0.45926419  0.52480087  1  0  0.442221  0  0.84724  0  0  0.414358  0  0.90617  0  0  0.424672  0  0.890811  0  0  0.311739  0.406997  0  0.917132  0
H  H19  1  0.45926501  0.52480005  0.12544983  1  0  0.442132  0  0.847377  0  0  0.414282  0  0.906258  0  0  0.424594  0  0.890906  0  0  0.311694  0.406922  0  0.917218  0
C  C20  1  0.49999818  0.03626934  0.96373177  1  0  0.321942  0  3.68738  0  0  0.303107  0  3.949432  0  0  0.310018  0  3.951862  0  0  0.158562  0.297896  0  3.947571  0
C  C21  1  0.96373054  0.50000139  0.03627068  1  0  0.321807  0  3.687494  0  0  0.302985  0  3.949536  0  0  0.309891  0  3.951968  0  0  0.158578  0.297776  0  3.947674  0
C  C22  1  0.03627121  0.96373004  0.49999683  1  0  0.321814  0  3.687654  0  0  0.303015  0  3.949651  0  0  0.309918  0  3.952092  0  0  0.158595  0.297808  0  3.947782  0
C  C23  1  0.41762471  0.08557578  0.81638074  1  0  0.622185  0  3.811636  0  0  0.564887  0  4.115154  0  0  0.597394  0  4.107845  0  0  0.234693  0.542885  0  4.119367  0
C  C24  1  0.81637933  0.41762720  0.08557372  1  0  0.622173  0  3.811414  0  0  0.564878  0  4.114933  0  0  0.597386  0  4.107621  0  0  0.234704  0.542875  0  4.119147  0
C  C25  1  0.08558180  0.81637485  0.41762599  1  0  0.622208  0  3.811598  0  0  0.564948  0  4.115041  0  0  0.597456  0  4.107735  0  0  0.234727  0.542951  0  4.119251  0
C  C26  1  0.18361950  0.91442468  0.58237154  1  0  0.622252  0  3.811472  0  0  0.564961  0  4.114969  0  0  0.59747  0  4.107659  0  0  0.234716  0.542962  0  4.119182  0
C  C27  1  0.91442397  0.58237490  0.18362076  1  0  0.62224  0  3.811619  0  0  0.564941  0  4.115138  0  0  0.59745  0  4.107826  0  0  0.234695  0.542939  0  4.119352  0
C  C28  1  0.58237167  0.18362023  0.91442467  1  0  0.622142  0  3.811452  0  0  0.564847  0  4.114984  0  0  0.597354  0  4.107677  0  0  0.234682  0.54285  0  4.119195  0
O  O29  1  0.62121929  0.87351025  0.96212554  1  0  -0.688732  0  2.242053  0  0  -0.648826  0  2.480584  0  0  -0.665322  0  2.463454  0  0  -0.43213  -0.636449  0  2.492088  0
O  O30  1  0.96212535  0.62121982  0.87351164  1  0  -0.688737  0  2.242086  0  0  -0.648841  0  2.480609  0  0  -0.665332  0  2.463475  0  0  -0.432166  -0.636464  0  2.492112  0
O  O31  1  0.87351089  0.96212284  0.62121765  1  0  -0.688755  0  2.242115  0  0  -0.648869  0  2.480628  0  0  -0.66536  0  2.463495  0  0  -0.432163  -0.636493  0  2.49213  0
O  O32  1  0.03787525  0.12649003  0.37877764  1  0  -0.688744  0  2.242101  0  0  -0.648847  0  2.480641  0  0  -0.665338  0  2.46351  0  0  -0.432145  -0.636474  0  2.492147  0
O  O33  1  0.12649157  0.37878171  0.03787520  1  0  -0.688708  0  2.242103  0  0  -0.648809  0  2.480619  0  0  -0.665299  0  2.463488  0  0  -0.432142  -0.636435  0  2.492125  0
O  O34  1  0.37878036  0.03787558  0.12649254  1  0  -0.688756  0  2.242086  0  0  -0.648842  0  2.480601  0  0  -0.665336  0  2.46347  0  0  -0.432128  -0.636467  0  2.492103  0
O  O35  1  0.66386995  0.81944016  0.47033945  1  0  -0.926657  0  1.910546  0  0  -0.887114  0  2.10495  0  0  -0.905372  0  2.07039  0  0  -0.662972  -0.873499  0  2.129076  0
O  O36  1  0.47033910  0.66387068  0.81944254  1  0  -0.926618  0  1.910617  0  0  -0.887069  0  2.105001  0  0  -0.905337  0  2.070459  0  0  -0.66297  -0.873453  0  2.129127  0
O  O37  1  0.81943970  0.47033915  0.66386962  1  0  -0.926673  0  1.910552  0  0  -0.887119  0  2.104944  0  0  -0.905385  0  2.070401  0  0  -0.662975  -0.873503  0  2.12907  0
O  O38  1  0.52966094  0.18055974  0.33613065  1  0  -0.926714  0  1.91048  0  0  -0.887164  0  2.104862  0  0  -0.905426  0  2.070308  0  0  -0.662992  -0.873551  0  2.128989  0
O  O39  1  0.18055857  0.33612963  0.52966187  1  0  -0.926733  0  1.910475  0  0  -0.887171  0  2.104843  0  0  -0.905442  0  2.070311  0  0  -0.663013  -0.873559  0  2.128969  0
O  O40  1  0.33612987  0.52965958  0.18056072  1  0  -0.926633  0  1.910565  0  0  -0.887087  0  2.104958  0  0  -0.90534  0  2.070394  0  0  -0.662959  -0.873473  0  2.129079  0
O  O41  1  0.50580246  0.01038355  0.69901386  1  0  -0.653558  0  2.076078  0  0  -0.60472  0  2.318139  0  0  -0.629394  0  2.308683  0  0  -0.34917  -0.587025  0  2.32398  0
O  O42  1  0.69901333  0.50580616  0.01038337  1  0  -0.653463  0  2.075942  0  0  -0.604643  0  2.318003  0  0  -0.629319  0  2.308555  0  0  -0.349184  -0.58695  0  2.323845  0
O  O43  1  0.01038778  0.69901260  0.50580277  1  0  -0.653517  0  2.076003  0  0  -0.604741  0  2.318102  0  0  -0.62941  0  2.308635  0  0  -0.349203  -0.587046  0  2.32394  0
O  O44  1  0.30098498  0.98961497  0.49419605  1  0  -0.653521  0  2.075954  0  0  -0.604719  0  2.318035  0  0  -0.629383  0  2.308565  0  0  -0.349201  -0.587028  0  2.323876  0
O  O45  1  0.98961248  0.49419478  0.30098991  1  0  -0.653513  0  2.076058  0  0  -0.604707  0  2.318127  0  0  -0.629386  0  2.308691  0  0  -0.349176  -0.587013  0  2.323968  0
O  O46  1  0.49419585  0.30098688  0.98961485  1  0  -0.65346  0  2.075982  0  0  -0.604665  0  2.318086  0  0  -0.629329  0  2.308611  0  0  -0.34916  -0.586973  0  2.323924  0
O  O47  1  0.27419089  0.20203249  0.81884458  1  0  -0.561255  0  2.012901  0  0  -0.498416  0  2.216471  0  0  -0.523415  0  2.204659  0  0  -0.279028  -0.481349  0  2.224437  0
O  O48  1  0.81884413  0.27419296  0.20203188  1  0  -0.561276  0  2.012818  0  0  -0.498424  0  2.216394  0  0  -0.523423  0  2.204578  0  0  -0.279038  -0.481354  0  2.224359  0
O  O49  1  0.20203540  0.81884489  0.27418668  1  0  -0.561256  0  2.012883  0  0  -0.498421  0  2.216431  0  0  -0.523416  0  2.204613  0  0  -0.279032  -0.481365  0  2.224402  0
O  O50  1  0.18115768  0.79796455  0.72580664  1  0  -0.561286  0  2.012776  0  0  -0.49844  0  2.216334  0  0  -0.523442  0  2.204519  0  0  -0.279046  -0.481378  0  2.224304  0
O  O51  1  0.79796504  0.72580949  0.18115551  1  0  -0.561288  0  2.012894  0  0  -0.498419  0  2.216444  0  0  -0.523419  0  2.20463  0  0  -0.279014  -0.481354  0  2.224411  0
O  O52  1  0.72580830  0.18115585  0.79796408  1  0  -0.561282  0  2.012792  0  0  -0.498442  0  2.216367  0  0  -0.52344  0  2.204551  0  0  -0.279058  -0.481382  0  2.224336  0
