# generated using pymatgen
data_CuH15C23(N2O3)2
_symmetry_space_group_name_H-M   'P 1'
_cell_length_a   9.02223683
_cell_length_b   9.00334830
_cell_length_c   13.38678610
_cell_angle_alpha   101.97263219
_cell_angle_beta   101.43898400
_cell_angle_gamma   106.18065247
_symmetry_Int_Tables_number   1
_chemical_formula_structural   CuH15C23(N2O3)2
_chemical_formula_sum   'Cu2 H30 C46 N8 O12'
_cell_volume   982.92148745
_cell_formula_units_Z   2
loop_
 _symmetry_equiv_pos_site_id
 _symmetry_equiv_pos_as_xyz
  1  'x, y, z'
loop_
 _atom_site_type_symbol
 _atom_site_label
 _atom_site_symmetry_multiplicity
 _atom_site_fract_x
 _atom_site_fract_y
 _atom_site_fract_z
 _atom_site_occupancy
 _atom_site_pbe_cm5_charge
 _atom_site_pbe_ddec_charge
 _atom_site_pbe_ddec_spin_density
 _atom_site_pbe_ddec_sum_bond_order
 _atom_site_pbe_magmom
Cu  Cu0  1  0.50000085  0.00000063  0.49999999  1  0.74483  0.738435  -0.720301  2.235372  -0.558
Cu  Cu1  1  0.00000031  0.00000012  0.50000005  1  0.754993  0.853062  -0.735078  2.176527  -0.574
H  H2  1  0.66884642  0.73481805  0.43559510  1  0.12352  0.095929  -0.000851  1.001681  -0.001
H  H3  1  0.33115429  0.26518749  0.56440648  1  0.123494  0.095893  -0.000851  1.001699  -0.001
H  H4  1  0.54841352  0.46242008  0.30425717  1  0.111063  0.11725  -0.000637  0.994927  -0.001
H  H5  1  0.45157968  0.53759029  0.69574041  1  0.111072  0.117279  -0.000637  0.994886  -0.001
H  H6  1  0.70467504  0.36957190  0.18537330  1  0.115215  0.120588  -0.000137  1.013283  0.0
H  H7  1  0.29532075  0.63043245  0.81462750  1  0.115244  0.120642  -0.000137  1.013259  0.0
H  H8  1  0.06673148  0.83972667  0.31828566  1  0.124438  0.102307  -0.001103  1.02507  -0.002
H  H9  1  0.93327252  0.16027165  0.68171831  1  0.12443  0.102314  -0.001102  1.025053  -0.002
H  H10  1  0.86953374  0.16181593  0.95605518  1  0.101336  0.105448  4.6e-05  1.056987  0.0
H  H11  1  0.13046188  0.83818119  0.04394458  1  0.10132  0.10542  4.6e-05  1.057036  0.0
H  H12  1  0.02661593  0.03327531  0.85642993  1  0.104478  0.115281  2.2e-05  1.022419  0.0
H  H13  1  0.97338312  0.96672180  0.14357176  1  0.104488  0.115298  2.2e-05  1.022368  0.0
H  H14  1  0.46119133  0.40831635  0.05229009  1  0.101336  0.113371  1e-05  1.041027  0.0
H  H15  1  0.53880510  0.59168318  0.94771011  1  0.101328  0.113344  1e-05  1.041018  0.0
H  H16  1  0.30311667  0.53795188  0.14978975  1  0.102432  0.120162  -1.1e-05  1.047372  0.0
H  H17  1  0.69688054  0.46205005  0.85020939  1  0.102443  0.120157  -1.1e-05  1.047365  0.0
H  H18  1  0.44451111  0.14664386  0.70330686  1  0.120928  0.087173  -0.001046  1.016798  -0.002
H  H19  1  0.55550288  0.85336766  0.29669571  1  0.120951  0.087132  -0.001046  1.016738  -0.002
H  H20  1  0.65484434  0.93577708  0.93007114  1  0.10996  0.10351  -5.6e-05  1.047571  0.0
H  H21  1  0.34514610  0.06420799  0.06992555  1  0.109999  0.103561  -5.6e-05  1.047487  0.0
H  H22  1  0.75281361  0.79494067  0.78774208  1  0.110283  0.118068  -0.000571  1.00049  -0.001
H  H23  1  0.24718079  0.20505283  0.21225628  1  0.110276  0.118063  -0.000571  1.00052  -0.001
H  H24  1  0.69393957  0.84387135  0.60933276  1  0.11912  0.092846  -0.00105  1.02975  -0.002
H  H25  1  0.30606943  0.15613536  0.39066927  1  0.119133  0.092773  -0.00105  1.029804  -0.002
H  H26  1  0.81812280  0.52723945  0.61432627  1  0.106771  0.119625  -0.000514  0.987804  0.0
H  H27  1  0.18187453  0.47275283  0.38567004  1  0.106768  0.119653  -0.000514  0.987824  0.0
H  H28  1  0.85634898  0.35371046  0.08579912  1  0.317183  0.285275  1.8e-05  0.953158  0.0
H  H29  1  0.14364672  0.64629387  0.91419792  1  0.317214  0.285302  1.8e-05  0.953085  0.0
H  H30  1  0.26138156  0.03695360  0.82234924  1  0.300038  0.281406  1.7e-05  1.005015  0.0
H  H31  1  0.73862965  0.96304591  0.17765728  1  0.300007  0.281437  1.7e-05  1.004999  0.0
C  C32  1  0.72972940  0.69444910  0.37820450  1  0.052554  0.092537  8.9e-05  3.923962  -0.001
C  C33  1  0.27026861  0.30555524  0.62179507  1  0.052525  0.092523  8.9e-05  3.924038  -0.001
C  C34  1  0.66442499  0.54261362  0.30533277  1  -0.07661  -0.111825  -0.003773  3.93765  -0.004
C  C35  1  0.33557533  0.45739073  0.69466934  1  -0.076631  -0.111891  -0.003773  3.937669  -0.004
C  C36  1  0.75170264  0.49183543  0.23801456  1  -0.052016  -0.037986  0.003588  3.891061  0.002
C  C37  1  0.24829239  0.50817013  0.76198481  1  -0.052001  -0.037973  0.003587  3.891097  0.002
C  C38  1  0.90038319  0.59924919  0.24273272  1  -0.00487  -0.067364  -0.003981  3.953377  -0.005
C  C39  1  0.09961590  0.40075153  0.75726798  1  -0.004857  -0.06738  -0.00398  3.953437  -0.005
C  C40  1  0.95283310  0.75290292  0.31397114  1  0.057277  0.081308  0.001465  3.901245  0.001
C  C41  1  0.04716712  0.24709780  0.68602970  1  0.057272  0.081289  0.001465  3.90128  0.001
C  C42  1  0.02268223  0.56323918  0.18908063  1  0.240196  0.468518  -0.000461  4.130574  0.0
C  C43  1  0.97731380  0.43675914  0.81091935  1  0.240202  0.468565  -0.00046  4.130428  0.0
C  C44  1  0.07505335  0.35737266  0.06051589  1  0.091842  0.230861  -0.000277  4.018238  0.0
C  C45  1  0.92493891  0.64262448  0.93948420  1  0.091814  0.230867  -0.000277  4.01827  0.0
C  C46  1  0.99947894  0.21466292  0.97745618  1  -0.097439  -0.164199  2.8e-05  3.989554  0.0
C  C47  1  0.00051741  0.78533299  0.02254350  1  -0.097426  -0.164177  2.8e-05  3.989651  0.0
C  C48  1  0.08710471  0.14309804  0.92162568  1  -0.094291  -0.163835  -0.000103  3.978755  0.0
C  C49  1  0.91289353  0.85689667  0.07837557  1  -0.094295  -0.163831  -0.000103  3.978802  0.0
C  C50  1  0.25495589  0.21192528  0.94778278  1  0.082863  0.21587  -6.1e-05  4.042247  0.0
C  C51  1  0.74504193  0.78806822  0.05221750  1  0.082886  0.215867  -6.1e-05  4.042338  0.0
C  C52  1  0.33153694  0.35420219  0.03089896  1  -0.099848  -0.171352  -1.7e-05  3.995432  0.0
C  C53  1  0.66845675  0.64579252  0.96910023  1  -0.099802  -0.171345  -1.7e-05  3.995452  0.0
C  C54  1  0.24307694  0.42662553  0.08666144  1  -0.101964  -0.176666  -0.00016  3.982966  0.0
C  C55  1  0.75691682  0.57337280  0.91333752  1  -0.102007  -0.176652  -0.000159  3.983085  0.0
C  C56  1  0.49360460  0.14643783  0.91347303  1  0.245901  0.488897  -0.000689  4.108091  -0.001
C  C57  1  0.50640303  0.85357492  0.08652967  1  0.245808  0.488766  -0.00069  4.108107  -0.001
C  C58  1  0.51258517  0.07039930  0.72558109  1  0.065937  0.100974  0.001038  3.873989  0.001
C  C59  1  0.48742235  0.92960623  0.27442283  1  0.066001  0.101174  0.001038  3.873688  0.001
C  C60  1  0.54306623  0.05246744  0.82786061  1  -0.002042  -0.063651  -0.003991  3.959807  -0.005
C  C61  1  0.45694325  0.94754050  0.17214464  1  -0.002098  -0.063753  -0.003991  3.959814  -0.005
C  C62  1  0.63051968  0.95224786  0.85109148  1  -0.056173  -0.039432  0.003879  3.92776  0.002
C  C63  1  0.36947933  0.04774925  0.14890870  1  -0.056195  -0.039459  0.003879  3.927851  0.002
C  C64  1  0.68453713  0.87413371  0.77224124  1  -0.076636  -0.114962  -0.003852  3.946563  -0.004
C  C65  1  0.31546226  0.12586459  0.22775767  1  -0.076635  -0.11497  -0.003852  3.946544  -0.004
C  C66  1  0.65071779  0.89956076  0.67246759  1  0.055808  0.104564  0.001909  3.905483  0.001
C  C67  1  0.34928815  0.10044355  0.32753372  1  0.05581  0.104684  0.00191  3.905475  0.001
C  C68  1  0.95359063  0.18915851  0.35575182  1  0.209238  0.599212  -0.003693  4.205957  -0.002
C  C69  1  0.04640864  0.81083617  0.64424507  1  0.209234  0.599362  -0.003694  4.205897  -0.002
C  C70  1  0.74942199  0.22139538  0.50273789  1  0.194012  0.568883  0.003593  4.196224  0.004
C  C71  1  0.25057738  0.77860291  0.49726026  1  0.194046  0.568975  0.003593  4.196249  0.004
C  C72  1  0.97778958  0.34743327  0.43334050  1  -0.010867  -0.045106  0.000217  3.955324  0.0
C  C73  1  0.02221143  0.65255657  0.56665444  1  -0.010945  -0.045426  0.000218  3.955778  0.0
C  C74  1  0.87587676  0.36538046  0.49873538  1  -0.013634  -0.045794  -0.005327  3.964141  -0.006
C  C75  1  0.12412507  0.63461179  0.50126074  1  -0.013579  -0.045746  -0.005327  3.964528  -0.006
C  C76  1  0.89796358  0.51730429  0.56377344  1  -0.082954  -0.121297  -0.000689  3.956812  0.0
C  C77  1  0.10203674  0.48268677  0.43622307  1  -0.08295  -0.121422  -0.000689  3.957113  0.0
N  N78  1  0.87274411  0.79786670  0.38218806  1  -0.344859  -0.22828  -0.054446  3.613323  -0.07
N  N79  1  0.12725807  0.20213643  0.61781411  1  -0.344847  -0.228274  -0.054441  3.613326  -0.07
N  N80  1  0.56652953  0.99606441  0.65013396  1  -0.346109  -0.207933  -0.057096  3.614762  -0.074
N  N81  1  0.43347837  0.00394232  0.34986943  1  -0.346161  -0.20801  -0.057099  3.614736  -0.074
N  N82  1  0.97568026  0.42056367  0.11228415  1  -0.387404  -0.361169  -0.000539  3.574123  -0.001
N  N83  1  0.02431543  0.57943707  0.88771538  1  -0.387415  -0.361184  -0.000539  3.573951  -0.001
N  N84  1  0.33599649  0.13379807  0.88676147  1  -0.392925  -0.379632  -8.4e-05  3.564912  0.0
N  N85  1  0.66400790  0.86619785  0.11324519  1  -0.392934  -0.379675  -8.4e-05  3.564983  0.0
O  O86  1  0.62549384  0.23982485  0.52995466  1  -0.323021  -0.525682  -0.071407  2.228524  -0.099
O  O87  1  0.37450558  0.76017706  0.47004251  1  -0.323064  -0.525703  -0.071401  2.228523  -0.099
O  O88  1  0.76673718  0.08416461  0.47861588  1  -0.323593  -0.613088  -0.000154  2.334382  -0.004
O  O89  1  0.23325689  0.91583131  0.52138277  1  -0.323583  -0.613137  -0.000153  2.334488  -0.004
O  O90  1  0.04145079  0.10549077  0.38364562  1  -0.337863  -0.592299  -0.04827  2.362246  -0.066
O  O91  1  0.95854420  0.89449790  0.61634990  1  -0.337807  -0.592294  -0.048266  2.362205  -0.066
O  O92  1  0.85858866  0.15487963  0.26555760  1  -0.308521  -0.52367  -0.021562  2.12738  -0.029
O  O93  1  0.14141374  0.84512106  0.73443978  1  -0.308543  -0.523698  -0.021564  2.127249  -0.029
O  O94  1  0.16178674  0.66006736  0.21909335  1  -0.284633  -0.469873  -0.000599  2.165955  -0.001
O  O95  1  0.83821194  0.33992857  0.78090962  1  -0.28462  -0.469885  -0.000599  2.16591  -0.001
O  O96  1  0.59381431  0.22745927  0.00000672  1  -0.295362  -0.500395  -0.001029  2.125344  -0.001
O  O97  1  0.40619609  0.77256548  0.99999203  1  -0.295287  -0.500323  -0.001029  2.125325  -0.001
