# generated using pymatgen
data_CoH20C26S2(NO2)2
_symmetry_space_group_name_H-M   'P 1'
_cell_length_a   11.01246676
_cell_length_b   11.10273848
_cell_length_c   11.69106285
_cell_angle_alpha   62.94134128
_cell_angle_beta   79.16939894
_cell_angle_gamma   77.39341774
_symmetry_Int_Tables_number   1
_chemical_formula_structural   CoH20C26S2(NO2)2
_chemical_formula_sum   'Co2 H40 C52 S4 N4 O8'
_cell_volume   1235.81825087
_cell_formula_units_Z   2
loop_
 _symmetry_equiv_pos_site_id
 _symmetry_equiv_pos_as_xyz
  1  'x, y, z'
loop_
 _atom_site_type_symbol
 _atom_site_label
 _atom_site_symmetry_multiplicity
 _atom_site_fract_x
 _atom_site_fract_y
 _atom_site_fract_z
 _atom_site_occupancy
 _atom_site_hle17_ddec_charge
 _atom_site_hle17_ddec_spin_density
 _atom_site_hle17_ddec_sum_bond_order
 _atom_site_hle17_magmom
 _atom_site_hse06_10hf_ddec_charge
 _atom_site_hse06_10hf_ddec_spin_density
 _atom_site_hse06_10hf_ddec_sum_bond_order
 _atom_site_hse06_10hf_magmom
 _atom_site_hse06_ddec_charge
 _atom_site_hse06_ddec_spin_density
 _atom_site_hse06_ddec_sum_bond_order
 _atom_site_hse06_magmom
 _atom_site_pbe_cm5_charge
 _atom_site_pbe_ddec_charge
 _atom_site_pbe_ddec_spin_density
 _atom_site_pbe_ddec_sum_bond_order
 _atom_site_pbe_magmom
Co  Co0  1  0.80888714  0.21878455  0.33831924  1  0.892884  -2.867042  2.013169  -2.548  0.845413  -2.842459  2.434594  -2.612  0.936571  -2.881499  2.350133  -2.694  0.660186  0.777653  -2.808958  2.496227  -2.538
Co  Co1  1  0.19111763  0.78121773  0.66167483  1  0.892963  -2.867047  2.01305  -2.548  0.845463  -2.842459  2.43453  -2.612  0.936683  -2.881506  2.350004  -2.695  0.660171  0.777688  -2.808963  2.496192  -2.538
H  H2  1  0.75040319  0.42984591  0.43157577  1  0.078751  -0.000594  0.963846  -0.002  0.083539  -0.000558  1.035763  -0.001  0.086271  -0.000388  1.03286  -0.001  0.114122  0.081494  -0.000694  1.038232  -0.001
H  H3  1  0.24959797  0.57014823  0.56842753  1  0.07873  -0.000592  0.963765  -0.002  0.083511  -0.000558  1.035707  -0.001  0.086246  -0.000388  1.032797  -0.001  0.114109  0.081461  -0.000694  1.038185  -0.001
H  H4  1  0.59210242  0.63252102  0.41382380  1  0.11769  -0.00015  0.924469  0.0  0.133253  -0.000305  0.971477  0.0  0.136594  -0.000204  0.970885  0.0  0.112741  0.130929  -0.000415  0.971946  0.0
H  H5  1  0.40790082  0.36747102  0.58618518  1  0.117767  -0.000151  0.924374  0.0  0.133303  -0.000305  0.971408  0.0  0.136644  -0.000203  0.970815  0.0  0.112755  0.130978  -0.000415  0.971879  0.0
H  H6  1  0.41640132  0.55728450  0.15449509  1  0.107151  -0.000111  0.985998  0.0  0.117107  -0.000261  1.047055  0.0  0.119926  -0.000189  1.047208  0.0  0.103884  0.114768  -0.000369  1.047671  0.0
H  H7  1  0.58360382  0.44272184  0.84550318  1  0.107212  -0.000112  0.986022  0.0  0.117168  -0.000261  1.047055  0.0  0.119989  -0.000189  1.047208  0.0  0.103895  0.114827  -0.000369  1.047675  0.0
H  H8  1  0.58072022  0.35729239  0.18632195  1  0.090545  -0.000367  0.953981  -0.002  0.097677  -0.000191  1.019137  -0.001  0.101071  -9.1e-05  1.015087  -0.001  0.116352  0.095054  -0.000319  1.022424  -0.001
H  H9  1  0.41928308  0.64271398  0.81367491  1  0.090582  -0.000368  0.953918  -0.002  0.097642  -0.000191  1.019143  -0.001  0.101031  -9.1e-05  1.015095  -0.001  0.116357  0.095019  -0.000319  1.022431  -0.001
H  H10  1  0.22422425  0.88127302  0.13832498  1  0.113753  7.1e-05  0.924335  0.0  0.132081  6.8e-05  0.981545  0.0  0.132743  4.6e-05  0.982903  0.0  0.107336  0.131282  4.9e-05  0.981193  0.0
H  H11  1  0.77578211  0.11872413  0.86167187  1  0.1137  6.9e-05  0.924281  0.0  0.132014  6.8e-05  0.981535  0.0  0.132671  4.5e-05  0.982907  0.0  0.107284  0.131217  4.9e-05  0.981186  0.0
H  H12  1  0.34274788  0.79855817  0.06326437  1  0.100968  5e-05  0.948719  0.0  0.113548  -1e-05  1.015636  0.0  0.114854  -5e-06  1.015407  0.0  0.100111  0.112722  7.7e-05  1.015549  0.0
H  H13  1  0.65725844  0.20143896  0.93673678  1  0.100945  4.9e-05  0.948711  0.0  0.113544  -1.1e-05  1.015638  0.0  0.114852  -6e-06  1.01541  0.0  0.100115  0.112718  7.7e-05  1.015554  0.0
H  H14  1  0.15579599  0.63293894  0.38811659  1  0.091016  7.3e-05  0.97327  0.0  0.099115  3.2e-05  1.04061  0.0  0.102546  3.9e-05  1.038677  0.0  0.094814  0.096686  3.5e-05  1.042264  0.0
H  H15  1  0.84420387  0.36706543  0.61188085  1  0.090986  6.6e-05  0.973278  0.0  0.099123  3.1e-05  1.040581  0.0  0.102554  3.9e-05  1.038647  0.0  0.094809  0.096693  3.5e-05  1.042231  0.0
H  H16  1  0.03045523  0.44955578  0.43632681  1  0.095801  -0.000158  0.962206  0.0  0.106858  -0.000152  1.022442  0.0  0.110109  -9.1e-05  1.020047  0.0  0.102301  0.104448  -0.00022  1.024191  0.0
H  H17  1  0.96954870  0.55044546  0.56367555  1  0.095849  -0.000161  0.962171  0.0  0.106832  -0.000152  1.022478  0.0  0.110082  -9.1e-05  1.020086  0.0  0.102308  0.104425  -0.00022  1.024226  0.0
H  H18  1  0.09604486  0.52215018  0.03745358  1  0.111339  -0.000192  0.980826  0.0  0.117675  -0.000182  1.049735  0.0  0.121941  -0.000104  1.045901  0.0  0.10482  0.114575  -0.000276  1.052374  0.0
H  H19  1  0.90395733  0.47784291  0.96255342  1  0.111344  -0.000194  0.98074  0.0  0.117666  -0.000182  1.049676  0.0  0.121945  -0.000104  1.045806  0.0  0.104802  0.114569  -0.000276  1.052312  0.0
H  H20  1  0.23394483  0.68954406  0.99287579  1  0.10068  0.000272  0.954422  0.0  0.111217  0.000253  1.01562  0.0  0.113802  0.000221  1.014971  0.0  0.101973  0.109272  0.000271  1.016291  0.0
H  H21  1  0.76605423  0.31045216  0.00712441  1  0.100679  0.000271  0.954442  0.0  0.111241  0.000253  1.015606  0.0  0.113825  0.000221  1.014958  0.0  0.101967  0.109282  0.000271  1.016298  0.0
H  H22  1  0.58232038  0.08211637  0.47442425  1  0.084452  -0.000305  0.948473  -0.001  0.093757  -0.000311  1.010148  -0.001  0.095713  -0.00019  1.008241  -0.001  0.11722  0.092275  -0.000412  1.011617  -0.001
H  H23  1  0.41767925  0.91789721  0.52556586  1  0.084387  -0.000302  0.948494  -0.001  0.093788  -0.000311  1.01006  -0.001  0.09569  -0.000191  1.008219  -0.001  0.117189  0.092316  -0.000413  1.011513  -0.001
H  H24  1  0.52275019  0.89719368  0.68892920  1  0.123567  -0.000276  0.975166  0.0  0.13179  -0.000309  1.038043  0.0  0.136378  -0.000189  1.035115  0.0  0.104451  0.128346  -0.000432  1.040269  0.0
H  H25  1  0.47724481  0.10281996  0.31106167  1  0.123629  -0.000275  0.975144  0.0  0.131807  -0.000309  1.038057  0.0  0.136391  -0.000189  1.035134  0.0  0.10446  0.128366  -0.000432  1.040268  0.0
H  H26  1  0.88540714  0.88197138  0.79649479  1  0.125002  -7.9e-05  0.963078  0.0  0.133679  -0.000108  1.025662  0.0  0.137775  -3.3e-05  1.023893  0.0  0.11023  0.130294  -0.000201  1.027797  0.0
H  H27  1  0.11458344  0.11803310  0.20350588  1  0.125045  -7.7e-05  0.963021  0.0  0.133716  -0.000108  1.025602  0.0  0.137814  -3.2e-05  1.023827  0.0  0.110232  0.130329  -0.000201  1.027742  0.0
H  H28  1  0.92520742  0.06719723  0.58168864  1  0.096075  -0.000333  0.927839  -0.002  0.104693  -0.000424  0.989218  -0.001  0.107992  -0.000262  0.985519  -0.001  0.122674  0.102043  -0.000583  0.992336  -0.002
H  H29  1  0.07479150  0.93280714  0.41831067  1  0.096104  -0.000335  0.927909  -0.002  0.104732  -0.000424  0.989258  -0.001  0.10803  -0.000262  0.985561  -0.001  0.122694  0.102083  -0.000583  0.992379  -0.002
H  H30  1  0.76692018  0.60421299  0.08650770  1  0.121984  0.00029  0.925911  0.0  0.139408  0.000218  0.981672  0.0  0.140051  0.000184  0.982911  0.0  0.108334  0.138672  0.000242  0.981127  0.0
H  H31  1  0.23307274  0.39578844  0.91348276  1  0.121972  0.000285  0.925953  0.0  0.139397  0.000218  0.981733  0.0  0.140041  0.000184  0.982968  0.0  0.108324  0.138657  0.000242  0.981189  0.0
H  H32  1  0.87071048  0.68721543  0.95276878  1  0.11753  -6.5e-05  0.944658  0.0  0.131873  -9.3e-05  1.007288  0.0  0.133924  -4.8e-05  1.006066  0.0  0.107848  0.130209  -0.000158  1.008244  0.0
H  H33  1  0.12928294  0.31278905  0.04722372  1  0.117544  -5.9e-05  0.944646  0.0  0.131915  -9.3e-05  1.007268  0.0  0.133963  -4.8e-05  1.006054  0.0  0.107877  0.130262  -0.000158  1.008211  0.0
H  H34  1  0.97880015  0.78326792  0.04119749  1  0.098537  5.3e-05  0.980379  0.0  0.110045  7e-06  1.040453  0.0  0.112249  1.5e-05  1.041323  0.0  0.099122  0.108329  -9e-06  1.040089  0.0
H  H35  1  0.02119426  0.21672119  0.95880912  1  0.098525  5e-05  0.980236  0.0  0.110042  7e-06  1.040323  0.0  0.112254  1.5e-05  1.041183  0.0  0.099133  0.108318  -8e-06  1.039975  0.0
H  H36  1  0.98064493  0.93604808  0.14401569  1  0.09698  -0.000229  0.953435  0.0  0.106602  -0.000176  1.016184  0.0  0.109752  -0.0001  1.01445  0.0  0.101489  0.104144  -0.000279  1.017778  0.0
H  H37  1  0.01935371  0.06393689  0.85599196  1  0.096956  -0.000228  0.953408  0.0  0.106549  -0.000176  1.016183  0.0  0.109704  -0.0001  1.014453  0.0  0.101476  0.104091  -0.000279  1.017776  0.0
H  H38  1  0.57888724  0.01381476  0.17706201  1  0.086614  -0.000185  0.987611  0.0  0.090798  -0.000157  1.063318  0.0  0.093847  -9.9e-05  1.061347  0.0  0.093618  0.088671  -0.000215  1.064533  0.0
H  H39  1  0.42111102  0.98618759  0.82293828  1  0.086629  -0.000185  0.987625  0.0  0.090824  -0.000157  1.063313  0.0  0.093869  -9.9e-05  1.061349  0.0  0.093627  0.088695  -0.000215  1.064528  0.0
H  H40  1  0.57658800  0.86128849  0.07573373  1  0.077087  0.000124  1.002683  0.0  0.081277  3.6e-05  1.077224  0.0  0.08419  2e-05  1.076773  0.0  0.084891  0.079082  3.5e-05  1.078137  0.0
H  H41  1  0.42340761  0.13871287  0.92426743  1  0.07705  0.000117  1.002622  0.0  0.081248  3.5e-05  1.077159  0.0  0.08416  2e-05  1.076708  0.0  0.084875  0.079051  3.5e-05  1.078074  0.0
C  C42  1  0.67400768  0.46165329  0.37195608  1  0.119922  0.020577  3.717559  0.014  0.090086  0.00544  3.978695  0.003  0.100304  0.004536  3.995553  0.003  0.0373  0.08185  0.006588  3.969067  0.004
C  C43  1  0.32599413  0.53834287  0.62804881  1  0.12004  0.020582  3.7176  0.014  0.090191  0.005439  3.97873  0.003  0.100409  0.004537  3.995595  0.003  0.037294  0.081972  0.006586  3.969073  0.004
C  C44  1  0.58530916  0.57467458  0.36151689  1  -0.166153  -0.009254  3.737148  -0.013  -0.182236  -0.00256  3.986152  -0.004  -0.190441  -0.002203  4.004343  -0.003  -0.090468  -0.176752  -0.002833  3.974569  -0.005
C  C45  1  0.41468985  0.42532160  0.63849018  1  -0.166364  -0.009261  3.73702  -0.013  -0.182432  -0.00256  3.986057  -0.004  -0.19064  -0.002204  4.004249  -0.003  -0.090524  -0.176949  -0.002833  3.97448  -0.005
C  C46  1  0.48829826  0.61389312  0.28255855  1  0.083277  0.022927  3.795122  0.016  0.096344  0.008333  4.054899  0.005  0.106426  0.005894  4.072657  0.004  0.006019  0.088643  0.011701  4.043603  0.008
C  C47  1  0.51170233  0.38610508  0.71744910  1  0.083428  0.022942  3.794864  0.016  0.096497  0.008331  4.054604  0.005  0.10658  0.005893  4.072361  0.004  0.006042  0.088794  0.0117  4.043309  0.008
C  C48  1  0.48810752  0.53487956  0.21672251  1  -0.180292  -0.009331  3.740346  -0.013  -0.19645  -0.002882  3.984819  -0.005  -0.204412  -0.002484  4.00275  -0.004  -0.097347  -0.191501  -0.003158  3.974329  -0.005
C  C49  1  0.51189547  0.46512169  0.78328086  1  -0.180458  -0.009338  3.74053  -0.013  -0.196599  -0.002882  3.984935  -0.005  -0.204563  -0.002484  4.002861  -0.004  -0.097353  -0.191649  -0.003157  3.974446  -0.005
C  C50  1  0.58012422  0.42216402  0.23379317  1  0.131633  0.022513  3.700653  0.015  0.10449  0.006243  3.953721  0.003  0.115738  0.005171  3.968054  0.003  0.042141  0.095882  0.008168  3.945495  0.004
C  C51  1  0.41987958  0.57783824  0.76620792  1  0.131614  0.022538  3.700732  0.015  0.10454  0.006243  3.953731  0.003  0.115794  0.00517  3.968064  0.003  0.042113  0.095933  0.008168  3.945506  0.004
C  C52  1  0.28267152  0.78201376  0.15387894  1  -0.196865  8.4e-05  3.682146  0.0  -0.235462  9.5e-05  3.932158  0.0  -0.234857  5.3e-05  3.942209  0.0  -0.140335  -0.236104  0.000116  3.925895  0.0
C  C53  1  0.71733308  0.21798238  0.84612292  1  -0.196743  8.9e-05  3.681939  0.0  -0.235387  9.5e-05  3.932041  0.0  -0.234787  5.3e-05  3.942097  0.0  -0.140284  -0.236034  0.000116  3.925789  0.0
C  C54  1  0.20404049  0.67275990  0.18761162  1  0.102643  0.00206  3.76359  0.001  0.122849  0.000541  3.998263  0.0  0.124477  0.000469  4.022729  0.0  -0.012262  0.122535  0.000746  3.981235  0.001
C  C55  1  0.79596083  0.32724037  0.81238647  1  0.102605  0.002065  3.763572  0.001  0.122802  0.000536  3.998313  0.0  0.12443  0.000456  4.022781  0.0  -0.012316  0.122491  0.000746  3.981282  0.001
C  C56  1  0.14523086  0.60566032  0.31221782  1  -0.133438  -0.000625  3.752474  -0.001  -0.151354  -9.5e-05  3.997295  0.0  -0.156876  -0.000106  4.019879  0.0  -0.097281  -0.148049  -0.000135  3.982177  0.0
C  C57  1  0.85477016  0.39434198  0.68778373  1  -0.13344  -0.000621  3.752663  -0.001  -0.151372  -9.5e-05  3.997458  0.0  -0.156894  -0.000104  4.020041  0.0  -0.097243  -0.148065  -0.000135  3.982337  0.0
C  C58  1  0.07418748  0.50463414  0.33920825  1  -0.058644  0.00126  3.741086  0.001  -0.079623  -0.00024  3.980126  0.0  -0.07801  -7.1e-05  3.999906  0.0  -0.083159  -0.080285  -0.000199  3.96684  0.0
C  C59  1  0.92581619  0.49536201  0.66079377  1  -0.058767  0.001268  3.741088  0.001  -0.079668  -0.000236  3.98017  0.0  -0.078056  -6.5e-05  3.99995  0.0  -0.083278  -0.080333  -0.000199  3.966887  0.0
C  C60  1  0.05632118  0.47306931  0.24088198  1  -0.067132  -0.002447  3.776308  -0.003  -0.042806  -0.000968  4.00462  -0.001  -0.051272  -0.000593  4.026893  -0.001  -0.02189  -0.037813  -0.001347  3.990612  -0.002
C  C61  1  0.94368367  0.52692476  0.75912329  1  -0.066971  -0.002446  3.776088  -0.003  -0.04272  -0.000972  4.004478  -0.001  -0.051186  -0.000599  4.026754  -0.001  -0.021847  -0.037727  -0.001347  3.990471  -0.002
C  C62  1  0.11319874  0.54151818  0.11584186  1  -0.063189  0.00192  3.738091  0.001  -0.092564  0.000131  3.994893  0.0  -0.090476  0.000183  4.012564  0.0  -0.084128  -0.093702  -0.000143  3.983079  0.0
C  C63  1  0.88680626  0.45847489  0.88416126  1  -0.06326  0.001926  3.738154  0.001  -0.092592  0.000133  3.994968  0.0  -0.090501  0.000187  4.012646  0.0  -0.084096  -0.093726  -0.000143  3.983146  0.0
C  C64  1  0.18853792  0.63829452  0.09036468  1  -0.132013  -0.0008  3.727422  -0.001  -0.149574  -0.000168  3.977803  0.0  -0.154214  -0.000121  3.997966  0.0  -0.094072  -0.146202  -0.000183  3.964112  0.0
C  C65  1  0.81146680  0.36170058  0.90963932  1  -0.131995  -0.000803  3.727531  -0.001  -0.149568  -0.000166  3.977898  0.0  -0.154209  -0.000118  3.998067  0.0  -0.094035  -0.146186  -0.000183  3.964215  0.0
C  C66  1  0.97232700  0.37332312  0.26675679  1  0.61259  0.012311  3.912472  0.01  0.569192  0.003534  4.208509  0.004  0.604823  0.003556  4.206636  0.003  0.193557  0.544115  0.003244  4.208582  0.004
C  C67  1  0.02767864  0.62667197  0.73324877  1  0.612588  0.012308  3.912572  0.01  0.569196  0.003533  4.208641  0.004  0.604823  0.003555  4.206774  0.003  0.193597  0.544122  0.003242  4.208712  0.004
C  C68  1  0.64581047  0.03381961  0.54949750  1  0.13109  0.015186  3.726238  0.01  0.10296  0.00258  3.982102  0.001  0.113187  0.001985  3.999364  0.001  0.038624  0.09578  0.003044  3.970675  0.002
C  C69  1  0.35418889  0.96618886  0.45049569  1  0.131198  0.015195  3.72604  0.01  0.103006  0.002581  3.981889  0.001  0.11327  0.00199  3.999169  0.001  0.03872  0.095823  0.003045  3.970452  0.002
C  C70  1  0.61404065  0.93033348  0.66819568  1  -0.190485  -0.006848  3.735555  -0.01  -0.204852  -0.001752  3.980198  -0.003  -0.213686  -0.001185  3.997544  -0.002  -0.098213  -0.198941  -0.002265  3.969018  -0.003
C  C71  1  0.38595739  0.06967809  0.33179470  1  -0.190654  -0.006859  3.735562  -0.01  -0.204935  -0.001753  3.980185  -0.003  -0.213762  -0.001187  3.997513  -0.002  -0.098284  -0.199025  -0.002265  3.969008  -0.003
C  C72  1  0.69968544  0.87076038  0.76204420  1  0.091149  0.012848  3.793444  0.009  0.105794  0.001791  4.048239  0.001  0.115637  0.000368  4.066623  0.0  0.007215  0.098312  0.003674  4.03653  0.002
C  C73  1  0.30030689  0.12925226  0.23795098  1  0.091004  0.012868  3.793505  0.009  0.1056  0.001791  4.048343  0.001  0.11544  0.000368  4.066731  0.0  0.007169  0.098122  0.003675  4.036629  0.002
C  C74  1  0.81349741  0.92187694  0.73059407  1  -0.168505  -0.006541  3.699456  -0.01  -0.187049  -0.001596  3.947963  -0.003  -0.195002  -0.000996  3.965184  -0.002  -0.091907  -0.182162  -0.002132  3.93847  -0.004
C  C75  1  0.18649767  0.07813566  0.26940322  1  -0.16846  -0.006553  3.699397  -0.01  -0.186964  -0.001597  3.947878  -0.003  -0.194918  -0.000996  3.965102  -0.002  -0.091897  -0.182077  -0.002133  3.938387  -0.004
C  C76  1  0.83742009  0.02592117  0.60867200  1  0.140685  0.013131  3.684143  0.009  0.111828  -2.8e-05  3.944489  0.0  0.12297  -0.00058  3.958838  -0.001  0.047387  0.103569  0.001261  3.935937  0.0
C  C77  1  0.16257567  0.97408632  0.39132480  1  0.140586  0.01316  3.683973  0.009  0.111732  -2.7e-05  3.944347  0.0  0.122874  -0.00058  3.958704  -0.001  0.047359  0.103473  0.001262  3.935797  0.0
C  C78  1  0.77972899  0.70419141  0.00530594  1  -0.200054  4.1e-05  3.655694  0.0  -0.238513  -4.7e-05  3.905756  0.0  -0.23778  -2.9e-05  3.91495  0.0  -0.141346  -0.238869  -4.6e-05  3.89944  0.0
C  C79  1  0.22026377  0.29581103  0.99468839  1  -0.200091  4.1e-05  3.655822  0.0  -0.238709  -4.8e-05  3.906065  0.0  -0.237975  -2.9e-05  3.915261  0.0  -0.141394  -0.239058  -4.6e-05  3.899716  0.0
C  C80  1  0.77755323  0.80852153  0.05500361  1  0.108298  0.003416  3.748606  0.002  0.128012  0.001068  3.984687  0.001  0.129546  0.000728  4.009147  0.0  -0.011404  0.127231  0.001838  3.967636  0.001
C  C81  1  0.22244120  0.19147474  0.94499736  1  0.108321  0.003375  3.74881  0.002  0.128186  0.001065  3.984732  0.001  0.129722  0.000718  4.00919  0.0  -0.0114  0.127399  0.001837  3.967683  0.001
C  C82  1  0.89104268  0.83288820  0.07209007  1  -0.126235  -0.001055  3.728516  -0.002  -0.145973  -0.000179  3.975986  0.0  -0.150926  -0.00016  3.99831  0.0  -0.094332  -0.142731  -0.000215  3.961121  -0.001
C  C83  1  0.10895240  0.16710295  0.92791555  1  -0.126239  -0.001034  3.728345  -0.002  -0.146045  -0.000178  3.975813  0.0  -0.151002  -0.000156  3.998133  0.0  -0.094329  -0.142799  -0.000215  3.960956  -0.001
C  C84  1  0.89248014  0.91806466  0.12973938  1  -0.056986  0.002857  3.73636  0.002  -0.078676  0.000482  3.981034  0.0  -0.07684  0.00035  4.000253  0.0  -0.082872  -0.079723  0.000646  3.968641  0.0
C  C85  1  0.10751530  0.08192340  0.87027092  1  -0.05695  0.002813  3.736067  0.002  -0.078576  0.000483  3.980734  0.0  -0.076754  0.000352  3.999962  0.0  -0.082853  -0.079603  0.000645  3.968351  0.0
C  C86  1  0.78010076  0.98280844  0.16934538  1  -0.07664  -0.002293  3.78721  -0.003  -0.051524  -0.000836  4.011195  -0.001  -0.060375  -0.000506  4.033455  0.0  -0.025156  -0.046658  -0.00109  3.997389  -0.001
C  C87  1  0.21989812  0.01718163  0.83066348  1  -0.076582  -0.002272  3.787008  -0.003  -0.051511  -0.000837  4.01103  -0.001  -0.06035  -0.000511  4.033277  0.0  -0.025144  -0.0467  -0.001091  3.997296  -0.001
C  C88  1  0.66649182  0.96189136  0.14857090  1  -0.06939  0.002466  3.76195  0.002  -0.091441  0.000195  4.009653  0.0  -0.090165  0.000155  4.029583  0.0  -0.090006  -0.091773  0.000607  3.995788  0.0
C  C89  1  0.33350630  0.03810485  0.85143203  1  -0.069436  0.002426  3.761747  0.002  -0.091483  0.000196  4.009458  0.0  -0.090208  0.000159  4.029381  0.0  -0.090029  -0.091798  0.000607  3.995606  0.0
C  C90  1  0.66543966  0.87613621  0.09173937  1  -0.139388  -0.001241  3.779843  -0.002  -0.159096  -0.000332  4.030018  -0.001  -0.16477  -0.000259  4.053356  0.0  -0.103162  -0.15501  -0.000345  4.014033  -0.001
C  C91  1  0.33455595  0.12386515  0.90826179  1  -0.139377  -0.001214  3.779728  -0.002  -0.15911  -0.000331  4.029851  -0.001  -0.164784  -0.000257  4.053188  0.0  -0.103143  -0.15502  -0.000345  4.01386  -0.001
C  C92  1  0.78021408  0.07497406  0.22985851  1  0.615151  0.012737  3.916391  0.01  0.573023  0.003787  4.21124  0.003  0.610132  0.002992  4.207538  0.002  0.194746  0.546627  0.005184  4.212069  0.005
C  C93  1  0.21978564  0.92502418  0.77014157  1  0.615171  0.012731  3.916317  0.01  0.573073  0.003787  4.21113  0.003  0.610181  0.002995  4.207427  0.002  0.194748  0.546693  0.005183  4.211963  0.005
S  S94  1  0.37871813  0.75554881  0.27551445  1  0.044174  0.005672  2.432292  0.002  0.047738  0.003079  2.765774  0.001  0.040054  0.002162  2.770943  0.001  0.048898  0.05234  0.004693  2.764033  0.002
S  S95  1  0.62128329  0.24445042  0.72448834  1  0.044161  0.005672  2.432186  0.002  0.047743  0.00308  2.765681  0.001  0.040063  0.002162  2.770849  0.001  0.048919  0.052348  0.004692  2.763939  0.002
S  S96  1  0.65581189  0.73772512  0.90787841  1  0.025633  0.000697  2.397048  -0.001  0.029878  -0.000574  2.72018  -0.001  0.021953  -0.000389  2.723618  -0.001  0.03357  0.036014  -0.000699  2.717985  -0.001
S  S97  1  0.34418047  0.26228754  0.09211247  1  0.025762  0.000698  2.396915  -0.001  0.030053  -0.000575  2.7201  -0.001  0.02213  -0.000389  2.723538  -0.001  0.03362  0.036181  -0.000699  2.717899  -0.001
N  N98  1  0.67256110  0.38445784  0.30996219  1  -0.32842  -0.043645  3.336997  -0.071  -0.280021  -0.030854  3.630641  -0.044  -0.307646  -0.02475  3.646266  -0.035  -0.34434  -0.260307  -0.036281  3.620979  -0.052
N  N99  1  0.32744285  0.61554341  0.69003674  1  -0.328444  -0.043654  3.337042  -0.071  -0.280008  -0.030853  3.630626  -0.044  -0.307646  -0.024749  3.646255  -0.035  -0.344271  -0.260297  -0.03628  3.620972  -0.052
N  N100  1  0.75636085  0.08119146  0.51800724  1  -0.340743  -0.042365  3.369376  -0.07  -0.296315  -0.029165  3.668589  -0.042  -0.324641  -0.023724  3.683841  -0.034  -0.349176  -0.276459  -0.03375  3.658868  -0.048
N  N101  1  0.24363823  0.91881906  0.48198598  1  -0.340664  -0.042374  3.369108  -0.07  -0.296305  -0.029166  3.668445  -0.042  -0.324639  -0.023725  3.68368  -0.034  -0.349177  -0.276447  -0.033751  3.658733  -0.048
O  O102  1  0.93893012  0.29207218  0.38478150  1  -0.617281  -0.052795  1.983912  -0.089  -0.584071  -0.03844  2.244441  -0.061  -0.625155  -0.028634  2.236747  -0.047  -0.328574  -0.552003  -0.047917  2.247234  -0.075
O  O103  1  0.06107593  0.70791984  0.61522273  1  -0.617318  -0.052798  1.983902  -0.089  -0.584083  -0.038442  2.244424  -0.061  -0.625177  -0.028637  2.23673  -0.047  -0.32863  -0.552021  -0.047918  2.247229  -0.075
O  O104  1  0.92989712  0.37128990  0.17408526  1  -0.598495  -0.025968  1.961194  -0.049  -0.560937  -0.021977  2.207817  -0.04  -0.594448  -0.016134  2.201483  -0.031  -0.305961  -0.535284  -0.028193  2.210784  -0.049
O  O105  1  0.07010483  0.62870524  0.82591920  1  -0.598522  -0.025961  1.961366  -0.049  -0.560987  -0.021974  2.208051  -0.04  -0.594502  -0.01613  2.20172  -0.031  -0.305964  -0.535322  -0.028189  2.21099  -0.049
O  O106  1  0.88416135  0.08902771  0.25417818  1  -0.593052  -0.051778  1.995203  -0.086  -0.560255  -0.036783  2.257397  -0.058  -0.601995  -0.026235  2.250135  -0.041  -0.316579  -0.526172  -0.048029  2.259473  -0.074
O  O107  1  0.11583916  0.91097154  0.74582219  1  -0.593075  -0.051774  1.995178  -0.086  -0.560261  -0.036781  2.257344  -0.058  -0.602012  -0.026233  2.25008  -0.041  -0.316554  -0.526176  -0.048026  2.259411  -0.074
O  O108  1  0.67797184  0.14138971  0.25667477  1  -0.631255  -0.026563  1.984172  -0.049  -0.594796  -0.022737  2.236107  -0.041  -0.62955  -0.016472  2.227898  -0.031  -0.313995  -0.567342  -0.029718  2.239604  -0.051
O  O109  1  0.32203057  0.85861669  0.74331795  1  -0.63126  -0.026561  1.984053  -0.049  -0.594842  -0.022737  2.236041  -0.041  -0.629599  -0.016473  2.227822  -0.031  -0.314008  -0.567387  -0.029718  2.239536  -0.051
