# generated using pymatgen
data_CdH14C20(NO)4
_symmetry_space_group_name_H-M   'P 1'
_cell_length_a   7.78025227
_cell_length_b   10.53719643
_cell_length_c   11.91244589
_cell_angle_alpha   73.51218891
_cell_angle_beta   75.78204045
_cell_angle_gamma   76.73328941
_symmetry_Int_Tables_number   1
_chemical_formula_structural   CdH14C20(NO)4
_chemical_formula_sum   'Cd2 H28 C40 N8 O8'
_cell_volume   894.25216125
_cell_formula_units_Z   2
loop_
 _symmetry_equiv_pos_site_id
 _symmetry_equiv_pos_as_xyz
  1  'x, y, z'
loop_
 _atom_site_type_symbol
 _atom_site_label
 _atom_site_symmetry_multiplicity
 _atom_site_fract_x
 _atom_site_fract_y
 _atom_site_fract_z
 _atom_site_occupancy
 _atom_site_hle17_bader_spin_density
 _atom_site_hle17_ddec_charge
 _atom_site_hle17_ddec_spin_density
 _atom_site_hle17_ddec_sum_bond_order
 _atom_site_hle17_magmom
 _atom_site_hse06_10hf_bader_spin_density
 _atom_site_hse06_10hf_ddec_charge
 _atom_site_hse06_10hf_ddec_spin_density
 _atom_site_hse06_10hf_ddec_sum_bond_order
 _atom_site_hse06_10hf_magmom
 _atom_site_hse06_bader_spin_density
 _atom_site_hse06_ddec_charge
 _atom_site_hse06_ddec_spin_density
 _atom_site_hse06_ddec_sum_bond_order
 _atom_site_hse06_magmom
 _atom_site_pbe_bader_spin_density
 _atom_site_pbe_cm5_charge
 _atom_site_pbe_ddec_charge
 _atom_site_pbe_ddec_spin_density
 _atom_site_pbe_ddec_sum_bond_order
 _atom_site_pbe_magmom
Cd  Cd0  1  0.42365966  0.38747953  0.34709003  1  0  1.096343  0  1.644235  0  0  0.901534  0  2.072442  0  0  0.961043  0  2.022465  0  0  0.777348  0.859384  0  2.106774  0
Cd  Cd1  1  0.57634023  0.61251954  0.65291237  1  0  1.096378  0  1.644193  0  0  0.901581  0  2.0724  0  0  0.961086  0  2.022421  0  0  0.777349  0.859428  0  2.106732  0
H  H2  1  0.44195986  0.13975606  0.60377215  1  0  0.1003  0  0.955126  0  0  0.107276  0  1.023359  0  0  0.109443  0  1.020781  0  0  0.137153  0.10569  0  1.025099  0
H  H3  1  0.55803842  0.86024387  0.39622524  1  0  0.100273  0  0.955137  0  0  0.107292  0  1.023324  0  0  0.109457  0  1.020747  0  0  0.137157  0.105707  0  1.025065  0
H  H4  1  0.08712061  0.51226256  0.56933041  1  0  0.111058  0  0.955045  0  0  0.120627  0  1.016535  0  0  0.123265  0  1.014737  0  0  0.120698  0.118799  0  1.017768  0
H  H5  1  0.91288299  0.48773759  0.43067109  1  0  0.111035  0  0.955077  0  0  0.120576  0  1.016599  0  0  0.123214  0  1.014804  0  0  0.120678  0.118749  0  1.017831  0
H  H6  1  0.01399141  0.36599393  0.80131907  1  0  0.113452  0  0.97731  0  0  0.120841  0  1.042574  0  0  0.122879  0  1.042363  0  0  0.120697  0.119339  0  1.042836  0
H  H7  1  0.98601404  0.63400932  0.19868297  1  0  0.113459  0  0.977289  0  0  0.120896  0  1.042511  0  0  0.122937  0  1.042297  0  0  0.120694  0.119395  0  1.042774  0
H  H8  1  0.34945000  0.95692565  0.74840399  1  0  0.123022  0  0.983874  0  0  0.130847  0  1.045929  0  0  0.134171  0  1.044165  0  0  0.106908  0.128403  0  1.047276  0
H  H9  1  0.65054513  0.04307127  0.25159809  1  0  0.122999  0  0.983936  0  0  0.130847  0  1.045959  0  0  0.134178  0  1.044189  0  0  0.106923  0.128402  0  1.047308  0
H  H10  1  0.38449334  0.78167141  0.92957645  1  0  0.121551  0  0.975524  0  0  0.130915  0  1.036607  0  0  0.133757  0  1.035244  0  0  0.108777  0.129076  0  1.037121  0
H  H11  1  0.61549494  0.21832639  0.07042653  1  0  0.121577  0  0.975479  0  0  0.130897  0  1.03663  0  0  0.133737  0  1.035264  0  0  0.108763  0.129058  0  1.037145  0
H  H12  1  0.19131463  0.07970389  0.13938328  1  0  0.107393  0  0.9424  0  0  0.12204  0  0.994998  0  0  0.124477  0  0.994267  0  0  0.110612  0.120239  0  0.99563  0
H  H13  1  0.80870083  0.92029646  0.86061536  1  0  0.107449  0  0.942282  0  0  0.122074  0  0.994914  0  0  0.124514  0  0.994178  0  0  0.110629  0.120274  0  0.995544  0
H  H14  1  0.15958768  0.25564449  0.95668775  1  0  0.102931  0  0.978254  0  0  0.11143  0  1.044366  0  0  0.112831  0  1.045822  0  0  0.104662  0.110707  0  1.042777  0
H  H15  1  0.84042039  0.74435368  0.04331185  1  0  0.102915  0  0.978305  0  0  0.111414  0  1.044409  0  0  0.112816  0  1.045867  0  0  0.104645  0.110691  0  1.04282  0
H  H16  1  0.46174158  0.64553844  0.08400404  1  0  0.10771  0  0.958561  0  0  0.111298  0  1.032285  0  0  0.114251  0  1.02845  0  0  0.136658  0.109166  0  1.034868  0
H  H17  1  0.53826307  0.35446275  0.91599784  1  0  0.107681  0  0.958598  0  0  0.111304  0  1.032277  0  0  0.114255  0  1.028443  0  0  0.136663  0.109168  0  1.034855  0
H  H18  1  0.15850331  0.92039114  0.29163785  1  0  0.112484  0  0.975715  0  0  0.121563  0  1.038829  0  0  0.123248  0  1.039432  0  0  0.12084  0.120331  0  1.038444  0
H  H19  1  0.84148520  0.07960560  0.70836286  1  0  0.11245  0  0.975781  0  0  0.121527  0  1.038897  0  0  0.123209  0  1.039508  0  0  0.120816  0.120295  0  1.038512  0
H  H20  1  0.26128405  0.67597031  0.44072363  1  0  0.111368  0  0.983914  0  0  0.118314  0  1.047465  0  0  0.120915  0  1.046613  0  0  0.116085  0.116482  0  1.048006  0
H  H21  1  0.73870818  0.32402756  0.55927867  1  0  0.111427  0  0.983823  0  0  0.118387  0  1.047364  0  0  0.120991  0  1.046506  0  0  0.116113  0.116556  0  1.047906  0
H  H22  1  0.70346222  0.93059288  0.53048582  1  0  0.108858  0  0.978051  0  0  0.114224  0  1.048729  0  0  0.117929  0  1.046  0  0  0.100895  0.111557  0  1.050749  0
H  H23  1  0.29654763  0.06940813  0.46950266  1  0  0.108898  0  0.978082  0  0  0.114273  0  1.048774  0  0  0.117981  0  1.046036  0  0  0.10092  0.111606  0  1.050795  0
H  H24  1  0.04634590  0.23034771  0.38218687  1  0  0.11686  0  0.990646  0  0  0.12245  0  1.057196  0  0  0.126784  0  1.054156  0  0  0.101774  0.119336  0  1.059463  0
H  H25  1  0.95366133  0.76965333  0.61780539  1  0  0.11685  0  0.990615  0  0  0.122469  0  1.057124  0  0  0.126802  0  1.054093  0  0  0.101782  0.119355  0  1.059389  0
H  H26  1  0.90025422  0.36956188  0.20707244  1  0  0.11296  0  0.981423  0  0  0.119066  0  1.046577  0  0  0.122912  0  1.044491  0  0  0.101279  0.116263  0  1.048173  0
H  H27  1  0.09974384  0.63043921  0.79293139  1  0  0.112958  0  0.981448  0  0  0.119086  0  1.046568  0  0  0.12293  0  1.044483  0  0  0.101275  0.116282  0  1.048163  0
H  H28  1  0.31394453  0.54570874  0.93382015  1  0  0.109868  0  0.984531  0  0  0.117465  0  1.051678  0  0  0.121189  0  1.048909  0  0  0.101089  0.11477  0  1.053727  0
H  H29  1  0.68605223  0.45429741  0.06618423  1  0  0.109827  0  0.984594  0  0  0.117473  0  1.051692  0  0  0.121196  0  1.048925  0  0  0.101078  0.114774  0  1.053746  0
C  C30  1  0.33733888  0.22223254  0.62381056  1  0  0.173144  0  3.648676  0  0  0.111079  0  3.916911  0  0  0.125321  0  3.931123  0  0  0.141728  0.101973  0  3.906766  0
C  C31  1  0.66266179  0.77776848  0.37618783  1  0  0.17321  0  3.64866  0  0  0.111105  0  3.9169  0  0  0.12535  0  3.93111  0  0  0.141729  0.101997  0  3.906754  0
C  C32  1  0.15088854  0.41270231  0.60976111  1  0  0.019661  0  3.727717  0  0  -0.014828  0  3.995872  0  0  -0.012324  0  4.01514  0  0  0.000977  -0.016297  0  3.982371  0
C  C33  1  0.84910977  0.58729772  0.39024045  1  0  0.019711  0  3.727549  0  0  -0.014747  0  3.995709  0  0  -0.012246  0  4.014981  0  0  0.001005  -0.016217  0  3.982208  0
C  C34  1  0.11394370  0.34224492  0.72607863  1  0  -0.044121  0  3.652039  0  0  -0.087752  0  3.916422  0  0  -0.085681  0  3.93487  0  0  0.00059  -0.089137  0  3.903895  0
C  C35  1  0.88605725  0.65775515  0.27392248  1  0  -0.044138  0  3.651982  0  0  -0.087817  0  3.91633  0  0  -0.085748  0  3.934781  0  0  0.000592  -0.089202  0  3.903803  0
C  C36  1  0.25018424  0.11833349  0.84041680  1  0  0.176778  0  3.777795  0  0  0.166118  0  4.028101  0  0  0.171397  0  4.049673  0  0  0.092734  0.162557  0  4.013686  0
C  C37  1  0.74981854  0.88166458  0.15958370  1  0  0.17682  0  3.777843  0  0  0.166118  0  4.028195  0  0  0.171394  0  4.049771  0  0  0.092724  0.162558  0  4.013779  0
C  C38  1  0.31453535  0.98484113  0.83380681  1  0  -0.13359  0  3.718362  0  0  -0.152267  0  3.965853  0  0  -0.155629  0  3.986285  0  0  -0.089653  -0.150039  0  3.952079  0
C  C39  1  0.68546348  0.01515687  0.16619437  1  0  -0.133667  0  3.718475  0  0  -0.152345  0  3.965983  0  0  -0.155713  0  3.986418  0  0  -0.089694  -0.150118  0  3.952212  0
C  C40  1  0.33288871  0.88472182  0.93747949  1  0  -0.131875  0  3.721879  0  0  -0.15137  0  3.96985  0  0  -0.155037  0  3.991229  0  0  -0.086962  -0.148465  0  3.95449  0
C  C41  1  0.66710194  0.11527704  0.06252282  1  0  -0.131765  0  3.72189  0  0  -0.151258  0  3.9699  0  0  -0.15492  0  3.991276  0  0  -0.086939  -0.148354  0  3.95454  0
C  C42  1  0.28704966  0.91744774  0.04835222  1  0  0.169601  0  3.775676  0  0  0.160666  0  4.023568  0  0  0.165955  0  4.046125  0  0  0.091727  0.157152  0  4.008362  0
C  C43  1  0.71294443  0.08255324  0.95165062  1  0  0.169448  0  3.775799  0  0  0.160551  0  4.023666  0  0  0.16584  0  4.046223  0  0  0.091695  0.157037  0  4.00846  0
C  C44  1  0.22341216  0.05128973  0.05458501  1  0  -0.127141  0  3.737492  0  0  -0.147463  0  3.987828  0  0  -0.150354  0  4.008087  0  0  -0.087352  -0.145711  0  3.974413  0
C  C45  1  0.77659116  0.94871140  0.94541542  1  0  -0.127099  0  3.737349  0  0  -0.147425  0  3.987684  0  0  -0.150317  0  4.007945  0  0  -0.087333  -0.145674  0  3.974269  0
C  C46  1  0.20491665  0.15151333  0.95092410  1  0  -0.133101  0  3.738219  0  0  -0.154775  0  3.993946  0  0  -0.157408  0  4.014737  0  0  -0.090745  -0.152904  0  3.979434  0
C  C47  1  0.79508984  0.84848584  0.04907633  1  0  -0.133155  0  3.738246  0  0  -0.1548  0  3.993961  0  0  -0.157434  0  4.014755  0  0  -0.090733  -0.152928  0  3.979448  0
C  C48  1  0.39453543  0.68546305  0.16128521  1  0  0.173724  0  3.607261  0  0  0.113039  0  3.874703  0  0  0.127515  0  3.887272  0  0  0.143396  0.103474  0  3.866023  0
C  C49  1  0.60546421  0.31453704  0.83871780  1  0  0.173777  0  3.607212  0  0  0.113067  0  3.874649  0  0  0.127546  0  3.887212  0  0  0.143425  0.103511  0  3.865959  0
C  C50  1  0.23725075  0.82815813  0.27084886  1  0  -0.065423  0  3.663684  0  0  -0.108444  0  3.927176  0  0  -0.106758  0  3.946191  0  0  -0.00365  -0.109324  0  3.914253  0
C  C51  1  0.76273488  0.17183961  0.72915373  1  0  -0.065393  0  3.663875  0  0  -0.108398  0  3.927334  0  0  -0.106712  0  3.946351  0  0  -0.003605  -0.109278  0  3.914414  0
C  C52  1  0.28736240  0.70555889  0.34394759  1  0  0.000112  0  3.759546  0  0  -0.033555  0  4.029231  0  0  -0.032433  0  4.051169  0  0  -0.003478  -0.034266  0  4.014271  0
C  C53  1  0.71262824  0.29443491  0.65605523  1  0  5e-06  0  3.759769  0  0  -0.033678  0  4.029456  0  0  -0.032557  0  4.051393  0  0  -0.003537  -0.034392  0  4.014499  0
C  C54  1  0.70698093  0.18665881  0.40256129  1  0  0.613639  0  3.935218  0  0  0.564403  0  4.222343  0  0  0.598619  0  4.216629  0  0  0.192717  0.541256  0  4.225375  0
C  C55  1  0.29302445  0.81333918  0.59743294  1  0  0.613813  0  3.93527  0  0  0.564563  0  4.22241  0  0  0.598779  0  4.216695  0  0  0.192841  0.541412  0  4.22544  0
C  C56  1  0.86007962  0.08954653  0.45030975  1  0  -0.061613  0  3.773125  0  0  -0.03717  0  4.003388  0  0  -0.044025  0  4.025929  0  0  -0.021097  -0.03279  0  3.988277  0
C  C57  1  0.13992972  0.91045150  0.54968213  1  0  -0.061678  0  3.773049  0  0  -0.037207  0  4.003314  0  0  -0.044064  0  4.02586  0  0  -0.021191  -0.032825  0  3.9882  0
C  C58  1  0.83411538  0.95976539  0.51660003  1  0  -0.087738  0  3.73283  0  0  -0.110771  0  3.982712  0  0  -0.1116  0  4.002462  0  0  -0.091139  -0.110091  0  3.969227  0
C  C59  1  0.16589343  0.04023464  0.48339140  1  0  -0.087776  0  3.732768  0  0  -0.110848  0  3.982654  0  0  -0.111676  0  4.002404  0  0  -0.091163  -0.110167  0  3.96917  0
C  C60  1  0.02648053  0.12952549  0.43395512  1  0  -0.088499  0  3.719424  0  0  -0.10975  0  3.965914  0  0  -0.110606  0  3.984714  0  0  -0.09121  -0.10893  0  3.953108  0
C  C61  1  0.97352827  0.87047450  0.56603464  1  0  -0.088385  0  3.719388  0  0  -0.109657  0  3.965837  0  0  -0.110517  0  3.984643  0  0  -0.091093  -0.108836  0  3.953029  0
C  C62  1  0.24888125  0.40525160  0.16334901  1  0  0.614263  0  3.947408  0  0  0.565107  0  4.235816  0  0  0.599417  0  4.229788  0  0  0.189074  0.541919  0  4.23918  0
C  C63  1  0.75111841  0.59475360  0.83665514  1  0  0.614197  0  3.947513  0  0  0.565045  0  4.235915  0  0  0.59936  0  4.229884  0  0  0.189104  0.541858  0  4.239277  0
C  C64  1  0.12164441  0.45010389  0.07799255  1  0  -0.063642  0  3.771396  0  0  -0.040154  0  4.003257  0  0  -0.045943  0  4.023681  0  0  -0.022421  -0.036437  0  3.989756  0
C  C65  1  0.87835498  0.54990734  0.92200918  1  0  -0.063507  0  3.771329  0  0  -0.04002  0  4.003194  0  0  -0.04581  0  4.023619  0  0  -0.022332  -0.036304  0  3.989693  0
C  C66  1  0.94426649  0.42503565  0.11585654  1  0  -0.086539  0  3.729126  0  0  -0.107034  0  3.976668  0  0  -0.107762  0  3.995438  0  0  -0.090953  -0.106621  0  3.96408  0
C  C67  1  0.05573369  0.57496751  0.88414723  1  0  -0.086622  0  3.729276  0  0  -0.107137  0  3.976813  0  0  -0.107863  0  3.995583  0  0  -0.090968  -0.106722  0  3.964225  0
C  C68  1  0.17656521  0.52551101  0.96184321  1  0  -0.093886  0  3.731442  0  0  -0.116544  0  3.981472  0  0  -0.117628  0  4.000773  0  0  -0.091819  -0.11577  0  3.968096  0
C  C69  1  0.82343365  0.47449720  0.03816026  1  0  -0.093874  0  3.731466  0  0  -0.116587  0  3.981499  0  0  -0.117672  0  4.000804  0  0  -0.091794  -0.11581  0  3.968121  0
N  N70  1  0.29046564  0.33711371  0.54687282  1  0  -0.391912  0  3.228527  0  0  -0.311836  0  3.508131  0  0  -0.334499  0  3.526184  0  0  -0.356006  -0.29633  0  3.495373  0
N  N71  1  0.70953239  0.66288729  0.45312684  1  0  -0.391895  0  3.228428  0  0  -0.311825  0  3.508043  0  0  -0.334488  0  3.526097  0  0  -0.355978  -0.296318  0  3.495284  0
N  N72  1  0.23332284  0.22132910  0.73452252  1  0  -0.093686  0  3.590248  0  0  -0.002792  0  3.801873  0  0  -0.017593  0  3.826567  0  0  -0.223845  0.00695  0  3.785122  0
N  N73  1  0.76667810  0.77867096  0.26547776  1  0  -0.093789  0  3.590354  0  0  -0.002878  0  3.801999  0  0  -0.017678  0  3.826693  0  0  -0.223871  0.006864  0  3.785249  0
N  N74  1  0.30565123  0.81493302  0.15458715  1  0  -0.083296  0  3.576826  0  0  0.006341  0  3.788436  0  0  -0.00815  0  3.812945  0  0  -0.218816  0.015861  0  3.771873  0
N  N75  1  0.69434311  0.18506692  0.84541425  1  0  -0.083223  0  3.576742  0  0  0.006406  0  3.788353  0  0  -0.008086  0  3.812861  0  0  -0.218825  0.015926  0  3.771789  0
N  N76  1  0.38525391  0.61771640  0.27488490  1  0  -0.385421  0  3.231813  0  0  -0.306975  0  3.512422  0  0  -0.329063  0  3.530482  0  0  -0.355278  -0.29195  0  3.499909  0
N  N77  1  0.61474385  0.38228053  0.72511506  1  0  -0.385437  0  3.231849  0  0  -0.306994  0  3.512466  0  0  -0.329087  0  3.530537  0  0  -0.355273  -0.291967  0  3.499949  0
O  O78  1  0.71373285  0.31276483  0.37742235  1  0  -0.632969  0  1.998954  0  0  -0.561135  0  2.240979  0  0  -0.590786  0  2.231481  0  0  -0.323261  -0.540341  0  2.246663  0
O  O79  1  0.28627096  0.68723414  0.62257187  1  0  -0.633087  0  1.999036  0  0  -0.561237  0  2.241038  0  0  -0.590888  0  2.231534  0  0  -0.323347  -0.540442  0  2.246723  0
O  O80  1  0.57319545  0.14361258  0.39222786  1  0  -0.626783  0  1.959069  0  0  -0.566303  0  2.193298  0  0  -0.592201  0  2.182234  0  0  -0.322199  -0.548185  0  2.20011  0
O  O81  1  0.42680627  0.85638440  0.60777059  1  0  -0.626823  0  1.959085  0  0  -0.56636  0  2.193358  0  0  -0.592238  0  2.182261  0  0  -0.322213  -0.548253  0  2.200198  0
O  O82  1  0.41753049  0.39141662  0.12469511  1  0  -0.63697  0  1.954688  0  0  -0.58108  0  2.191452  0  0  -0.606791  0  2.180705  0  0  -0.325301  -0.563315  0  2.198256  0
O  O83  1  0.58246729  0.60859046  0.87530464  1  0  -0.636828  0  1.954753  0  0  -0.580936  0  2.191504  0  0  -0.60665  0  2.180763  0  0  -0.325264  -0.56317  0  2.198302  0
O  O84  1  0.17727020  0.38996034  0.27462233  1  0  -0.628893  0  2.018725  0  0  -0.554659  0  2.260952  0  0  -0.585064  0  2.25259  0  0  -0.323296  -0.53379  0  2.266335  0
O  O85  1  0.82273050  0.61003575  0.72538241  1  0  -0.629004  0  2.018796  0  0  -0.554786  0  2.261035  0  0  -0.585191  0  2.252664  0  0  -0.323383  -0.533917  0  2.266418  0
