# generated using pymatgen
data_ZnH6(C2O3)2
_symmetry_space_group_name_H-M   'P 1'
_cell_length_a   7.76391830
_cell_length_b   10.15384594
_cell_length_c   14.69602110
_cell_angle_alpha   90.00046852
_cell_angle_beta   89.99964462
_cell_angle_gamma   114.55705903
_symmetry_Int_Tables_number   1
_chemical_formula_structural   ZnH6(C2O3)2
_chemical_formula_sum   'Zn6 H36 C24 O36'
_cell_volume   1053.74818574
_cell_formula_units_Z   6
loop_
 _symmetry_equiv_pos_site_id
 _symmetry_equiv_pos_as_xyz
  1  'x, y, z'
loop_
 _atom_site_type_symbol
 _atom_site_label
 _atom_site_symmetry_multiplicity
 _atom_site_fract_x
 _atom_site_fract_y
 _atom_site_fract_z
 _atom_site_occupancy
 _atom_site_hle17_bader_spin_density
 _atom_site_hle17_ddec_charge
 _atom_site_hle17_ddec_spin_density
 _atom_site_hle17_ddec_sum_bond_order
 _atom_site_hle17_magmom
 _atom_site_hse06_10hf_bader_spin_density
 _atom_site_hse06_10hf_ddec_charge
 _atom_site_hse06_10hf_ddec_spin_density
 _atom_site_hse06_10hf_ddec_sum_bond_order
 _atom_site_hse06_10hf_magmom
 _atom_site_hse06_bader_spin_density
 _atom_site_hse06_ddec_charge
 _atom_site_hse06_ddec_spin_density
 _atom_site_hse06_ddec_sum_bond_order
 _atom_site_hse06_magmom
 _atom_site_pbe_bader_spin_density
 _atom_site_pbe_cm5_charge
 _atom_site_pbe_ddec_charge
 _atom_site_pbe_ddec_spin_density
 _atom_site_pbe_ddec_sum_bond_order
 _atom_site_pbe_magmom
Zn  Zn0  1  0.50598631  0.78255641  0.89746476  1  0  1.2063  0  1.661554  0  0  1.049654  0  2.102098  0  0  1.097701  0  2.040847  0  0  0.675563  1.015502  0  2.144585  0
Zn  Zn1  1  0.00598022  0.78255519  0.60253472  1  0  1.206314  0  1.661563  0  0  1.04968  0  2.102106  0  0  1.097731  0  2.040857  0  0  0.675577  1.015531  0  2.144587  0
Zn  Zn2  1  0.49401288  0.21744096  0.10253506  1  0  1.206319  0  1.661611  0  0  1.049662  0  2.102182  0  0  1.097719  0  2.040926  0  0  0.675553  1.015505  0  2.144671  0
Zn  Zn3  1  0.99401619  0.21744428  0.39746510  1  0  1.206315  0  1.661562  0  0  1.049672  0  2.102099  0  0  1.097729  0  2.040849  0  0  0.675572  1.015529  0  2.144583  0
Zn  Zn4  1  0.49999568  0.49999673  0.99999715  1  0  1.187383  0  1.811553  0  0  1.035515  0  2.264556  0  0  1.081311  0  2.205638  0  0  0.68443  1.002764  0  2.30563  0
Zn  Zn5  1  0.99999796  0.50000159  0.49999841  1  0  1.187381  0  1.811545  0  0  1.035508  0  2.264589  0  0  1.081303  0  2.205672  0  0  0.684392  1.002765  0  2.305671  0
H  H6  1  0.19472020  0.84242956  0.90365827  1  0  0.426508  0  0.874245  0  0  0.394001  0  0.939287  0  0  0.405099  0  0.923294  0  0  0.292721  0.38622  0  0.950489  0
H  H7  1  0.69471438  0.84243091  0.59634162  1  0  0.426502  0  0.874254  0  0  0.394002  0  0.939286  0  0  0.405091  0  0.923306  0  0  0.292744  0.386223  0  0.950484  0
H  H8  1  0.80529037  0.15757981  0.09634495  1  0  0.426477  0  0.874297  0  0  0.393978  0  0.939323  0  0  0.405067  0  0.923343  0  0  0.292722  0.386198  0  0.950523  0
H  H9  1  0.30529190  0.15757516  0.40365684  1  0  0.426467  0  0.874295  0  0  0.393965  0  0.939338  0  0  0.405061  0  0.92335  0  0  0.292716  0.386184  0  0.950541  0
H  H10  1  0.32246667  0.88494339  0.99354578  1  0  0.431453  0  0.861306  0  0  0.400461  0  0.930939  0  0  0.411164  0  0.915389  0  0  0.296307  0.393002  0  0.94172  0
H  H11  1  0.82246128  0.88494603  0.50645394  1  0  0.431421  0  0.861375  0  0  0.400412  0  0.931005  0  0  0.411115  0  0.915456  0  0  0.29629  0.39295  0  0.941788  0
H  H12  1  0.67755278  0.11506076  0.00645472  1  0  0.431475  0  0.861317  0  0  0.400445  0  0.930966  0  0  0.41115  0  0.915415  0  0  0.296308  0.392986  0  0.941747  0
H  H13  1  0.17754314  0.11505894  0.49354384  1  0  0.431445  0  0.861342  0  0  0.40044  0  0.930981  0  0  0.411147  0  0.915424  0  0  0.296302  0.39298  0  0.941763  0
H  H14  1  0.75527400  0.89934729  0.02890170  1  0  0.431429  0  0.803415  0  0  0.413892  0  0.85531  0  0  0.422422  0  0.845936  0  0  0.325635  0.407667  0  0.862333  0
H  H15  1  0.25526952  0.89934748  0.47110044  1  0  0.431307  0  0.803466  0  0  0.413784  0  0.855352  0  0  0.422313  0  0.845978  0  0  0.325587  0.407557  0  0.862376  0
H  H16  1  0.24471549  0.10064134  0.97110560  1  0  0.431247  0  0.803527  0  0  0.413729  0  0.855402  0  0  0.422258  0  0.846033  0  0  0.325588  0.407509  0  0.862424  0
H  H17  1  0.74473100  0.10065743  0.52890006  1  0  0.431472  0  0.803413  0  0  0.413901  0  0.855341  0  0  0.42244  0  0.845964  0  0  0.325646  0.407674  0  0.862374  0
H  H18  1  0.85671520  0.89512645  0.93607768  1  0  0.417061  0  0.88875  0  0  0.381321  0  0.95985  0  0  0.393106  0  0.942677  0  0  0.291744  0.373217  0  0.971685  0
H  H19  1  0.35671010  0.89512380  0.56392334  1  0  0.417009  0  0.888794  0  0  0.381273  0  0.959899  0  0  0.393051  0  0.942737  0  0  0.291723  0.373169  0  0.971733  0
H  H20  1  0.14328009  0.10487085  0.06393030  1  0  0.417001  0  0.888832  0  0  0.381242  0  0.959965  0  0  0.39302  0  0.942802  0  0  0.291691  0.373132  0  0.9718  0
H  H21  1  0.64328800  0.10487892  0.43607647  1  0  0.417005  0  0.888819  0  0  0.381274  0  0.959906  0  0  0.393056  0  0.942738  0  0  0.291735  0.373172  0  0.971738  0
H  H22  1  0.55703339  0.89939761  0.73294225  1  0  0.435594  0  0.851634  0  0  0.404453  0  0.913089  0  0  0.414604  0  0.898397  0  0  0.302828  0.397252  0  0.923536  0
H  H23  1  0.05701760  0.89938385  0.76706182  1  0  0.435523  0  0.851753  0  0  0.404426  0  0.91315  0  0  0.414582  0  0.89845  0  0  0.302791  0.397221  0  0.923601  0
H  H24  1  0.44297883  0.10060749  0.26706029  1  0  0.435524  0  0.851746  0  0  0.404433  0  0.913131  0  0  0.414589  0  0.898432  0  0  0.30282  0.397229  0  0.923581  0
H  H25  1  0.94297730  0.10061023  0.23294208  1  0  0.435546  0  0.851725  0  0  0.404452  0  0.913107  0  0  0.414602  0  0.898418  0  0  0.302837  0.397249  0  0.923556  0
H  H26  1  0.63114528  0.02199141  0.81146290  1  0  0.442127  0  0.84197  0  0  0.411737  0  0.903166  0  0  0.422138  0  0.887921  0  0  0.304073  0.404102  0  0.914353  0
H  H27  1  0.13112095  0.02198426  0.68854336  1  0  0.442165  0  0.841916  0  0  0.411807  0  0.903066  0  0  0.422208  0  0.887821  0  0  0.304068  0.404174  0  0.914251  0
H  H28  1  0.36886655  0.97801047  0.18854032  1  0  0.442125  0  0.841962  0  0  0.411782  0  0.90309  0  0  0.422181  0  0.887848  0  0  0.304089  0.40415  0  0.914273  0
H  H29  1  0.86887174  0.97801300  0.31146054  1  0  0.442122  0  0.841956  0  0  0.411779  0  0.903084  0  0  0.422178  0  0.887841  0  0  0.304101  0.404146  0  0.914268  0
H  H30  1  0.97872180  0.41131124  0.17814305  1  0  0.136909  0  0.943962  0  0  0.147769  0  1.0048  0  0  0.150583  0  1.004003  0  0  0.110976  0.145652  0  1.005431  0
H  H31  1  0.47872144  0.41130363  0.32185419  1  0  0.136867  0  0.943957  0  0  0.147734  0  1.004819  0  0  0.150552  0  1.004019  0  0  0.110967  0.145615  0  1.005455  0
H  H32  1  0.02127535  0.58868717  0.82185949  1  0  0.136839  0  0.944057  0  0  0.147769  0  1.00485  0  0  0.150583  0  1.004047  0  0  0.11095  0.145645  0  1.005479  0
H  H33  1  0.52127623  0.58868835  0.67813610  1  0  0.136857  0  0.944012  0  0  0.147776  0  1.004807  0  0  0.150596  0  1.004009  0  0  0.110982  0.145652  0  1.005436  0
H  H34  1  0.05099652  0.46569257  0.06524953  1  0  0.123247  0  0.91091  0  0  0.138177  0  0.967211  0  0  0.140724  0  0.965579  0  0  0.109133  0.13606  0  0.96878  0
H  H35  1  0.55098227  0.46568523  0.43474873  1  0  0.123321  0  0.910784  0  0  0.13825  0  0.967106  0  0  0.140794  0  0.965482  0  0  0.109167  0.136132  0  0.968676  0
H  H36  1  0.94900267  0.53430480  0.93475301  1  0  0.123279  0  0.910844  0  0  0.138231  0  0.967122  0  0  0.140765  0  0.965504  0  0  0.109164  0.136134  0  0.968667  0
H  H37  1  0.44900705  0.53430554  0.56524428  1  0  0.123306  0  0.910883  0  0  0.138286  0  0.967095  0  0  0.14082  0  0.965483  0  0  0.109184  0.136184  0  0.968647  0
H  H38  1  0.40970285  0.72957984  0.27124356  1  0  0.130506  0  0.92836  0  0  0.139329  0  0.987102  0  0  0.144195  0  0.983903  0  0  0.109844  0.135807  0  0.989655  0
H  H39  1  0.90968962  0.72957483  0.22875574  1  0  0.130482  0  0.928456  0  0  0.139333  0  0.987163  0  0  0.144202  0  0.983961  0  0  0.10985  0.135809  0  0.989717  0
H  H40  1  0.59030361  0.27042410  0.72875694  1  0  0.130496  0  0.928388  0  0  0.139334  0  0.98711  0  0  0.144202  0  0.983907  0  0  0.109837  0.13581  0  0.989666  0
H  H41  1  0.09029643  0.27043198  0.77124000  1  0  0.130561  0  0.92839  0  0  0.139372  0  0.987135  0  0  0.144238  0  0.983936  0  0  0.109875  0.135851  0  0.989693  0
C  C42  1  0.34441869  0.70555946  0.09640103  1  0  0.667155  0  3.859678  0  0  0.614531  0  4.15464  0  0  0.648002  0  4.14684  0  0  0.22042  0.591687  0  4.159336  0
C  C43  1  0.84441083  0.70556373  0.40359970  1  0  0.667173  0  3.859492  0  0  0.614543  0  4.154486  0  0  0.648007  0  4.146694  0  0  0.220474  0.591701  0  4.159185  0
C  C44  1  0.65558365  0.29443904  0.90359742  1  0  0.667342  0  3.85941  0  0  0.614621  0  4.154502  0  0  0.648093  0  4.146697  0  0  0.220426  0.591776  0  4.159204  0
C  C45  1  0.15558393  0.29444001  0.59639672  1  0  0.667262  0  3.859526  0  0  0.61454  0  4.154569  0  0  0.648011  0  4.146767  0  0  0.22044  0.591697  0  4.159271  0
C  C46  1  0.25341601  0.58966246  0.16608502  1  0  0.038757  0  3.664344  0  0  0.052503  0  3.914696  0  0  0.051356  0  3.933611  0  0  -0.003141  0.05298  0  3.902014  0
C  C47  1  0.75340468  0.58965850  0.33392147  1  0  0.0386  0  3.664029  0  0  0.052323  0  3.914492  0  0  0.051189  0  3.933396  0  0  -0.003166  0.0528  0  3.901811  0
C  C48  1  0.74658950  0.41033716  0.83391820  1  0  0.038762  0  3.664113  0  0  0.052579  0  3.914476  0  0  0.051437  0  3.933374  0  0  -0.003074  0.053051  0  3.901805  0
C  C49  1  0.24658784  0.41034091  0.66607427  1  0  0.038707  0  3.66401  0  0  0.052608  0  3.914228  0  0  0.051473  0  3.933109  0  0  -0.003103  0.053086  0  3.901549  0
C  C50  1  0.10140000  0.44885594  0.13257987  1  0  -0.309431  0  3.685731  0  0  -0.35369  0  3.932874  0  0  -0.35954  0  3.939084  0  0  -0.161487  -0.349257  0  3.928384  0
C  C51  1  0.60139364  0.44885238  0.36741881  1  0  -0.309439  0  3.685681  0  0  -0.353741  0  3.932957  0  0  -0.359601  0  3.939175  0  0  -0.161512  -0.349305  0  3.928463  0
C  C52  1  0.89860179  0.55114147  0.86742267  1  0  -0.309448  0  3.68583  0  0  -0.353806  0  3.932984  0  0  -0.359657  0  3.93921  0  0  -0.161537  -0.349384  0  3.928486  0
C  C53  1  0.39860182  0.55114278  0.63257420  1  0  -0.309543  0  3.685972  0  0  -0.353905  0  3.933073  0  0  -0.359768  0  3.939306  0  0  -0.1616  -0.349475  0  3.928567  0
C  C54  1  0.16061246  0.32520528  0.12012775  1  0  0.767096  0  3.751298  0  0  0.707746  0  4.05914  0  0  0.743146  0  4.049015  0  0  0.237201  0.683569  0  4.065356  0
C  C55  1  0.66061533  0.32520736  0.37987275  1  0  0.767146  0  3.751013  0  0  0.70777  0  4.058915  0  0  0.743186  0  4.048782  0  0  0.237237  0.683603  0  4.065127  0
C  C56  1  0.83938933  0.67479213  0.87987411  1  0  0.76701  0  3.75129  0  0  0.707642  0  4.059165  0  0  0.743059  0  4.049026  0  0  0.237215  0.683463  0  4.065379  0
C  C57  1  0.33938870  0.67479438  0.62012366  1  0  0.767213  0  3.751035  0  0  0.70783  0  4.058932  0  0  0.743232  0  4.048807  0  0  0.237299  0.683655  0  4.06515  0
C  C58  1  0.30677172  0.62097256  0.25342158  1  0  -0.238295  0  3.618741  0  0  -0.272522  0  3.880212  0  0  -0.279428  0  3.892999  0  0  -0.092662  -0.268038  0  3.871731  0
C  C59  1  0.80676378  0.62097318  0.24657402  1  0  -0.238149  0  3.61842  0  0  -0.272361  0  3.879887  0  0  -0.279271  0  3.892673  0  0  -0.092595  -0.267878  0  3.871411  0
C  C60  1  0.69322933  0.37902591  0.74657755  1  0  -0.238272  0  3.618411  0  0  -0.27252  0  3.879827  0  0  -0.279428  0  3.892611  0  0  -0.092645  -0.268038  0  3.87135  0
C  C61  1  0.19322504  0.37903153  0.75342103  1  0  -0.238397  0  3.61825  0  0  -0.272636  0  3.879662  0  0  -0.279546  0  3.892447  0  0  -0.092683  -0.26816  0  3.871191  0
C  C62  1  0.22157550  0.52222056  0.33098461  1  0  0.725076  0  3.860337  0  0  0.679501  0  4.151873  0  0  0.715341  0  4.14223  0  0  0.214155  0.655132  0  4.157666  0
C  C63  1  0.72157194  0.52221299  0.16901887  1  0  0.724933  0  3.860425  0  0  0.679326  0  4.152022  0  0  0.715163  0  4.142377  0  0  0.21403  0.65495  0  4.15782  0
C  C64  1  0.77842503  0.47778434  0.66901997  1  0  0.725006  0  3.860306  0  0  0.679463  0  4.151821  0  0  0.7153  0  4.142181  0  0  0.214092  0.655093  0  4.157611  0
C  C65  1  0.27842859  0.47779191  0.83097687  1  0  0.725117  0  3.86015  0  0  0.679521  0  4.151751  0  0  0.715349  0  4.14211  0  0  0.214114  0.655151  0  4.157548  0
O  O66  1  0.32774761  0.88124302  0.92604382  1  0  -0.844502  0  1.93492  0  0  -0.783925  0  2.152895  0  0  -0.806443  0  2.116148  0  0  -0.581514  -0.767778  0  2.17788  0
O  O67  1  0.82774269  0.88124310  0.57395859  1  0  -0.844516  0  1.934958  0  0  -0.783901  0  2.152952  0  0  -0.806418  0  2.116208  0  0  -0.58153  -0.767754  0  2.17793  0
O  O68  1  0.67226482  0.11876745  0.07395804  1  0  -0.84453  0  1.934975  0  0  -0.783902  0  2.152994  0  0  -0.806417  0  2.116245  0  0  -0.581528  -0.767754  0  2.177975  0
O  O69  1  0.17225931  0.11875968  0.42604123  1  0  -0.844503  0  1.934964  0  0  -0.78392  0  2.152908  0  0  -0.806437  0  2.11615  0  0  -0.581522  -0.76777  0  2.177886  0
O  O70  1  0.76458524  0.92792947  0.96517628  1  0  -0.803016  0  1.901892  0  0  -0.745381  0  2.101252  0  0  -0.766174  0  2.070315  0  0  -0.563643  -0.730748  0  2.122497  0
O  O71  1  0.26457904  0.92792652  0.53482728  1  0  -0.802847  0  1.901938  0  0  -0.745234  0  2.101307  0  0  -0.766026  0  2.070387  0  0  -0.563595  -0.730603  0  2.122544  0
O  O72  1  0.23540706  0.07206456  0.03483306  1  0  -0.802796  0  1.902007  0  0  -0.745141  0  2.101356  0  0  -0.765936  0  2.070435  0  0  -0.563566  -0.730507  0  2.12262  0
O  O73  1  0.73541664  0.07207401  0.46517390  1  0  -0.803036  0  1.90198  0  0  -0.745357  0  2.10128  0  0  -0.766162  0  2.070352  0  0  -0.563663  -0.730723  0  2.122519  0
O  O74  1  0.62899681  0.92887937  0.79026453  1  0  -0.815203  0  1.859632  0  0  -0.751124  0  2.043521  0  0  -0.772682  0  2.008648  0  0  -0.567687  -0.735935  0  2.068279  0
O  O75  1  0.12897567  0.92887140  0.70973675  1  0  -0.815174  0  1.859708  0  0  -0.751164  0  2.043451  0  0  -0.772731  0  2.008585  0  0  -0.567628  -0.735971  0  2.068205  0
O  O76  1  0.37101316  0.07112141  0.20973664  1  0  -0.815118  0  1.859762  0  0  -0.751141  0  2.043548  0  0  -0.772702  0  2.008669  0  0  -0.567677  -0.73595  0  2.068306  0
O  O77  1  0.87101386  0.07112473  0.29026375  1  0  -0.815149  0  1.859712  0  0  -0.751152  0  2.043495  0  0  -0.772719  0  2.008641  0  0  -0.567706  -0.735964  0  2.068257  0
O  O78  1  0.34687564  0.82892444  0.10684639  1  0  -0.600113  0  1.98014  0  0  -0.544783  0  2.195203  0  0  -0.568702  0  2.185142  0  0  -0.295789  -0.527899  0  2.201615  0
O  O79  1  0.84686521  0.82892106  0.39315845  1  0  -0.599996  0  1.980212  0  0  -0.544668  0  2.195293  0  0  -0.568584  0  2.185235  0  0  -0.295796  -0.527793  0  2.201707  0
O  O80  1  0.65314473  0.17107650  0.89315479  1  0  -0.600172  0  1.979963  0  0  -0.544823  0  2.195091  0  0  -0.568745  0  2.18503  0  0  -0.29581  -0.527939  0  2.201503  0
O  O81  1  0.15313211  0.17107521  0.60684137  1  0  -0.600092  0  1.980125  0  0  -0.544738  0  2.195232  0  0  -0.568659  0  2.185173  0  0  -0.295795  -0.527859  0  2.201645  0
O  O82  1  0.41174072  0.66785360  0.02507879  1  0  -0.715302  0  2.193782  0  0  -0.636554  0  2.478334  0  0  -0.668023  0  2.462235  0  0  -0.320088  -0.614041  0  2.48846  0
O  O83  1  0.91173014  0.66785422  0.47492559  1  0  -0.715317  0  2.193491  0  0  -0.636598  0  2.478135  0  0  -0.668074  0  2.462042  0  0  -0.320099  -0.614072  0  2.488232  0
O  O84  1  0.58824413  0.33213602  0.97491899  1  0  -0.715409  0  2.193693  0  0  -0.636628  0  2.4783  0  0  -0.668098  0  2.462201  0  0  -0.320074  -0.614102  0  2.4884  0
O  O85  1  0.08825549  0.33214185  0.52507559  1  0  -0.715363  0  2.193623  0  0  -0.636624  0  2.478261  0  0  -0.668098  0  2.462167  0  0  -0.3201  -0.614103  0  2.488365  0
O  O86  1  0.03512446  0.19514993  0.12432803  1  0  -0.653478  0  1.998273  0  0  -0.579254  0  2.205221  0  0  -0.606014  0  2.192886  0  0  -0.298958  -0.561105  0  2.21365  0
O  O87  1  0.53512957  0.19514879  0.37567893  1  0  -0.65353  0  1.998151  0  0  -0.579254  0  2.205071  0  0  -0.606058  0  2.192764  0  0  -0.299006  -0.561105  0  2.213504  0
O  O88  1  0.96487659  0.80484854  0.87567859  1  0  -0.653477  0  1.998309  0  0  -0.579211  0  2.205214  0  0  -0.606029  0  2.192922  0  0  -0.298973  -0.561066  0  2.213651  0
O  O89  1  0.46487352  0.80484865  0.62431885  1  0  -0.653509  0  1.998214  0  0  -0.579272  0  2.205177  0  0  -0.60604  0  2.192848  0  0  -0.299006  -0.56113  0  2.213616  0
O  O90  1  0.33363059  0.35561867  0.10224312  1  0  -0.693026  0  2.186679  0  0  -0.613689  0  2.466187  0  0  -0.644383  0  2.451952  0  0  -0.309338  -0.592313  0  2.475702  0
O  O91  1  0.83364135  0.35562642  0.39775223  1  0  -0.692957  0  2.186454  0  0  -0.613619  0  2.466005  0  0  -0.644308  0  2.451759  0  0  -0.309326  -0.592267  0  2.475538  0
O  O92  1  0.66636747  0.64437654  0.89775329  1  0  -0.692888  0  2.186569  0  0  -0.61355  0  2.466096  0  0  -0.644239  0  2.451853  0  0  -0.309311  -0.592173  0  2.475605  0
O  O93  1  0.16636697  0.64437862  0.60224555  1  0  -0.693046  0  2.186489  0  0  -0.613698  0  2.466035  0  0  -0.644396  0  2.451801  0  0  -0.309368  -0.592328  0  2.475552  0
O  O94  1  0.16388871  0.38610016  0.31733096  1  0  -0.651153  0  2.038373  0  0  -0.578148  0  2.291076  0  0  -0.607455  0  2.277758  0  0  -0.310782  -0.557798  0  2.299641  0
O  O95  1  0.66388207  0.38608946  0.18267329  1  0  -0.651037  0  2.038427  0  0  -0.57805  0  2.291197  0  0  -0.607364  0  2.277895  0  0  -0.310723  -0.557689  0  2.299757  0
O  O96  1  0.83611961  0.61390487  0.68267635  1  0  -0.651091  0  2.038373  0  0  -0.578113  0  2.291088  0  0  -0.607394  0  2.277728  0  0  -0.310804  -0.557765  0  2.299649  0
O  O97  1  0.33612716  0.61391238  0.81731973  1  0  -0.651136  0  2.038372  0  0  -0.578177  0  2.291196  0  0  -0.607463  0  2.277874  0  0  -0.310802  -0.557824  0  2.299756  0
O  O98  1  0.21335693  0.58448886  0.40528791  1  0  -0.649412  0  1.996791  0  0  -0.593781  0  2.252093  0  0  -0.621375  0  2.238404  0  0  -0.327696  -0.574338  0  2.260929  0
O  O99  1  0.71335421  0.58447630  0.09471255  1  0  -0.649396  0  1.996717  0  0  -0.593754  0  2.252018  0  0  -0.621364  0  2.238366  0  0  -0.327695  -0.574307  0  2.260854  0
O  O100  1  0.78664121  0.41552138  0.59471191  1  0  -0.649406  0  1.996733  0  0  -0.593815  0  2.252051  0  0  -0.621416  0  2.238374  0  0  -0.327698  -0.574376  0  2.260888  0
O  O101  1  0.28664129  0.41552638  0.90528250  1  0  -0.649369  0  1.996578  0  0  -0.593766  0  2.251938  0  0  -0.621367  0  2.238273  0  0  -0.327688  -0.57432  0  2.260772  0
