# generated using pymatgen
data_DyH12C8SNO13
_symmetry_space_group_name_H-M   'P 1'
_cell_length_a   7.87079188
_cell_length_b   9.85702842
_cell_length_c   10.88408692
_cell_angle_alpha   64.81132376
_cell_angle_beta   85.03870562
_cell_angle_gamma   80.23706506
_symmetry_Int_Tables_number   1
_chemical_formula_structural   DyH12C8SNO13
_chemical_formula_sum   'Dy2 H24 C16 S2 N2 O26'
_cell_volume   752.95830681
_cell_formula_units_Z   2
loop_
 _symmetry_equiv_pos_site_id
 _symmetry_equiv_pos_as_xyz
  1  'x, y, z'
loop_
 _atom_site_type_symbol
 _atom_site_label
 _atom_site_symmetry_multiplicity
 _atom_site_fract_x
 _atom_site_fract_y
 _atom_site_fract_z
 _atom_site_occupancy
 _atom_site_pbe_bader_charge
 _atom_site_pbe_bader_spin_density
 _atom_site_pbe_cm5_charge
 _atom_site_pbe_ddec_charge
 _atom_site_pbe_ddec_spin_density
 _atom_site_pbe_ddec_sum_bond_order
 _atom_site_pbe_magmom
Dy  Dy0  1  0.78779068  0.07612041  0.77554872  1  2.180152  0  1.491329  2.060291  0  2.092421  0
Dy  Dy1  1  0.21220739  0.92386871  0.22445374  1  2.180323  0  1.491321  2.060215  0  2.092378  0
H  H2  1  0.77281394  0.17174464  0.34931112  1  0.124343  0  0.109026  0.09932  0  1.007616  0
H  H3  1  0.22718111  0.82825354  0.65067761  1  0.124302  0  0.109012  0.099251  0  1.007786  0
H  H4  1  0.57319296  0.09592393  0.37571938  1  0.13636  0  0.117626  0.111268  0  1.013692  0
H  H5  1  0.42680101  0.90407361  0.62426883  1  0.136391  0  0.117679  0.111407  0  1.013589  0
H  H6  1  0.40740433  0.35373485  0.31232576  1  0.083753  0  0.092289  0.060677  0  1.058418  0
H  H7  1  0.59258697  0.64625773  0.68767556  1  0.083858  0  0.092276  0.060699  0  1.058435  0
H  H8  1  0.54963820  0.31032171  0.44873215  1  0.135754  0  0.117932  0.115289  0  0.988995  0
H  H9  1  0.45035519  0.68966894  0.55126645  1  0.13577  0  0.117922  0.115323  0  0.988997  0
H  H10  1  0.44461300  0.28616677  0.72911253  1  0.643572  0  0.303738  0.403743  0  0.92768  0
H  H11  1  0.55539710  0.71383006  0.27090085  1  0.64452  0  0.303754  0.403735  0  0.927702  0
H  H12  1  0.59763906  0.37711100  0.66368856  1  0.624426  0  0.319491  0.407884  0  0.896238  0
H  H13  1  0.40237709  0.62287894  0.33631892  1  0.624365  0  0.319455  0.407843  0  0.896276  0
H  H14  1  0.46771603  0.91042239  0.86275812  1  0.648417  0  0.313095  0.404922  0  0.920769  0
H  H15  1  0.53228021  0.08957207  0.13724948  1  0.648454  0  0.313109  0.404938  0  0.920743  0
H  H16  1  0.42293510  0.06417052  0.87985111  1  0.647707  0  0.309799  0.400186  0  0.934368  0
H  H17  1  0.57706624  0.93582192  0.12015852  1  0.647645  0  0.309754  0.400094  0  0.934492  0
H  H18  1  0.91782661  0.33192513  0.59149253  1  0.627967  0  0.324113  0.423526  0  0.870545  0
H  H19  1  0.08217313  0.66805850  0.40853523  1  0.628379  0  0.324161  0.423547  0  0.870513  0
H  H20  1  0.00194607  0.22260055  0.52174352  1  0.658819  0  0.302905  0.39792  0  0.934018  0
H  H21  1  0.99805444  0.77739824  0.47826440  1  0.659131  0  0.302967  0.398002  0  0.933931  0
H  H22  1  0.14093374  0.12984037  0.82238196  1  0.64966  0  0.301906  0.398936  0  0.934538  0
H  H23  1  0.85906203  0.87016034  0.17761472  1  0.649651  0  0.301896  0.398965  0  0.934494  0
H  H24  1  0.12761059  0.95777759  0.90245692  1  0.631076  0  0.307175  0.407864  0  0.922179  0
H  H25  1  0.87239897  0.04222497  0.09753907  1  0.630914  0  0.307202  0.407943  0  0.922053  0
C  C26  1  0.75543816  0.39654552  0.96481445  1  -0.072168  0  -0.036385  -0.224181  0  3.978278  0
C  C27  1  0.24456487  0.60346301  0.03518371  1  -0.072381  0  -0.036346  -0.224079  0  3.978226  0
C  C28  1  0.68848232  0.35838732  0.09586578  1  0.477095  0  0.076087  0.144554  0  4.052265  0
C  C29  1  0.31151006  0.64162254  0.90412638  1  0.476573  0  0.076052  0.144432  0  4.052338  0
C  C30  1  0.63724494  0.19545503  0.32058458  1  0.320413  0  -0.076078  -0.031614  0  3.833225  0
C  C31  1  0.36274843  0.80454369  0.67940594  1  0.32106  0  -0.076099  -0.031715  0  3.833423  0
C  C32  1  0.54287489  0.32961613  0.34226709  1  0.334125  0  -0.074089  -0.026134  0  3.857964  0
C  C33  1  0.45711853  0.67038489  0.65772811  1  0.333536  0  -0.074129  -0.026268  0  3.858023  0
C  C34  1  0.68339756  0.47623882  0.13997381  1  0.594179  0  0.078325  0.14901  0  4.082131  0
C  C35  1  0.31659484  0.52376567  0.86002375  1  0.594302  0  0.078344  0.149067  0  4.082057  0
C  C36  1  0.74963549  0.60176937  0.04147296  1  -0.146318  0  -0.041434  -0.25997  0  4.01461  0
C  C37  1  0.25036501  0.39823390  0.95853047  1  -0.146379  0  -0.041487  -0.26004  0  4.014802  0
C  C38  1  0.77298820  0.74327343  0.04614119  1  1.572055  0  0.221548  0.652706  0  4.180994  0
C  C39  1  0.22701506  0.25672634  0.95386458  1  1.571852  0  0.221645  0.652788  0  4.180869  0
C  C40  1  0.78295530  0.30467536  0.88670854  1  1.57635  0  0.194833  0.609036  0  4.257483  0
C  C41  1  0.21704918  0.69534496  0.11327664  1  1.576508  0  0.194862  0.608869  0  4.257152  0
S  S42  1  0.81424044  0.57539889  0.89632106  1  0.290942  0  0.101001  0.178678  0  3.031238  0
S  S43  1  0.18576218  0.42461282  0.10367625  1  0.291183  0  0.101027  0.178725  0  3.031385  0
N  N44  1  0.80985535  0.91413134  0.60297745  1  0.825808  0  0.087118  0.708972  0  4.453852  0
N  N45  1  0.19013743  0.08585960  0.39702436  1  0.825851  0  0.087182  0.709123  0  4.453678  0
O  O46  1  0.63422667  0.22413661  0.17719590  1  -1.073576  0  -0.167599  -0.173603  0  2.548334  0
O  O47  1  0.36576460  0.77586762  0.82279375  1  -1.073282  0  -0.167583  -0.173487  0  2.548287  0
O  O48  1  0.62306179  0.46524041  0.26339326  1  -1.054498  0  -0.171253  -0.1688  0  2.52936  0
O  O49  1  0.37692549  0.53475483  0.73660656  1  -1.054551  0  -0.171245  -0.168756  0  2.529018  0
O  O50  1  0.84556031  0.83800470  0.94259982  1  -1.208047  0  -0.425964  -0.675857  0  2.318789  0
O  O51  1  0.15444724  0.16199493  0.05741076  1  -1.207985  0  -0.42595  -0.675863  0  2.318653  0
O  O52  1  0.72332096  0.76696291  0.15165277  1  -1.189274  0  -0.297012  -0.553413  0  2.205926  0
O  O53  1  0.27668887  0.23303500  0.84835371  1  -1.189156  0  -0.297067  -0.553453  0  2.205901  0
O  O54  1  0.75280337  0.16580239  0.94674739  1  -1.192953  0  -0.397615  -0.665091  0  2.296481  0
O  O55  1  0.24720360  0.83421821  0.05323053  1  -1.1935  0  -0.397689  -0.665025  0  2.296165  0
O  O56  1  0.83239638  0.36209088  0.76324726  1  -1.206878  0  -0.340262  -0.613646  0  2.129642  0
O  O57  1  0.16760207  0.63794670  0.23674042  1  -1.206498  0  -0.340281  -0.613587  0  2.129519  0
O  O58  1  0.94767615  0.91901124  0.65293640  1  -0.541465  0  -0.201365  -0.486279  0  2.052716  0
O  O59  1  0.05231308  0.08097521  0.34707572  1  -0.541623  0  -0.201304  -0.486214  0  2.052674  0
O  O60  1  0.67137409  0.99039937  0.62559809  1  -0.566398  0  -0.228851  -0.502091  0  2.063264  0
O  O61  1  0.32862061  0.00959801  0.37440075  1  -0.566523  0  -0.228877  -0.502168  0  2.063314  0
O  O62  1  0.80561673  0.83904026  0.53580117  1  -0.507783  0  -0.133475  -0.366585  0  1.984491  0
O  O63  1  0.19437905  0.16095507  0.46420089  1  -0.507643  0  -0.133565  -0.366708  0  1.984265  0
O  O64  1  0.55449835  0.28479065  0.67625235  1  -1.237524  0  -0.626308  -0.827618  0  2.073782  0
O  O65  1  0.44550701  0.71520451  0.32375338  1  -1.238418  0  -0.626274  -0.827554  0  2.073808  0
O  O66  1  0.51904328  0.99342648  0.86531150  1  -1.269448  0  -0.651319  -0.851217  0  2.152585  0
O  O67  1  0.48095485  0.00656853  0.13469205  1  -1.269432  0  -0.651289  -0.851139  0  2.152647  0
O  O68  1  0.89493616  0.25323102  0.56553669  1  -1.254583  0  -0.638012  -0.839057  0  2.04087  0
O  O69  1  0.10505967  0.74676482  0.43447185  1  -1.255296  0  -0.638093  -0.839155  0  2.040823  0
O  O70  1  0.07781781  0.04948235  0.82383543  1  -1.262064  0  -0.662324  -0.869672  0  2.103061  0
O  O71  1  0.92218620  0.95051683  0.17615929  1  -1.261893  0  -0.662335  -0.869711  0  2.102981  0
