# generated using pymatgen
data_Zn2H10C14N3O7
_symmetry_space_group_name_H-M   'P 1'
_cell_length_a   8.04130988
_cell_length_b   8.54051091
_cell_length_c   12.21855904
_cell_angle_alpha   101.46479154
_cell_angle_beta   94.91279583
_cell_angle_gamma   95.28495868
_symmetry_Int_Tables_number   1
_chemical_formula_structural   Zn2H10C14N3O7
_chemical_formula_sum   'Zn4 H20 C28 N6 O14'
_cell_volume   814.23470164
_cell_formula_units_Z   2
loop_
 _symmetry_equiv_pos_site_id
 _symmetry_equiv_pos_as_xyz
  1  'x, y, z'
loop_
 _atom_site_type_symbol
 _atom_site_label
 _atom_site_symmetry_multiplicity
 _atom_site_fract_x
 _atom_site_fract_y
 _atom_site_fract_z
 _atom_site_occupancy
 _atom_site_hle17_bader_spin_density
 _atom_site_hle17_ddec_charge
 _atom_site_hle17_ddec_spin_density
 _atom_site_hle17_ddec_sum_bond_order
 _atom_site_hle17_magmom
 _atom_site_hse06_10hf_bader_spin_density
 _atom_site_hse06_10hf_ddec_charge
 _atom_site_hse06_10hf_ddec_spin_density
 _atom_site_hse06_10hf_ddec_sum_bond_order
 _atom_site_hse06_10hf_magmom
 _atom_site_hse06_bader_spin_density
 _atom_site_hse06_ddec_charge
 _atom_site_hse06_ddec_spin_density
 _atom_site_hse06_ddec_sum_bond_order
 _atom_site_hse06_magmom
 _atom_site_pbe_bader_spin_density
 _atom_site_pbe_cm5_charge
 _atom_site_pbe_ddec_charge
 _atom_site_pbe_ddec_spin_density
 _atom_site_pbe_ddec_sum_bond_order
 _atom_site_pbe_magmom
Zn  Zn0  1  0.81750645  0.91578353  0.89654365  1  0  1.000543  0  1.889922  0  0  0.808464  0  2.375397  0  0  0.853737  0  2.32228  0  0  0.721034  0.77692  0  2.411916  0
Zn  Zn1  1  0.18247900  0.08420451  0.10346950  1  0  1.000701  0  1.889744  0  0  0.808617  0  2.375265  0  0  0.853893  0  2.322139  0  0  0.721101  0.777069  0  2.411781  0
Zn  Zn2  1  0.36419260  0.50817527  0.78216121  1  0  1.084953  0  1.78  0  0  0.904898  0  2.252803  0  0  0.952485  0  2.194968  0  0  0.695932  0.871533  0  2.29269  0
Zn  Zn3  1  0.63578988  0.49182023  0.21783799  1  0  1.085022  0  1.779882  0  0  0.904931  0  2.252723  0  0  0.952516  0  2.194887  0  0  0.695953  0.871574  0  2.292596  0
H  H4  1  0.57404255  0.72170131  0.48620895  1  0  0.093018  0  0.983938  0  0  0.101163  0  1.050583  0  0  0.104469  0  1.048501  0  0  0.1011  0.098716  0  1.05225  0
H  H5  1  0.42598659  0.27832202  0.51379932  1  0  0.093143  0  0.984119  0  0  0.101365  0  1.050658  0  0  0.104673  0  1.04857  0  0  0.101235  0.098909  0  1.052324  0
H  H6  1  0.82550047  0.31878642  0.83739603  1  0  0.115235  0  0.94381  0  0  0.12392  0  1.004989  0  0  0.12773  0  1.002638  0  0  0.109676  0.121068  0  1.0069  0
H  H7  1  0.17447514  0.68119808  0.16260916  1  0  0.115316  0  0.943828  0  0  0.123964  0  1.004976  0  0  0.12775  0  1.002657  0  0  0.10972  0.121143  0  1.006862  0
H  H8  1  0.18256476  0.99873749  0.67470177  1  0  0.096035  0  0.950515  0  0  0.105039  0  1.011979  0  0  0.108416  0  1.010383  0  0  0.097899  0.102605  0  1.013222  0
H  H9  1  0.81743142  0.00126069  0.32528758  1  0  0.095982  0  0.950576  0  0  0.104989  0  1.012028  0  0  0.108364  0  1.010437  0  0  0.097903  0.102548  0  1.013277  0
H  H10  1  0.58094643  0.17718419  0.00687209  1  0  0.113403  0  0.925356  0  0  0.125773  0  0.979985  0  0  0.128151  0  0.97706  0  0  0.145671  0.123893  0  0.982239  0
H  H11  1  0.41904532  0.82281616  0.99312865  1  0  0.113163  0  0.925495  0  0  0.125533  0  0.980131  0  0  0.127908  0  0.977209  0  0  0.145527  0.12366  0  0.982385  0
H  H12  1  0.98117303  0.34119410  0.26086130  1  0  0.122881  0  0.920206  0  0  0.131216  0  0.979941  0  0  0.133733  0  0.977017  0  0  0.148385  0.129251  0  0.982162  0
H  H13  1  0.01881221  0.65880733  0.73914392  1  0  0.122926  0  0.92007  0  0  0.13125  0  0.979838  0  0  0.13377  0  0.976909  0  0  0.148383  0.129284  0  0.982064  0
H  H14  1  0.55872595  0.63289400  0.64819429  1  0  0.43456  0  0.872743  0  0  0.400529  0  0.94044  0  0  0.412176  0  0.923856  0  0  0.290566  0.392334  0  0.952083  0
H  H15  1  0.44127833  0.36710993  0.35181220  1  0  0.434515  0  0.872808  0  0  0.400463  0  0.940541  0  0  0.412112  0  0.923955  0  0  0.290518  0.392262  0  0.952194  0
H  H16  1  0.36932427  0.56342223  0.58859828  1  0  0.435648  0  0.808862  0  0  0.416172  0  0.864087  0  0  0.424507  0  0.854951  0  0  0.325207  0.410248  0  0.870592  0
H  H17  1  0.63068385  0.43659139  0.41140667  1  0  0.435612  0  0.80886  0  0  0.41614  0  0.864087  0  0  0.424473  0  0.85495  0  0  0.325178  0.410216  0  0.870603  0
H  H18  1  0.10312579  0.24692079  0.90574863  1  0  0.106038  0  0.946488  0  0  0.113988  0  1.010396  0  0  0.11804  0  1.007172  0  0  0.105522  0.111024  0  1.012893  0
H  H19  1  0.89684450  0.75306362  0.09426016  1  0  0.10608  0  0.946443  0  0  0.113999  0  1.010413  0  0  0.118052  0  1.007184  0  0  0.105463  0.111032  0  1.012905  0
H  H20  1  0.42355092  0.79643494  0.32199948  1  0  0.107743  0  0.942953  0  0  0.117104  0  1.004408  0  0  0.120816  0  1.001621  0  0  0.107243  0.114415  0  1.006515  0
H  H21  1  0.57647350  0.20359077  0.67800869  1  0  0.107554  0  0.943025  0  0  0.117035  0  1.004359  0  0  0.120732  0  1.001593  0  0  0.107264  0.114343  0  1.006467  0
H  H22  1  0.06449402  0.73741764  0.54264726  1  0  0.106076  0  0.94606  0  0  0.114687  0  1.009054  0  0  0.118668  0  1.005864  0  0  0.102583  0.111796  0  1.011433  0
H  H23  1  0.93551157  0.26257955  0.45733298  1  0  0.106135  0  0.946063  0  0  0.114667  0  1.009119  0  0  0.118644  0  1.005937  0  0  0.102592  0.11178  0  1.011487  0
C  C24  1  0.58439671  0.95771018  0.59296672  1  0  -0.067698  0  3.761254  0  0  -0.042769  0  3.990099  0  0  -0.050787  0  4.014442  0  0  -0.014807  -0.037425  0  3.973575  0
C  C25  1  0.41564758  0.04233256  0.40703916  1  0  -0.067655  0  3.761238  0  0  -0.042568  0  3.989856  0  0  -0.050586  0  4.014204  0  0  -0.014832  -0.037222  0  3.973329  0
C  C26  1  0.53977078  0.84320518  0.49275912  1  0  -0.076376  0  3.742159  0  0  -0.101428  0  3.993429  0  0  -0.103224  0  4.015709  0  0  -0.083882  -0.100098  0  3.978325  0
C  C27  1  0.46026518  0.15682210  0.50723312  1  0  -0.07683  0  3.742241  0  0  -0.102044  0  3.993601  0  0  -0.103831  0  4.015865  0  0  -0.084149  -0.100701  0  3.97849  0
C  C28  1  0.67447344  0.91090783  0.69112629  1  0  0.646895  0  3.884794  0  0  0.597167  0  4.170101  0  0  0.631831  0  4.163002  0  0  0.212358  0.573661  0  4.174069  0
C  C29  1  0.32554399  0.08909866  0.30887685  1  0  0.647007  0  3.884465  0  0  0.597272  0  4.169678  0  0  0.631934  0  4.162583  0  0  0.212296  0.573764  0  4.17365  0
C  C30  1  0.84591054  0.54195237  0.96036844  1  0  -0.089494  0  3.786329  0  0  -0.066781  0  4.022099  0  0  -0.074706  0  4.045613  0  0  -0.021382  -0.06152  0  4.006213  0
C  C31  1  0.15406589  0.45803349  0.03962882  1  0  -0.089321  0  3.786112  0  0  -0.066744  0  4.021938  0  0  -0.074658  0  4.045447  0  0  -0.021498  -0.061477  0  4.006055  0
C  C32  1  0.90231391  0.39770333  0.90842492  1  0  -0.058547  0  3.700521  0  0  -0.083553  0  3.952093  0  0  -0.084353  0  3.972197  0  0  -0.081285  -0.082838  0  3.938402  0
C  C33  1  0.09765916  0.60229081  0.09157978  1  0  -0.058705  0  3.700793  0  0  -0.083566  0  3.952315  0  0  -0.084373  0  3.972463  0  0  -0.081257  -0.082878  0  3.938609  0
C  C34  1  0.68216529  0.58693107  0.91661544  1  0  0.679234  0  3.85305  0  0  0.627107  0  4.140422  0  0  0.663049  0  4.131434  0  0  0.226197  0.602611  0  4.145866  0
C  C35  1  0.31781822  0.41305239  0.08338376  1  0  0.67904  0  3.853646  0  0  0.627107  0  4.140741  0  0  0.663029  0  4.131773  0  0  0.226172  0.602609  0  4.146188  0
C  C36  1  0.06326071  0.14461263  0.57365534  1  0  -0.052926  0  3.744752  0  0  -0.029428  0  3.974077  0  0  -0.036639  0  3.997706  0  0  -0.016514  -0.02465  0  3.958067  0
C  C37  1  0.93675235  0.85540155  0.42632064  1  0  -0.052813  0  3.745156  0  0  -0.029464  0  3.974735  0  0  -0.036674  0  3.998367  0  0  -0.016614  -0.024693  0  3.958725  0
C  C38  1  0.10127115  0.99739731  0.59841700  1  0  -0.071  0  3.737713  0  0  -0.095524  0  3.991739  0  0  -0.0968  0  4.013534  0  0  -0.087858  -0.094543  0  3.976915  0
C  C39  1  0.89873793  0.00257702  0.40156274  1  0  -0.071168  0  3.73825  0  0  -0.095666  0  3.9923  0  0  -0.09694  0  4.01409  0  0  -0.087942  -0.094682  0  3.977478  0
C  C40  1  0.13976036  0.30064336  0.64677947  1  0  0.630121  0  3.917731  0  0  0.58519  0  4.203068  0  0  0.618794  0  4.197347  0  0  0.196951  0.562417  0  4.206067  0
C  C41  1  0.86025162  0.69935129  0.35321081  1  0  0.630319  0  3.917193  0  0  0.585392  0  4.202613  0  0  0.619  0  4.196879  0  0  0.197023  0.562615  0  4.20562  0
C  C42  1  0.70011911  0.18659029  0.05785592  1  0  0.24758  0  3.664089  0  0  0.187325  0  3.93262  0  0  0.202414  0  3.944666  0  0  0.162428  0.177465  0  3.924322  0
C  C43  1  0.29987203  0.81340641  0.94214670  1  0  0.247779  0  3.664112  0  0  0.187565  0  3.932627  0  0  0.202661  0  3.944667  0  0  0.162526  0.177696  0  3.924332  0
C  C44  1  0.90418537  0.27058050  0.18704681  1  0  0.241619  0  3.660592  0  0  0.182465  0  3.930593  0  0  0.197068  0  3.94393  0  0  0.166036  0.172927  0  3.921427  0
C  C45  1  0.09580078  0.72941852  0.81295897  1  0  0.24159  0  3.66043  0  0  0.182435  0  3.930432  0  0  0.197034  0  3.943772  0  0  0.166015  0.172901  0  3.921269  0
C  C46  1  0.05613226  0.35628106  0.94792393  1  0  -0.077091  0  3.746157  0  0  -0.102609  0  4.004163  0  0  -0.102997  0  4.023755  0  0  -0.087094  -0.102222  0  3.99084  0
C  C47  1  0.94385379  0.64370828  0.05208373  1  0  -0.077231  0  3.746505  0  0  -0.102749  0  4.004417  0  0  -0.103151  0  4.024026  0  0  -0.087169  -0.10237  0  3.991125  0
C  C48  1  0.45590168  0.88466419  0.40027829  1  0  -0.046978  0  3.699559  0  0  -0.073069  0  3.950486  0  0  -0.073289  0  3.970179  0  0  -0.076361  -0.072843  0  3.937142  0
C  C49  1  0.54415022  0.11535083  0.59973086  1  0  -0.046487  0  3.699038  0  0  -0.07261  0  3.950006  0  0  -0.072814  0  3.969694  0  0  -0.076312  -0.072382  0  3.936659  0
C  C50  1  0.03841930  0.85366720  0.52519341  1  0  -0.076096  0  3.727941  0  0  -0.100565  0  3.98056  0  0  -0.101981  0  4.00171  0  0  -0.0863  -0.099487  0  3.966139  0
C  C51  1  0.96160066  0.14633841  0.47479262  1  0  -0.075907  0  3.727696  0  0  -0.100335  0  3.980232  0  0  -0.101745  0  4.001374  0  0  -0.086201  -0.099261  0  3.965805  0
N  N52  1  0.81856822  0.08965822  0.03582891  1  0  -0.287725  0  3.232448  0  0  -0.21653  0  3.531182  0  0  -0.233838  0  3.544629  0  0  -0.256417  -0.204996  0  3.522107  0
N  N53  1  0.18141686  0.91033353  0.96417900  1  0  -0.287609  0  3.232326  0  0  -0.216428  0  3.531022  0  0  -0.233739  0  3.544469  0  0  -0.256264  -0.204887  0  3.521943  0
N  N54  1  0.94977077  0.14357922  0.11867344  1  0  -0.298226  0  3.252818  0  0  -0.226097  0  3.555918  0  0  -0.244256  0  3.569432  0  0  -0.25899  -0.214016  0  3.546831  0
N  N55  1  0.05021326  0.85641490  0.88133554  1  0  -0.298328  0  3.252984  0  0  -0.226128  0  3.556005  0  0  -0.244287  0  3.569523  0  0  -0.259031  -0.214054  0  3.546929  0
N  N56  1  0.74845316  0.30098301  0.15188667  1  0  -0.438912  0  3.264037  0  0  -0.35417  0  3.571196  0  0  -0.378179  0  3.579299  0  0  -0.352122  -0.338138  0  3.565532  0
N  N57  1  0.25153727  0.69901849  0.84811658  1  0  -0.438922  0  3.264026  0  0  -0.35429  0  3.571308  0  0  -0.378294  0  3.579395  0  0  -0.352163  -0.338255  0  3.565643  0
O  O58  1  0.46241408  0.54276307  0.63845174  1  0  -0.822098  0  1.916376  0  0  -0.752659  0  2.129063  0  0  -0.775193  0  2.097582  0  0  -0.559116  -0.736861  0  2.150827  0
O  O59  1  0.53758477  0.45724805  0.36155529  1  0  -0.822064  0  1.916422  0  0  -0.752597  0  2.129106  0  0  -0.775127  0  2.097627  0  0  -0.559079  -0.736801  0  2.150884  0
O  O60  1  0.71667792  0.02088245  0.78095625  1  0  -0.624624  0  2.019277  0  0  -0.551019  0  2.28146  0  0  -0.580248  0  2.267778  0  0  -0.32298  -0.530572  0  2.290104  0
O  O61  1  0.28331645  0.97910801  0.21905889  1  0  -0.624644  0  2.019165  0  0  -0.55104  0  2.281305  0  0  -0.580264  0  2.267622  0  0  -0.322885  -0.530594  0  2.28995  0
O  O62  1  0.70702824  0.76717231  0.68656646  1  0  -0.633492  0  1.976208  0  0  -0.572662  0  2.19402  0  0  -0.598075  0  2.183393  0  0  -0.317967  -0.554919  0  2.200806  0
O  O63  1  0.29299216  0.23283195  0.31342762  1  0  -0.633539  0  1.975968  0  0  -0.572722  0  2.193796  0  0  -0.598137  0  2.183166  0  0  -0.317957  -0.554977  0  2.200586  0
O  O64  1  0.66030468  0.73514130  0.92416920  1  0  -0.650108  0  2.092752  0  0  -0.578861  0  2.370586  0  0  -0.606102  0  2.35289  0  0  -0.320923  -0.559835  0  2.382193  0
O  O65  1  0.33966697  0.26484224  0.07582156  1  0  -0.650205  0  2.093292  0  0  -0.578995  0  2.371002  0  0  -0.606227  0  2.353299  0  0  -0.320959  -0.559971  0  2.382619  0
O  O66  1  0.56845265  0.47205858  0.87310361  1  0  -0.601479  0  2.02368  0  0  -0.527341  0  2.284571  0  0  -0.555559  0  2.268958  0  0  -0.30351  -0.507784  0  2.294765  0
O  O67  1  0.43152738  0.52792609  0.12689381  1  0  -0.601412  0  2.023723  0  0  -0.52738  0  2.284591  0  0  -0.555586  0  2.268979  0  0  -0.303541  -0.507831  0  2.294793  0
O  O68  1  0.24195365  0.29161018  0.73359155  1  0  -0.654331  0  2.010409  0  0  -0.580135  0  2.272182  0  0  -0.610128  0  2.258956  0  0  -0.335874  -0.559049  0  2.280486  0
O  O69  1  0.75805247  0.70837838  0.26639979  1  0  -0.654487  0  2.010404  0  0  -0.580274  0  2.27222  0  0  -0.610259  0  2.258976  0  0  -0.335892  -0.559182  0  2.280516  0
O  O70  1  0.11174136  0.43234767  0.62151164  1  0  -0.634422  0  1.89338  0  0  -0.587015  0  2.110062  0  0  -0.60974  0  2.099362  0  0  -0.331237  -0.571087  0  2.116878  0
O  O71  1  0.88828066  0.56765054  0.37848418  1  0  -0.634518  0  1.893189  0  0  -0.587116  0  2.109923  0  0  -0.609843  0  2.099218  0  0  -0.331292  -0.571186  0  2.116745  0
