# generated using pymatgen
data_H12RuC20N(O2F)2
_symmetry_space_group_name_H-M   'P 1'
_cell_length_a   9.86311085
_cell_length_b   10.87737319
_cell_length_c   11.38424543
_cell_angle_alpha   66.04026266
_cell_angle_beta   66.35912074
_cell_angle_gamma   65.33354331
_symmetry_Int_Tables_number   1
_chemical_formula_structural   H12RuC20N(O2F)2
_chemical_formula_sum   'H24 Ru2 C40 N2 O8 F4'
_cell_volume   974.05501422
_cell_formula_units_Z   2
loop_
 _symmetry_equiv_pos_site_id
 _symmetry_equiv_pos_as_xyz
  1  'x, y, z'
loop_
 _atom_site_type_symbol
 _atom_site_label
 _atom_site_symmetry_multiplicity
 _atom_site_fract_x
 _atom_site_fract_y
 _atom_site_fract_z
 _atom_site_occupancy
 _atom_site_pbe_bader_charge
 _atom_site_pbe_bader_spin_density
 _atom_site_pbe_cm5_charge
 _atom_site_pbe_ddec_charge
 _atom_site_pbe_ddec_spin_density
 _atom_site_pbe_ddec_sum_bond_order
 _atom_site_pbe_magmom
H  H0  1  0.02097023  0.85243151  0.13013510  1  0.098277  0.000125  0.109476  0.116957  0.000131  0.998407  0.0
H  H1  1  0.97913111  0.14777764  0.86945012  1  0.099801  0.000149  0.109483  0.116859  0.000138  0.998905  0.0
H  H2  1  0.86466162  0.07832880  0.19752193  1  0.076881  4e-06  0.111107  0.135024  4e-06  0.996396  0.0
H  H3  1  0.13543559  0.92156729  0.80255318  1  0.075257  -2e-06  0.110799  0.134418  -4e-06  0.99727  0.0
H  H4  1  0.28583657  0.14044014  0.15649029  1  0.121767  7e-06  0.112916  0.142221  6e-06  0.994938  0.0
H  H5  1  0.71417188  0.85956578  0.84360202  1  0.119423  4e-06  0.11257  0.141454  2e-06  0.995795  0.0
H  H6  1  0.44165852  0.91762679  0.08753638  1  0.087895  0.000117  0.107617  0.111486  0.000108  1.014811  0.0
H  H7  1  0.55843310  0.08268814  0.91209090  1  0.088656  0.000135  0.107709  0.111994  0.000107  1.014163  0.0
H  H8  1  0.69186948  0.25912887  0.38737500  1  0.123798  -0.000109  0.10783  0.115077  -9.9e-05  1.011984  0.0
H  H9  1  0.30788211  0.74120245  0.61284011  1  0.123284  -0.000106  0.107767  0.115195  -0.000115  1.011675  0.0
H  H10  1  0.67790806  0.10248452  0.62428067  1  0.101885  -0.0  0.108331  0.132128  -1e-06  1.007201  0.0
H  H11  1  0.32223508  0.89720755  0.37575608  1  0.102996  -3e-06  0.108471  0.132471  -4e-06  1.006977  0.0
H  H12  1  0.23885007  0.07649342  0.66038473  1  0.109544  -1e-06  0.107134  0.123724  -4e-06  1.025942  0.0
H  H13  1  0.76124270  0.92330518  0.33957011  1  0.110505  -2e-06  0.107163  0.123781  -3e-06  1.025592  0.0
H  H14  1  0.25504907  0.22854491  0.42339179  1  0.071163  -0.000146  0.111876  0.11748  -0.000108  0.985036  0.0
H  H15  1  0.74477131  0.77183816  0.57673865  1  0.112894  -0.000108  0.111748  0.117275  -9.8e-05  0.985348  0.0
H  H16  1  0.13899032  0.49074153  0.23905640  1  0.13118  -0.000705  0.102036  0.115432  -0.000873  1.063804  0.0
H  H17  1  0.86086464  0.50947447  0.76046568  1  0.127607  8.4e-05  0.102126  0.115406  0.00024  1.064938  0.0
H  H18  1  0.90220607  0.55526169  0.41877494  1  0.047429  -7e-06  0.096993  0.09418  -2e-06  1.006899  0.0
H  H19  1  0.09776351  0.44472148  0.58106139  1  0.046738  -2.7e-05  0.096895  0.093662  -3.2e-05  1.007415  0.0
H  H20  1  0.64037129  0.61633213  0.39122226  1  0.079497  1.4e-05  0.093324  0.091031  2.9e-05  1.037785  0.0
H  H21  1  0.35949101  0.38366287  0.60882532  1  0.080363  2e-06  0.093371  0.091145  1e-05  1.037792  0.0
H  H22  1  0.61804008  0.60966018  0.18602224  1  0.105134  -0.000144  0.103416  0.118548  -0.000298  1.053479  0.0
H  H23  1  0.38145261  0.39065891  0.81411608  1  0.107161  0.000629  0.103747  0.119331  0.000759  1.052009  0.0
Ru  Ru24  1  0.38710517  0.48433560  0.00786420  1  1.179906  0.000639  0.701468  0.694556  0.001073  3.837374  0.0
Ru  Ru25  1  0.61367373  0.51589967  0.99205433  1  1.18373  -0.001564  0.704222  0.697368  -0.002252  3.838695  -0.002
C  C26  1  0.33333487  0.73884855  0.06807220  1  1.481758  0.001626  0.212253  0.537165  0.001965  4.143279  0.003
C  C27  1  0.66711368  0.26139796  0.93139010  1  1.478113  0.0015  0.211856  0.53676  0.00175  4.147049  0.003
C  C28  1  0.24062240  0.87134793  0.10598020  1  0.036872  -0.000392  -0.025396  -0.058643  -0.000415  4.005856  0.0
C  C29  1  0.75964054  0.12905200  0.89316657  1  -0.058521  -0.00037  -0.026205  -0.058662  -0.000421  4.006165  0.0
C  C30  1  0.07781807  0.91556696  0.13664268  1  -0.092139  9.9e-05  -0.077781  -0.062844  8.9e-05  3.966638  0.0
C  C31  1  0.92238912  0.08467795  0.86275099  1  0.006289  0.000153  -0.077564  -0.062273  0.000139  3.967163  0.0
C  C32  1  0.99074636  0.03847840  0.17557690  1  0.058098  -4.3e-05  -0.101806  -0.21925  -4.3e-05  4.007281  0.0
C  C33  1  0.00939138  0.96155777  0.82418166  1  0.054599  5.4e-05  -0.101549  -0.218892  5.9e-05  4.008468  0.0
C  C34  1  0.06866537  0.11383039  0.18488256  1  0.335966  -4e-06  0.103272  0.302855  -0.0  4.052593  0.0
C  C35  1  0.93138878  0.88618583  0.81502986  1  0.336455  3.1e-05  0.102665  0.301928  3.4e-05  4.053337  0.0
C  C36  1  0.22979070  0.07578530  0.15134986  1  0.075337  -4.4e-05  -0.098829  -0.21763  -4.2e-05  3.995815  0.0
C  C37  1  0.77025937  0.92435125  0.84846258  1  0.076012  3.8e-05  -0.099224  -0.21752  5e-05  3.996363  0.0
C  C38  1  0.31540624  0.95277233  0.11216815  1  -0.02929  9.9e-05  -0.077241  -0.064025  9e-05  3.970306  0.0
C  C39  1  0.68470627  0.04756771  0.88730499  1  -0.030536  0.000163  -0.076945  -0.064277  0.000154  3.969629  0.0
C  C40  1  0.48311809  0.34169893  0.25218665  1  1.484808  -0.001467  0.210476  0.53131  -0.00176  4.154905  -0.003
C  C41  1  0.51681406  0.65880943  0.74812369  1  1.48986  -0.001597  0.21095  0.531294  -0.00198  4.1518  -0.003
C  C42  1  0.47438667  0.25243957  0.39177654  1  -0.015386  0.000362  -0.025406  -0.060666  0.00041  4.015102  0.0
C  C43  1  0.52513741  0.74832946  0.60866802  1  -0.017968  0.00038  -0.025098  -0.059819  0.000399  4.014105  0.0
C  C44  1  0.59386427  0.21778278  0.44771982  1  -0.055793  -0.000124  -0.075658  -0.063936  -0.000112  3.957398  0.0
C  C45  1  0.40581779  0.78268503  0.55262184  1  -0.065326  -8e-05  -0.07627  -0.065542  -7.4e-05  3.957965  0.0
C  C46  1  0.58682006  0.13129840  0.57852396  1  0.007624  -7e-06  -0.099761  -0.213451  -6e-06  3.995552  0.0
C  C47  1  0.41304604  0.86881638  0.42168110  1  0.01021  3.2e-05  -0.099347  -0.213213  3.1e-05  3.994797  0.0
C  C48  1  0.45835487  0.08234641  0.65132576  1  0.417946  -5e-06  0.105302  0.300158  -6e-06  4.057794  0.0
C  C49  1  0.54156216  0.91771751  0.34876977  1  0.420586  2.9e-05  0.106045  0.301198  3.6e-05  4.057197  0.0
C  C50  1  0.33758573  0.11605683  0.59922460  1  0.010561  -2e-05  -0.098184  -0.212996  -2e-05  4.020472  0.0
C  C51  1  0.66226000  0.88412118  0.40090055  1  -0.022403  4.2e-05  -0.097923  -0.212678  4e-05  4.020414  0.0
C  C52  1  0.34676413  0.20103471  0.46812083  1  -0.001339  -0.000143  -0.075139  -0.0611  -0.000132  3.971328  0.0
C  C53  1  0.65293960  0.79947626  0.53210506  1  -0.010736  -9e-05  -0.075055  -0.061249  -7.8e-05  3.972093  0.0
C  C54  1  0.01671188  0.51016805  0.10886278  1  0.475151  -0.000183  0.112307  0.165753  -0.000234  3.987131  0.0
C  C55  1  0.98282814  0.48921134  0.89129711  1  0.465946  0.000126  0.11165  0.166516  0.00034  3.98299  0.0
C  C56  1  0.02516750  0.51700753  0.22779903  1  -0.058716  0.001437  -0.097637  -0.162842  0.001151  3.980093  0.001
C  C57  1  0.97456861  0.48296782  0.77203510  1  -0.017787  0.001448  -0.098012  -0.163627  0.001464  3.980575  0.001
C  C58  1  0.89296226  0.55231891  0.32768185  1  -0.053078  -0.001839  -0.096334  -0.078696  -0.001667  4.038809  -0.001
C  C59  1  0.10689493  0.44758389  0.67224538  1  -0.08532  -0.00168  -0.09604  -0.077599  -0.00164  4.037813  -0.001
C  C60  1  0.74472717  0.58642834  0.31245786  1  -0.020912  0.00182  -0.095348  -0.073509  0.001773  4.027998  0.001
C  C61  1  0.25506191  0.41346397  0.68757548  1  -0.021498  0.001946  -0.095407  -0.073975  0.001774  4.027092  0.001
C  C62  1  0.73152619  0.58208416  0.19859551  1  -0.047501  -0.001372  -0.095418  -0.155983  -0.001419  3.955467  -0.001
C  C63  1  0.26808495  0.41787347  0.80148164  1  -0.034383  -0.001349  -0.095745  -0.156117  -0.001107  3.954306  -0.001
C  C64  1  0.86547176  0.54023157  0.09531343  1  0.469617  0.000136  0.111887  0.167488  -9.3e-05  3.978392  0.0
C  C65  1  0.13400093  0.45913840  0.90495978  1  0.455024  0.000436  0.111868  0.166075  0.000468  3.981  0.0
N  N66  1  0.14958869  0.47192787  0.01267844  1  -1.15038  8.2e-05  -0.307427  -0.283673  0.000134  3.368057  0.0
N  N67  1  0.84984497  0.52713245  0.98768270  1  -1.156156  4.7e-05  -0.308755  -0.284761  0.000114  3.373492  0.0
O  O68  1  0.26171920  0.66830823  0.06092773  1  -1.094969  0.013411  -0.299383  -0.459529  0.013649  2.481281  0.008
O  O69  1  0.73886687  0.33105370  0.93965292  1  -1.095646  0.016977  -0.298926  -0.460574  0.01718  2.47974  0.01
O  O70  1  0.48149212  0.69900362  0.04606968  1  -1.086737  0.01318  -0.301812  -0.464536  0.013532  2.477139  0.008
O  O71  1  0.51892736  0.30066342  0.95445372  1  -1.081841  0.017647  -0.302606  -0.465758  0.017836  2.477969  0.011
O  O72  1  0.37615955  0.36310329  0.20269787  1  -1.099735  -0.017737  -0.303532  -0.466649  -0.017761  2.489808  -0.011
O  O73  1  0.62467890  0.63625460  0.79719695  1  -1.095881  -0.013482  -0.302702  -0.464999  -0.013693  2.48843  -0.008
O  O74  1  0.59720729  0.39243421  0.18685617  1  -1.097034  -0.01692  -0.297438  -0.455933  -0.017072  2.489326  -0.01
O  O75  1  0.40357567  0.60688389  0.81329495  1  -1.098388  -0.01319  -0.297601  -0.454912  -0.01342  2.492298  -0.008
F  F76  1  0.98212998  0.22936303  0.23045255  1  -0.639897  -6.5e-05  -0.089002  -0.136937  -5.3e-05  1.37455  0.0
F  F77  1  0.01785206  0.77035048  0.76988958  1  -0.639449  -8.4e-05  -0.08943  -0.137378  -0.000111  1.374384  0.0
F  F78  1  0.44917706  0.99794956  0.77979164  1  -0.642576  -6e-06  -0.090668  -0.140263  -8e-06  1.351821  0.0
F  F79  1  0.55096268  0.00167894  0.22017624  1  -0.642286  4e-06  -0.090524  -0.139781  -6e-06  1.351041  0.0
