# generated using pymatgen
data_CoH24C27(NO)4
_symmetry_space_group_name_H-M   'P 1'
_cell_length_a   10.76980181
_cell_length_b   11.19247529
_cell_length_c   11.56100000
_cell_angle_alpha   64.96374051
_cell_angle_beta   83.28210167
_cell_angle_gamma   67.69523723
_symmetry_Int_Tables_number   1
_chemical_formula_structural   CoH24C27(NO)4
_chemical_formula_sum   'Co2 H48 C54 N8 O8'
_cell_volume   1166.57560980
_cell_formula_units_Z   2
loop_
 _symmetry_equiv_pos_site_id
 _symmetry_equiv_pos_as_xyz
  1  'x, y, z'
loop_
 _atom_site_type_symbol
 _atom_site_label
 _atom_site_symmetry_multiplicity
 _atom_site_fract_x
 _atom_site_fract_y
 _atom_site_fract_z
 _atom_site_occupancy
 _atom_site_hle17_ddec_charge
 _atom_site_hle17_ddec_spin_density
 _atom_site_hle17_ddec_sum_bond_order
 _atom_site_hle17_magmom
 _atom_site_hse06_10hf_ddec_charge
 _atom_site_hse06_10hf_ddec_spin_density
 _atom_site_hse06_10hf_ddec_sum_bond_order
 _atom_site_hse06_10hf_magmom
 _atom_site_hse06_ddec_charge
 _atom_site_hse06_ddec_spin_density
 _atom_site_hse06_ddec_sum_bond_order
 _atom_site_hse06_magmom
 _atom_site_pbe_bader_charge
 _atom_site_pbe_bader_spin_density
 _atom_site_pbe_cm5_charge
 _atom_site_pbe_ddec_charge
 _atom_site_pbe_ddec_spin_density
 _atom_site_pbe_ddec_sum_bond_order
 _atom_site_pbe_magmom
Co  Co0  1  0.79849199  0.18355375  0.33240951  1  0.980012  2.816474  1.96781  2.524  0.926699  2.821513  2.414212  2.582  1.019091  2.869334  2.326504  2.674  1.199306  2.556805  0.679974  0.853535  2.775046  2.480603  2.495
Co  Co1  1  0.20150827  0.81644517  0.66758874  1  0.98001  2.81647  1.967807  2.524  0.926667  2.821514  2.414256  2.582  1.019088  2.869326  2.326539  2.674  1.199285  2.556781  0.679958  0.85351  2.775029  2.480641  2.495
H  H2  1  0.80184189  0.52487828  0.33138663  1  0.136401  -0.000662  0.934414  -0.001  0.158038  -0.000169  0.993219  0.0  0.160605  -0.000111  0.99242  0.0  0.075159  -0.000346  0.103203  0.156418  -0.000345  0.993143  0.0
H  H3  1  0.19815539  0.47512383  0.66861237  1  0.136433  -0.000679  0.93436  -0.001  0.15804  -0.000169  0.993201  0.0  0.160607  -0.000112  0.992403  0.0  0.07513  -0.000346  0.103198  0.15642  -0.000345  0.993125  0.0
H  H4  1  0.70762698  0.65202620  0.18715807  1  0.127897  -0.000166  0.951932  0.0  0.149504  -1e-06  1.010025  0.0  0.151808  1.1e-05  1.009841  0.0  0.008835  -0.0  0.099722  0.147492  -4e-06  1.010733  0.0
H  H5  1  0.29237103  0.34797379  0.81284085  1  0.127902  -0.000172  0.951923  0.0  0.149525  -1e-06  1.009999  0.0  0.151829  1.1e-05  1.009814  0.0  0.008808  -0.0  0.099736  0.147512  -4e-06  1.010708  0.0
H  H6  1  0.81261088  0.47882104  0.19970733  1  0.152659  -0.000186  0.98904  0.0  0.169382  5e-06  1.049025  0.0  0.172499  -1.5e-05  1.047852  0.0  0.156809  5.6e-05  0.105749  0.16688  1.6e-05  1.050188  0.0
H  H7  1  0.18738807  0.52117895  0.80029323  1  0.152644  -0.000194  0.989077  0.0  0.169372  4e-06  1.049051  0.0  0.172489  -1.5e-05  1.047877  0.0  0.156796  5.6e-05  0.105748  0.166871  1.6e-05  1.050213  0.0
H  H8  1  0.53049131  0.13534581  0.41622007  1  0.111427  1.8e-05  0.958145  0.0  0.120973  0.000202  1.019693  0.0  0.123966  0.000106  1.018619  0.0  0.109105  0.000687  0.107491  0.118732  0.000289  1.02055  0.0
H  H9  1  0.46950316  0.86465630  0.58378270  1  0.111395  1.8e-05  0.958161  0.0  0.120976  0.000202  1.019666  0.0  0.123951  0.000106  1.018615  0.0  0.109064  0.000687  0.107476  0.118735  0.000289  1.020523  0.0
H  H10  1  0.29553174  0.18065577  0.48915607  1  0.101531  3.1e-05  0.964728  0.0  0.109813  -1.7e-05  1.029292  0.0  0.113459  -6.5e-05  1.027744  0.0  0.110315  0.000278  0.09949  0.106844  4.2e-05  1.030936  0.0
H  H11  1  0.70446627  0.81934422  0.51084977  1  0.101589  3.5e-05  0.96462  0.0  0.109833  -1.7e-05  1.029228  0.0  0.113479  -6.4e-05  1.02768  0.0  0.110292  0.000278  0.099471  0.106864  4.2e-05  1.030872  0.0
H  H12  1  0.15495058  0.41248742  0.49068255  1  0.079143  -5.4e-05  0.969687  0.0  0.09139  -6e-06  1.029887  0.0  0.093896  -5e-06  1.028727  0.0  0.050731  -7e-06  0.096092  0.089879  -2e-05  1.029922  0.0
H  H13  1  0.84504613  0.58751363  0.50932300  1  0.079181  -6e-05  0.969678  0.0  0.091435  -6e-06  1.02986  0.0  0.093945  -6e-06  1.028699  0.0  0.050776  -7e-06  0.096084  0.089916  -2e-05  1.029902  0.0
H  H14  1  0.23967858  0.61224511  0.41372550  1  0.122234  9.7e-05  0.941877  0.0  0.134301  6.6e-05  0.999276  0.0  0.137467  3.3e-05  0.997843  0.0  0.129291  0.000348  0.112366  0.131825  0.000108  1.000633  0.0
H  H15  1  0.76031963  0.38775700  0.58627599  1  0.122156  9.5e-05  0.941854  0.0  0.13423  6.6e-05  0.999275  0.0  0.137395  3.3e-05  0.99784  0.0  0.129316  0.000348  0.112327  0.131752  0.000108  1.000635  0.0
H  H16  1  0.54971300  0.73860970  0.31145023  1  0.077496  -6.6e-05  0.933223  0.0  0.094048  -2.4e-05  0.994123  0.0  0.094053  -1.9e-05  0.995419  0.0  0.052289  -2e-06  0.112619  0.093783  -3.1e-05  0.993552  0.0
H  H17  1  0.45028408  0.26139029  0.68855053  1  0.077466  -6.4e-05  0.933263  0.0  0.094009  -2.4e-05  0.994167  0.0  0.094014  -1.9e-05  0.995464  0.0  0.051879  -2e-06  0.112614  0.093749  -3.1e-05  0.993587  0.0
H  H18  1  0.38814863  0.73898599  0.36211250  1  0.096511  7.1e-05  0.948225  0.0  0.109616  5e-05  1.012016  0.0  0.110854  1.6e-05  1.012329  0.0  0.11051  0.00031  0.115138  0.10856  6.4e-05  1.01186  0.0
H  H19  1  0.61185088  0.26101506  0.63788669  1  0.096516  7.1e-05  0.948209  0.0  0.109618  5e-05  1.012001  0.0  0.110857  1.5e-05  1.012313  0.0  0.110458  0.00031  0.11515  0.108562  6.4e-05  1.011845  0.0
H  H20  1  0.47641577  0.77602385  0.09070288  1  0.065007  2e-06  0.96437  0.0  0.080787  -1.6e-05  1.033875  0.0  0.080862  -1.4e-05  1.034954  0.0  0.046404  6.8e-05  0.09067  0.080633  1.2e-05  1.033228  0.0
H  H21  1  0.52358355  0.22397507  0.90929720  1  0.064997  0.0  0.964395  0.0  0.080773  -1.6e-05  1.033909  0.0  0.080849  -1.4e-05  1.034986  0.0  0.046399  6.9e-05  0.090665  0.08062  1.2e-05  1.033261  0.0
H  H22  1  0.39417672  0.91986223  0.13411524  1  0.084548  1e-06  0.942148  0.0  0.1042  -3e-06  0.998762  0.0  0.104791  -3e-06  0.999974  0.0  0.083344  4.6e-05  0.097301  0.103767  2e-05  0.997857  0.0
H  H23  1  0.60582093  0.08013881  0.86588502  1  0.084525  0.0  0.942177  0.0  0.104192  -3e-06  0.998772  0.0  0.104784  -3e-06  0.999983  0.0  0.083342  4.6e-05  0.097302  0.103759  2e-05  0.997867  0.0
H  H24  1  0.27075684  0.69739445  0.18065574  1  0.067758  -1.1e-05  0.958121  0.0  0.084042  1e-05  1.022609  0.0  0.08385  3e-06  1.02416  0.0  0.040945  8.8e-05  0.10887  0.084222  1.9e-05  1.021424  0.0
H  H25  1  0.72924268  0.30260660  0.81934086  1  0.067754  -1.6e-05  0.958121  0.0  0.084026  1e-05  1.022617  0.0  0.083833  3e-06  1.024168  0.0  0.040937  8.8e-05  0.108869  0.084206  1.9e-05  1.021432  0.0
H  H26  1  0.19115805  0.86510255  0.18452076  1  0.096667  5.4e-05  0.924351  0.0  0.109046  2.1e-05  0.989469  0.0  0.110791  4e-06  0.988553  0.0  0.121445  0.000227  0.115381  0.107463  3.6e-05  0.990546  0.0
H  H27  1  0.80884220  0.13489638  0.81547835  1  0.096641  4.8e-05  0.924351  0.0  0.109027  2.1e-05  0.989462  0.0  0.110771  4e-06  0.988545  0.0  0.12141  0.000227  0.115374  0.107445  3.6e-05  0.990532  0.0
H  H28  1  0.25323342  0.58138482  0.03607776  1  0.149957  -0.000366  0.927529  0.0  0.171839  -4.5e-05  0.983603  0.0  0.174625  -3.9e-05  0.98227  0.0  0.125667  -2.2e-05  0.110429  0.169617  -6.5e-05  0.984829  0.0
H  H29  1  0.74676590  0.41861411  0.96392232  1  0.149975  -0.000366  0.927565  0.0  0.171832  -4.5e-05  0.983662  0.0  0.174617  -3.9e-05  0.98233  0.0  0.125666  -2.2e-05  0.110405  0.16961  -6.5e-05  0.98489  0.0
H  H30  1  0.40975121  0.59671214  0.04728271  1  0.121537  -0.000343  0.947192  0.0  0.143419  -0.000112  1.006267  0.0  0.145564  -7.7e-05  1.005532  0.0  0.046041  -0.000135  0.097709  0.141857  -0.000169  1.0068  0.0
H  H31  1  0.59024961  0.40328784  0.95271591  1  0.12155  -0.000336  0.947226  0.0  0.143436  -0.000112  1.006294  0.0  0.145583  -7.5e-05  1.005558  0.0  0.046039  -0.000134  0.097706  0.141874  -0.000169  1.006826  0.0
H  H32  1  0.35726764  0.60148630  0.90364712  1  0.128035  -0.000374  0.972007  0.0  0.144266  6e-05  1.039406  0.0  0.145613  3.6e-05  1.039355  0.0  0.079329  0.00037  0.101295  0.143325  7.1e-05  1.03948  0.0
H  H33  1  0.64273188  0.39851475  0.09635121  1  0.128047  -0.00037  0.97202  0.0  0.144271  6e-05  1.039418  0.0  0.145618  3.7e-05  1.039368  0.0  0.079352  0.00037  0.101298  0.14333  7.1e-05  1.039492  0.0
H  H34  1  0.12102578  0.12183953  0.04564429  1  0.110482  0.000117  0.967105  0.0  0.119123  6.9e-05  1.031412  0.0  0.121573  3.4e-05  1.031263  0.0  0.104628  0.000422  0.104591  0.117267  0.000116  1.031692  0.0
H  H35  1  0.87897578  0.87815834  0.95435598  1  0.110482  0.000109  0.967155  0.0  0.119189  6.9e-05  1.031388  0.0  0.121641  3.4e-05  1.031234  0.0  0.104616  0.000422  0.104602  0.11733  0.000116  1.031676  0.0
H  H36  1  0.00706745  0.35164556  0.86464273  1  0.098113  -8e-05  0.93974  0.0  0.112501  -4e-05  0.992038  0.0  0.115105  -3.8e-05  0.991342  0.0  0.081748  1e-06  0.103173  0.110473  -4.1e-05  0.992785  0.0
H  H37  1  0.99293170  0.64835654  0.13535866  1  0.098118  -7.3e-05  0.939747  0.0  0.112488  -4e-05  0.992067  0.0  0.115092  -3.7e-05  0.991372  0.0  0.081785  1e-06  0.103168  0.11046  -4.1e-05  0.992814  0.0
H  H38  1  0.98327382  0.36425934  0.64881441  1  0.074468  -2.7e-05  0.981598  0.0  0.087233  -2.5e-05  1.043149  0.0  0.089348  -1.7e-05  1.042625  0.0  0.029965  -2.1e-05  0.092926  0.085995  -3.2e-05  1.042907  0.0
H  H39  1  0.01672643  0.63573959  0.35118730  1  0.074479  -2.8e-05  0.981598  0.0  0.087237  -2.5e-05  1.043152  0.0  0.089355  -1.8e-05  1.042625  0.0  0.02993  -2.1e-05  0.092935  0.086  -3.2e-05  1.042911  0.0
H  H40  1  0.07150997  0.14600604  0.60566997  1  0.133073  -0.000131  0.9337  0.0  0.142475  -8.3e-05  0.990878  0.0  0.146655  -0.000132  0.988088  0.0  0.109119  0.000337  0.114068  0.1392  -8e-06  0.993211  0.0
H  H41  1  0.92848731  0.85399607  0.39432903  1  0.133057  -0.000127  0.93371  0.0  0.142463  -8.3e-05  0.990882  0.0  0.146643  -0.000132  0.98809  0.0  0.109084  0.000337  0.114031  0.13919  -8e-06  0.993212  0.0
H  H42  1  0.53285201  0.04710768  0.65254835  1  0.086061  -0.000143  0.977293  0.0  0.09862  -5.5e-05  1.038505  0.0  0.1012  -5e-05  1.038276  0.0  0.086313  6.3e-05  0.099011  0.096744  -5.5e-05  1.03877  0.0
H  H43  1  0.46715048  0.95289019  0.34745441  1  0.086053  -0.000138  0.977267  0.0  0.098639  -5.5e-05  1.038457  0.0  0.10122  -5.1e-05  1.038225  0.0  0.086259  6.3e-05  0.099015  0.096765  -5.5e-05  1.03872  0.0
H  H44  1  0.45048584  0.88089203  0.83135623  1  0.084997  -0.000147  0.977332  0.0  0.093855  -8.8e-05  1.040703  0.0  0.09615  -0.0001  1.040246  0.0  0.094658  5.9e-05  0.096319  0.092182  -8.8e-05  1.04117  0.0
H  H45  1  0.54952037  0.11910054  0.16864657  1  0.084919  -0.000149  0.977327  0.0  0.0938  -8.8e-05  1.040682  0.0  0.096095  -0.0001  1.040224  0.0  0.094782  5.9e-05  0.096327  0.09213  -8.8e-05  1.041148  0.0
H  H46  1  0.61449044  0.64994122  0.98215892  1  0.076842  -4.9e-05  0.975562  0.0  0.090527  7e-06  1.035698  0.0  0.092287  -6e-06  1.035996  0.0  0.034045  0.000158  0.093778  0.08939  1.1e-05  1.035511  0.0
H  H47  1  0.38551820  0.35005241  0.01784058  1  0.076789  -5.8e-05  0.975622  0.0  0.090483  7e-06  1.035759  0.0  0.092242  -5e-06  1.036056  0.0  0.034006  0.000158  0.093761  0.089343  1.1e-05  1.035577  0.0
H  H48  1  0.86056462  0.59299479  0.95361648  1  0.110506  -2e-06  0.95812  0.0  0.117288  -1.3e-05  1.024844  0.0  0.121389  -3.6e-05  1.021461  0.0  0.129978  0.000159  0.105203  0.114148  -7e-06  1.027639  0.0
H  H49  1  0.13944292  0.40700202  0.04638098  1  0.110522  -2e-06  0.958151  0.0  0.117304  -1.3e-05  1.024872  0.0  0.121403  -3.6e-05  1.021497  0.0  0.130186  0.000159  0.1052  0.114167  -7e-06  1.027663  0.0
C  C50  1  0.74429466  0.53893363  0.25094787  1  -0.416732  -0.000138  3.709371  0.001  -0.498902  0.000252  3.94661  0.001  -0.504895  0.000165  3.950659  0.001  -0.053076  0.000967  -0.23752  -0.494474  0.000274  3.944334  0.001
C  C51  1  0.25570335  0.46106636  0.74905192  1  -0.416758  -0.000115  3.709383  0.001  -0.498919  0.000252  3.946607  0.001  -0.504911  0.000166  3.950656  0.001  -0.053062  0.000967  -0.23754  -0.494488  0.000274  3.944329  0.001
C  C52  1  0.63341868  0.48599817  0.29866957  1  0.411508  -0.01038  3.675231  -0.006  0.38688  0.000714  3.955887  0.002  0.408746  0.000945  3.966432  0.002  0.980194  0.000554  0.232727  0.371511  -0.000323  3.948754  0.001
C  C53  1  0.36657934  0.51400181  0.70132935  1  0.411549  -0.010433  3.675233  -0.006  0.386943  0.000714  3.955881  0.002  0.408809  0.000943  3.966425  0.002  0.980204  0.000554  0.232735  0.371574  -0.000323  3.948747  0.001
C  C54  1  0.51540570  0.34854724  0.37294127  1  0.145164  -0.002046  3.831984  -0.001  0.143821  0.000778  4.084798  0.001  0.147975  0.000374  4.109115  0.001  0.408876  0.00208  0.081464  0.140814  0.00113  4.068529  0.002
C  C55  1  0.48459027  0.65145593  0.62705744  1  0.145172  -0.002132  3.831881  -0.001  0.143792  0.000778  4.084733  0.001  0.147948  0.000371  4.109046  0.001  0.408845  0.00208  0.081389  0.140783  0.00113  4.068464  0.002
C  C56  1  0.46708458  0.23810250  0.41522017  1  -0.140477  0.001476  3.746838  0.002  -0.160311  0.000803  3.999876  0.001  -0.163719  0.000591  4.021229  0.001  -0.018579  0.001929  -0.09231  -0.158085  0.001041  3.985764  0.001
C  C57  1  0.53290859  0.76190066  0.58477971  1  -0.140445  0.001512  3.7467  0.002  -0.160308  0.000803  3.999746  0.001  -0.1637  0.00059  4.021104  0.001  -0.018629  0.001929  -0.092231  -0.158081  0.001042  3.985635  0.001
C  C58  1  0.33642936  0.26441336  0.45646180  1  -0.078171  -0.002012  3.770148  -0.001  -0.094536  -0.00047  4.024633  0.0  -0.096834  -0.000442  4.046531  0.0  -0.071041  -0.000292  -0.099041  -0.093571  -0.000499  4.010776  0.0
C  C59  1  0.66356642  0.73558769  0.54354385  1  -0.078132  -0.002099  3.769902  -0.001  -0.094451  -0.00047  4.024382  0.0  -0.096752  -0.000445  4.046283  0.0  -0.070494  -0.000292  -0.098984  -0.093486  -0.000499  4.010518  0.0
C  C60  1  0.25597419  0.39749717  0.45602694  1  -0.077418  0.000983  3.799252  0.001  -0.093049  0.000231  4.055966  0.0  -0.094906  0.000163  4.078236  0.0  -0.033362  0.000769  -0.099513  -0.091636  0.000359  4.040687  0.0
C  C61  1  0.74402476  0.60250282  0.54397794  1  -0.077584  0.001022  3.799229  0.001  -0.093233  0.00023  4.055963  0.0  -0.095096  0.000165  4.078237  0.0  -0.033794  0.000769  -0.099565  -0.091811  0.000359  4.040684  0.0
C  C62  1  0.30194306  0.50942588  0.41343531  1  -0.161412  -0.001074  3.761887  -0.001  -0.183424  -0.000121  4.021238  0.0  -0.186044  -0.00018  4.0402  0.0  -0.092818  7.8e-05  -0.099771  -0.181783  -0.00012  4.008758  0.0
C  C63  1  0.69805589  0.49057411  0.58656956  1  -0.16121  -0.001127  3.761798  -0.001  -0.183257  -0.00012  4.021124  0.0  -0.185871  -0.000179  4.040084  0.0  -0.09278  7.8e-05  -0.099725  -0.181617  -0.00012  4.008639  0.0
C  C64  1  0.43262641  0.48228400  0.37110128  1  0.102182  0.002056  3.794688  0.003  0.091891  0.001142  4.040412  0.002  0.096169  0.000795  4.061325  0.001  0.300903  0.003164  0.087785  0.089035  0.001508  4.02647  0.002
C  C65  1  0.56737124  0.51771705  0.62889898  1  0.102094  0.002093  3.794817  0.003  0.091895  0.001143  4.040463  0.002  0.096169  0.000796  4.061381  0.001  0.30094  0.003164  0.087821  0.089045  0.001508  4.026514  0.002
C  C66  1  0.46401192  0.71708360  0.29428660  1  0.002178  0.000486  3.626167  0.001  -0.058149  0.000415  3.883623  0.001  -0.054508  0.000301  3.895248  0.0  0.319441  0.000958  -0.054806  -0.060313  0.000556  3.875646  0.001
C  C67  1  0.53598610  0.28291639  0.70571319  1  0.002217  0.000479  3.626151  0.001  -0.058092  0.000415  3.883634  0.001  -0.054452  0.0003  3.89526  0.0  0.319892  0.000958  -0.05482  -0.060254  0.000556  3.875656  0.001
C  C68  1  0.40521031  0.81036936  0.15696440  1  -0.149019  -0.000121  3.656123  0.0  -0.194077  0.000113  3.917424  0.0  -0.19548  7.6e-05  3.929517  0.0  -0.058888  0.000316  -0.162838  -0.193123  0.000151  3.909184  0.0
C  C69  1  0.59478864  0.18963063  0.84303529  1  -0.149023  -0.000104  3.656148  0.0  -0.194092  0.000114  3.917453  0.0  -0.195497  7.7e-05  3.929543  0.0  -0.058881  0.000316  -0.162848  -0.193141  0.000151  3.909211  0.0
C  C70  1  0.26873592  0.80622908  0.13758023  1  0.009636  0.000428  3.616364  0.001  -0.051628  0.000401  3.872331  0.0  -0.047265  0.000285  3.882912  0.0  0.297107  0.00084  -0.054299  -0.054419  0.00052  3.865227  0.001
C  C71  1  0.73126490  0.19377091  0.86241839  1  0.009674  0.00044  3.616394  0.001  -0.051577  0.000401  3.872358  0.0  -0.047227  0.000285  3.88298  0.0  0.297123  0.00084  -0.054264  -0.054373  0.00052  3.865271  0.001
C  C72  1  0.32331200  0.63322955  0.98284835  1  -0.394806  -8.9e-05  3.707  0.001  -0.478863  0.00045  3.948559  0.001  -0.482852  0.000355  3.952484  0.001  -0.084235  0.001237  -0.230043  -0.475908  0.000593  3.946109  0.001
C  C73  1  0.67668825  0.36676937  0.01715076  1  -0.394866  -0.0001  3.707099  0.001  -0.478891  0.000449  3.948654  0.001  -0.482882  0.000351  3.95258  0.001  -0.084234  0.001237  -0.230034  -0.475937  0.000593  3.946197  0.001
C  C74  1  0.25473276  0.78913900  0.93016999  1  0.410585  -0.00775  3.687105  -0.005  0.386307  0.001754  3.965485  0.002  0.40716  0.001421  3.977065  0.002  1.00415  0.002297  0.235738  0.371773  0.001497  3.957684  0.002
C  C75  1  0.74526656  0.21085993  0.06982836  1  0.410623  -0.007797  3.687158  -0.005  0.386311  0.001754  3.965583  0.002  0.407166  0.001421  3.977157  0.002  1.004475  0.002295  0.235784  0.371788  0.001497  3.957763  0.002
C  C76  1  0.16239326  0.00658036  0.92474255  1  0.100006  0.002175  3.808065  0.003  0.087971  0.001283  4.053377  0.002  0.091885  0.000885  4.075311  0.001  0.252161  0.003366  0.089407  0.085611  0.001688  4.038533  0.002
C  C77  1  0.83760532  0.99342068  0.07525674  1  0.099941  0.002175  3.808125  0.003  0.08789  0.001284  4.053463  0.002  0.091805  0.000888  4.075394  0.001  0.252008  0.003367  0.089375  0.085532  0.001688  4.038617  0.002
C  C78  1  0.11207688  0.12680978  0.95071327  1  -0.146101  -0.000602  3.75658  0.0  -0.167414  9.5e-05  4.014457  0.0  -0.1701  -5e-06  4.034478  0.0  -0.008186  0.000432  -0.099322  -0.165616  0.00017  4.001127  0.0
C  C79  1  0.88792638  0.87319126  0.04928552  1  -0.146114  -0.000518  3.756651  0.0  -0.167491  9.5e-05  4.014524  0.0  -0.17018  -4e-06  4.034546  0.0  -0.008276  0.000432  -0.099328  -0.165693  0.00017  4.001189  0.0
C  C80  1  0.04812479  0.25515230  0.84820210  1  -0.070565  0.000934  3.778599  0.001  -0.08638  0.000197  4.034961  0.0  -0.088133  0.000111  4.05751  0.0  -0.042069  0.000782  -0.098359  -0.085123  0.000358  4.019752  0.0
C  C81  1  0.95187566  0.74484875  0.15179786  1  -0.070507  0.000903  3.778588  0.001  -0.086309  0.000197  4.034955  0.0  -0.088067  0.00011  4.057514  0.0  -0.041908  0.000782  -0.098358  -0.085051  0.000358  4.019747  0.0
C  C82  1  0.03523302  0.26155353  0.72553469  1  -0.095869  -0.001826  3.812241  -0.001  -0.112101  -0.000355  4.070274  0.0  -0.115485  -0.00032  4.094406  0.0  -0.016691  -0.00028  -0.104468  -0.109826  -0.000423  4.053837  0.0
C  C83  1  0.96476629  0.73844540  0.27446713  1  -0.095923  -0.001791  3.812252  -0.001  -0.112146  -0.000355  4.070271  0.0  -0.115532  -0.000319  4.094403  0.0  -0.016708  -0.00028  -0.104467  -0.109871  -0.000423  4.053834  0.0
C  C84  1  0.08447006  0.14112907  0.69985924  1  -0.124669  0.001432  3.707948  0.002  -0.144412  0.000567  3.957708  0.001  -0.146024  0.000352  3.975858  0.001  0.013443  0.001827  -0.085324  -0.143316  0.000854  3.946023  0.001
C  C85  1  0.91552702  0.85887092  0.30014152  1  -0.124648  0.001417  3.707992  0.002  -0.144395  0.000566  3.957745  0.001  -0.146007  0.00035  3.975895  0.001  0.013508  0.001827  -0.085286  -0.143301  0.000854  3.94606  0.001
C  C86  1  0.14983372  0.01179229  0.80192416  1  0.150219  -0.00165  3.817339  -0.001  0.150664  0.000962  4.068685  0.001  0.154996  0.000548  4.092329  0.001  0.368493  0.002458  0.08506  0.147276  0.001475  4.052834  0.002
C  C87  1  0.85016523  0.98820770  0.19807552  1  0.15028  -0.001667  3.817318  -0.001  0.150744  0.000962  4.068641  0.001  0.155075  0.000544  4.092284  0.001  0.3685  0.002458  0.085111  0.147356  0.001474  4.052789  0.002
C  C88  1  0.78316556  0.02600240  0.59116231  1  0.659706  -0.00545  3.903869  -0.006  0.611325  0.001931  4.213003  0.0  0.648698  0.000801  4.204959  0.0  1.584101  0.003605  0.208996  0.584537  0.003023  4.217455  0.001
C  C89  1  0.21683489  0.97399865  0.40883764  1  0.659685  -0.005469  3.903947  -0.006  0.611292  0.001932  4.213079  0.0  0.648645  0.000796  4.205067  0.0  1.58411  0.003604  0.20897  0.584503  0.003023  4.217531  0.001
C  C90  1  0.74256061  0.91563715  0.70109792  1  -0.034943  0.00134  3.685115  0.003  -0.020608  0.001101  3.913915  0.002  -0.020567  0.000245  3.929815  0.001  -0.05734  0.004453  -0.000963  -0.020963  0.002138  3.903543  0.003
C  C91  1  0.25744078  0.08436390  0.29890107  1  -0.03505  0.001337  3.685321  0.003  -0.020664  0.001101  3.914061  0.002  -0.020615  0.000248  3.929962  0.001  -0.057163  0.004453  -0.001006  -0.021019  0.002138  3.903691  0.003
C  C92  1  0.60463673  0.94783196  0.71931627  1  -0.104597  0.001886  3.754785  0.002  -0.123138  0.001068  3.999033  0.001  -0.126485  0.000736  4.018438  0.001  -0.038709  0.003072  -0.093147  -0.120433  0.001501  3.98484  0.002
C  C93  1  0.39536669  0.05216591  0.28068639  1  -0.104545  0.001877  3.754849  0.002  -0.123149  0.001068  3.999121  0.001  -0.126494  0.000736  4.018524  0.001  -0.038759  0.003071  -0.093102  -0.120442  0.001501  3.984925  0.002
C  C94  1  0.55832187  0.85390385  0.82033234  1  -0.060703  -0.001966  3.779455  -0.001  -0.075849  0.000174  4.033423  0.0  -0.075153  -5.5e-05  4.052908  0.0  -0.121512  0.000602  -0.092964  -0.075604  0.000288  4.019059  0.0
C  C95  1  0.44168360  0.14609084  0.17967054  1  -0.060644  -0.001962  3.779543  -0.001  -0.075801  0.000174  4.033552  0.0  -0.075107  -5.5e-05  4.05304  0.0  -0.1218  0.000601  -0.092997  -0.075557  0.000288  4.019182  0.0
C  C96  1  0.64991702  0.72527196  0.90442245  1  -0.0914  0.002323  3.799177  0.003  -0.105933  0.001315  4.053163  0.002  -0.109974  0.000878  4.07667  0.001  -0.01356  0.003772  -0.10249  -0.103094  0.001939  4.036679  0.002
C  C97  1  0.35009162  0.27472167  0.09557706  1  -0.091234  0.002338  3.799249  0.003  -0.105763  0.001314  4.053204  0.002  -0.109805  0.000878  4.07672  0.001  -0.013231  0.003772  -0.10238  -0.102927  0.001939  4.036729  0.002
C  C98  1  0.78725664  0.69235636  0.88837002  1  -0.072739  -0.001388  3.737362  -0.001  -0.096956  0.000321  3.986305  0.001  -0.09677  3.6e-05  4.006376  0.0  -0.123228  0.001535  -0.083821  -0.096792  0.000627  3.972946  0.001
C  C99  1  0.21275053  0.30764151  0.11162705  1  -0.072851  -0.001403  3.737504  -0.001  -0.097084  0.000321  3.986465  0.001  -0.0969  3.6e-05  4.006534  0.0  -0.12505  0.001537  -0.08388  -0.096921  0.000628  3.973105  0.001
C  C100  1  0.83458093  0.78692258  0.78728353  1  -0.085353  0.004577  3.741572  0.006  -0.068595  0.002373  3.969061  0.003  -0.075568  0.001444  3.988783  0.002  0.025447  0.006792  -0.017316  -0.064093  0.003471  3.956346  0.005
C  C101  1  0.16542140  0.21307847  0.21271277  1  -0.085351  0.004589  3.741653  0.006  -0.068588  0.002374  3.969099  0.003  -0.075558  0.001446  3.988818  0.002  0.026514  0.006792  -0.01733  -0.064087  0.00347  3.956389  0.005
C  C102  1  0.98338205  0.74886078  0.77780193  1  0.622072  -0.005352  3.933919  -0.005  0.57919  0.002027  4.229235  0.001  0.615452  0.001077  4.225028  0.001  1.565854  0.003167  0.202338  0.553361  0.002884  4.230712  0.001
C  C103  1  0.01662084  0.25114133  0.22219214  1  0.622163  -0.005364  3.933881  -0.005  0.579274  0.002027  4.229207  0.001  0.615536  0.001075  4.224997  0.001  1.566101  0.003168  0.202375  0.553447  0.002885  4.230686  0.001
N  N104  1  0.64014686  0.35406868  0.32775492  1  -0.50147  0.03622  3.242761  0.055  -0.465963  0.027286  3.560128  0.031  -0.497064  0.021707  3.566648  0.024  -1.220606  0.061288  -0.363956  -0.443629  0.032351  3.556402  0.038
N  N105  1  0.35984928  0.64593131  0.67224420  1  -0.501484  0.036242  3.242772  0.055  -0.465986  0.027287  3.560183  0.031  -0.497094  0.021711  3.566707  0.024  -1.220668  0.061293  -0.363938  -0.443653  0.032353  3.556461  0.038
N  N106  1  0.50978964  0.56644438  0.32301496  1  -0.176949  0.000232  3.481929  0.001  -0.091857  0.001189  3.701919  0.002  -0.108774  0.000917  3.724314  0.002  -1.252963  0.003244  -0.244978  -0.080859  0.001362  3.68693  0.002
N  N107  1  0.49020931  0.43355561  0.67698646  1  -0.176957  0.00024  3.481934  0.001  -0.091935  0.00119  3.701954  0.002  -0.108849  0.000919  3.724346  0.002  -1.252962  0.003244  -0.244989  -0.080937  0.001363  3.686961  0.002
N  N108  1  0.22859598  0.86471247  0.00295610  1  -0.172501  0.001825  3.489391  0.003  -0.086256  0.002287  3.707217  0.004  -0.103494  0.001693  3.730024  0.003  -1.206522  0.00579  -0.24276  -0.074864  0.002692  3.691801  0.004
N  N109  1  0.77140390  0.13528751  0.99704175  1  -0.172439  0.001827  3.489507  0.003  -0.08619  0.002288  3.707355  0.004  -0.103428  0.001693  3.730156  0.003  -1.206502  0.00579  -0.242768  -0.074803  0.002692  3.691935  0.004
N  N110  1  0.20905818  0.87393007  0.80869135  1  -0.489434  0.038946  3.221456  0.061  -0.455539  0.028929  3.533123  0.036  -0.487173  0.022981  3.541414  0.028  -1.221473  0.065587  -0.359692  -0.432529  0.034441  3.528197  0.044
N  N111  1  0.79093947  0.12607098  0.19130718  1  -0.489496  0.038969  3.221485  0.061  -0.455593  0.02893  3.533149  0.036  -0.487221  0.022982  3.541427  0.028  -1.221787  0.065587  -0.359757  -0.432593  0.03444  3.528233  0.044
O  O112  1  0.77475282  0.02472300  0.48047801  1  -0.625261  0.059727  2.054769  0.102  -0.588207  0.04264  2.338986  0.066  -0.633596  0.031358  2.326622  0.049  -1.130463  0.105906  -0.322229  -0.552  0.053635  2.34547  0.082
O  O113  1  0.22524763  0.97527805  0.51952194  1  -0.625237  0.059731  2.054765  0.102  -0.58817  0.042639  2.338969  0.066  -0.633558  0.03136  2.326623  0.049  -1.130489  0.10591  -0.322199  -0.551969  0.053636  2.345462  0.082
O  O114  1  0.80932993  0.11663608  0.60885406  1  -0.601296  0.004894  1.894408  0.009  -0.564766  0.006208  2.120368  0.01  -0.591656  0.004216  2.113512  0.007  -1.161055  0.018232  -0.310917  -0.544409  0.00876  2.124286  0.014
O  O115  1  0.19066959  0.88336496  0.39114599  1  -0.601296  0.004894  1.894406  0.009  -0.564763  0.006207  2.120355  0.01  -0.591654  0.004215  2.113523  0.007  -1.161029  0.018233  -0.310918  -0.544406  0.008761  2.124273  0.014
O  O116  1  0.02336973  0.81455629  0.66670445  1  -0.603135  0.059748  2.074553  0.099  -0.565249  0.042525  2.35347  0.064  -0.609926  0.030866  2.341682  0.046  -1.123108  0.107252  -0.319524  -0.529677  0.054239  2.359478  0.081
O  O117  1  0.97663186  0.18544688  0.33328845  1  -0.603143  0.059747  2.074546  0.099  -0.565269  0.042523  2.353474  0.064  -0.609941  0.030862  2.341681  0.046  -1.122949  0.10724  -0.319518  -0.529677  0.054235  2.359448  0.081
O  O118  1  0.06069321  0.65965700  0.87412577  1  -0.611607  0.006164  1.939384  0.01  -0.568856  0.008108  2.167663  0.013  -0.596124  0.005839  2.161968  0.01  -1.186611  0.022284  -0.313705  -0.548003  0.010861  2.170711  0.017
O  O119  1  0.93931155  0.34034510  0.12586896  1  -0.611656  0.006166  1.939366  0.01  -0.568908  0.008107  2.167656  0.013  -0.596168  0.005838  2.161945  0.01  -1.186714  0.02228  -0.313753  -0.548059  0.010859  2.170704  0.017
