# generated using pymatgen
data_CdH12C13Br2(NO3)2
_symmetry_space_group_name_H-M   'P 1'
_cell_length_a   8.04618710
_cell_length_b   13.83010715
_cell_length_c   15.35554463
_cell_angle_alpha   90.00003065
_cell_angle_beta   89.99991904
_cell_angle_gamma   105.06354000
_symmetry_Int_Tables_number   1
_chemical_formula_structural   CdH12C13Br2(NO3)2
_chemical_formula_sum   'Cd4 H48 C52 Br8 N8 O24'
_cell_volume   1650.04328641
_cell_formula_units_Z   4
loop_
 _symmetry_equiv_pos_site_id
 _symmetry_equiv_pos_as_xyz
  1  'x, y, z'
loop_
 _atom_site_type_symbol
 _atom_site_label
 _atom_site_symmetry_multiplicity
 _atom_site_fract_x
 _atom_site_fract_y
 _atom_site_fract_z
 _atom_site_occupancy
 _atom_site_hle17_bader_spin_density
 _atom_site_hle17_ddec_charge
 _atom_site_hle17_ddec_spin_density
 _atom_site_hle17_ddec_sum_bond_order
 _atom_site_hle17_magmom
 _atom_site_hse06_10hf_bader_spin_density
 _atom_site_hse06_10hf_ddec_charge
 _atom_site_hse06_10hf_ddec_spin_density
 _atom_site_hse06_10hf_ddec_sum_bond_order
 _atom_site_hse06_10hf_magmom
 _atom_site_hse06_bader_spin_density
 _atom_site_hse06_ddec_charge
 _atom_site_hse06_ddec_spin_density
 _atom_site_hse06_ddec_sum_bond_order
 _atom_site_hse06_magmom
 _atom_site_pbe_bader_spin_density
 _atom_site_pbe_cm5_charge
 _atom_site_pbe_ddec_charge
 _atom_site_pbe_ddec_spin_density
 _atom_site_pbe_ddec_sum_bond_order
 _atom_site_pbe_magmom
Cd  Cd0  1  0.39174803  0.63896775  0.05904578  1  0  1.170973  0  1.603866  0  0  0.989517  0  2.033517  0  0  1.048684  0  1.979347  0  0  0.764588  0.947467  0  2.070372  0
Cd  Cd1  1  0.60825283  0.86103119  0.55904235  1  0  1.171029  0  1.60385  0  0  0.989552  0  2.033494  0  0  1.048717  0  1.979329  0  0  0.764607  0.94751  0  2.070338  0
Cd  Cd2  1  0.60825552  0.36103200  0.94095639  1  0  1.171003  0  1.603842  0  0  0.989534  0  2.033489  0  0  1.048699  0  1.979323  0  0  0.764595  0.947485  0  2.070337  0
Cd  Cd3  1  0.39174666  0.13896782  0.44095592  1  0  1.171044  0  1.603811  0  0  0.989569  0  2.033444  0  0  1.048732  0  1.979278  0  0  0.764598  0.947514  0  2.070307  0
H  H4  1  0.27154643  0.43170372  0.03108389  1  0  0.429693  0  0.859131  0  0  0.399765  0  0.926909  0  0  0.410525  0  0.911241  0  0  0.29278  0.392071  0  0.938117  0
H  H5  1  0.72845184  0.06829603  0.53108544  1  0  0.429728  0  0.859099  0  0  0.399801  0  0.926863  0  0  0.41056  0  0.911197  0  0  0.292789  0.392109  0  0.938068  0
H  H6  1  0.72845463  0.56829604  0.96891438  1  0  0.429664  0  0.859138  0  0  0.399737  0  0.926944  0  0  0.410499  0  0.911273  0  0  0.292785  0.392043  0  0.938152  0
H  H7  1  0.27155013  0.93170297  0.46891479  1  0  0.429704  0  0.859116  0  0  0.399776  0  0.926896  0  0  0.410535  0  0.91123  0  0  0.292784  0.392081  0  0.938105  0
H  H8  1  0.40674069  0.44234994  0.10317246  1  0  0.429987  0  0.87055  0  0  0.397968  0  0.936554  0  0  0.409243  0  0.920158  0  0  0.288389  0.389955  0  0.948194  0
H  H9  1  0.59325797  0.05764832  0.60317280  1  0  0.430031  0  0.870496  0  0  0.398  0  0.936523  0  0  0.409275  0  0.920126  0  0  0.288403  0.389984  0  0.948168  0
H  H10  1  0.59326162  0.55764981  0.89682581  1  0  0.429924  0  0.870632  0  0  0.397928  0  0.936599  0  0  0.409201  0  0.920207  0  0  0.288416  0.389917  0  0.948234  0
H  H11  1  0.40674175  0.94234844  0.39682742  1  0  0.429948  0  0.87061  0  0  0.397925  0  0.936622  0  0  0.4092  0  0.920227  0  0  0.288369  0.389913  0  0.948261  0
H  H12  1  0.55326494  0.85962840  0.06960743  1  0  0.335486  0  0.965803  0  0  0.296844  0  1.060936  0  0  0.308446  0  1.048809  0  0  0.280332  0.288712  0  1.069337  0
H  H13  1  0.44673250  0.64037129  0.56960727  1  0  0.335469  0  0.965816  0  0  0.296819  0  1.060967  0  0  0.308421  0  1.048841  0  0  0.280316  0.288687  0  1.069367  0
H  H14  1  0.44673398  0.14037210  0.93039083  1  0  0.335483  0  0.965795  0  0  0.29684  0  1.060934  0  0  0.308442  0  1.048808  0  0  0.280313  0.288706  0  1.069335  0
H  H15  1  0.55326540  0.35962697  0.43039230  1  0  0.335391  0  0.965869  0  0  0.296788  0  1.060934  0  0  0.30839  0  1.048809  0  0  0.280308  0.288656  0  1.069334  0
H  H16  1  0.47300853  0.60574688  0.74316866  1  0  0.084501  0  0.940331  0  0  0.088672  0  1.013107  0  0  0.092561  0  1.008519  0  0  0.112896  0.085799  0  1.016476  0
H  H17  1  0.52699377  0.89425359  0.24317212  1  0  0.084506  0  0.940342  0  0  0.088675  0  1.013106  0  0  0.092563  0  1.008519  0  0  0.112893  0.085802  0  1.016476  0
H  H18  1  0.52698972  0.39425212  0.25682765  1  0  0.084462  0  0.94038  0  0  0.088657  0  1.013115  0  0  0.092544  0  1.008526  0  0  0.112891  0.085785  0  1.016481  0
H  H19  1  0.47300458  0.10574842  0.75682745  1  0  0.084488  0  0.940418  0  0  0.08868  0  1.013156  0  0  0.092567  0  1.008567  0  0  0.112919  0.085809  0  1.016523  0
H  H20  1  0.09887123  0.56228545  0.55050288  1  0  0.07059  0  0.981265  0  0  0.071971  0  1.06281  0  0  0.075722  0  1.058507  0  0  0.09972  0.069212  0  1.065945  0
H  H21  1  0.90112661  0.93771498  0.05050282  1  0  0.070573  0  0.981246  0  0  0.071954  0  1.062797  0  0  0.075704  0  1.058495  0  0  0.099716  0.069196  0  1.065932  0
H  H22  1  0.90112476  0.43771131  0.44949409  1  0  0.070491  0  0.981438  0  0  0.071879  0  1.062978  0  0  0.075629  0  1.058677  0  0  0.099679  0.06912  0  1.066114  0
H  H23  1  0.09887322  0.06228477  0.94949479  1  0  0.070528  0  0.98136  0  0  0.071921  0  1.062885  0  0  0.075671  0  1.058584  0  0  0.099709  0.069164  0  1.06602  0
H  H24  1  0.94589241  0.57541589  0.82019864  1  0  0.137128  0  0.940576  0  0  0.142209  0  1.009531  0  0  0.146625  0  1.005109  0  0  0.111822  0.13894  0  1.01278  0
H  H25  1  0.05410902  0.92458310  0.32019790  1  0  0.137117  0  0.940587  0  0  0.142197  0  1.009543  0  0  0.146619  0  1.005101  0  0  0.111815  0.138927  0  1.012791  0
H  H26  1  0.05411317  0.42458835  0.17980028  1  0  0.137194  0  0.940601  0  0  0.142285  0  1.009536  0  0  0.146697  0  1.005128  0  0  0.11185  0.139014  0  1.012784  0
H  H27  1  0.94588697  0.07541367  0.67980102  1  0  0.137147  0  0.940601  0  0  0.142222  0  1.009573  0  0  0.146634  0  1.005152  0  0  0.111822  0.138955  0  1.012822  0
H  H28  1  0.81864052  0.68730129  0.31282628  1  0  0.120949  0  0.942572  0  0  0.131761  0  1.004449  0  0  0.134868  0  1.001829  0  0  0.113803  0.12947  0  1.006367  0
H  H29  1  0.18135855  0.81270070  0.81282444  1  0  0.120951  0  0.942591  0  0  0.131762  0  1.004462  0  0  0.13487  0  1.001842  0  0  0.11379  0.129471  0  1.006381  0
H  H30  1  0.18135682  0.31269847  0.68717590  1  0  0.120974  0  0.942581  0  0  0.131767  0  1.004472  0  0  0.134875  0  1.00185  0  0  0.113796  0.129476  0  1.00639  0
H  H31  1  0.81863687  0.18729756  0.18717578  1  0  0.120961  0  0.94261  0  0  0.131784  0  1.004461  0  0  0.134891  0  1.001842  0  0  0.113803  0.129493  0  1.006379  0
H  H32  1  0.34575672  0.68054468  0.26101064  1  0  0.108182  0  0.951813  0  0  0.113125  0  1.022145  0  0  0.117119  0  1.0173  0  0  0.117641  0.110218  0  1.025639  0
H  H33  1  0.65424530  0.81945804  0.76100976  1  0  0.10817  0  0.951901  0  0  0.113155  0  1.022169  0  0  0.117146  0  1.017328  0  0  0.117647  0.110248  0  1.025665  0
H  H34  1  0.65424829  0.31946106  0.73899153  1  0  0.108107  0  0.951986  0  0  0.113094  0  1.022244  0  0  0.117084  0  1.017405  0  0  0.11761  0.110187  0  1.025738  0
H  H35  1  0.34575227  0.18053947  0.23898786  1  0  0.108232  0  0.951879  0  0  0.113174  0  1.02219  0  0  0.117165  0  1.017353  0  0  0.117659  0.110268  0  1.025684  0
H  H36  1  0.99891738  0.63932738  0.05623029  1  0  0.106103  0  0.953627  0  0  0.111258  0  1.022821  0  0  0.115328  0  1.017835  0  0  0.120429  0.108169  0  1.026631  0
H  H37  1  0.00108451  0.86067380  0.55622665  1  0  0.106046  0  0.953605  0  0  0.111227  0  1.022807  0  0  0.115266  0  1.017855  0  0  0.120403  0.10817  0  1.026589  0
H  H38  1  0.00108470  0.36067462  0.94377124  1  0  0.106052  0  0.953631  0  0  0.11125  0  1.022789  0  0  0.11529  0  1.017838  0  0  0.120421  0.108184  0  1.026581  0
H  H39  1  0.99891938  0.13932669  0.44377161  1  0  0.106115  0  0.953509  0  0  0.111287  0  1.022711  0  0  0.115333  0  1.017751  0  0  0.120427  0.108197  0  1.026531  0
H  H40  1  0.47436706  0.82974734  0.90102310  1  0  0.070303  0  0.957525  0  0  0.082136  0  1.034275  0  0  0.083728  0  1.032662  0  0  0.081187  0.080899  0  1.035531  0
H  H41  1  0.52563292  0.67025166  0.40102319  1  0  0.070297  0  0.95755  0  0  0.082139  0  1.034292  0  0  0.083732  0  1.032678  0  0  0.081198  0.080902  0  1.035546  0
H  H42  1  0.52563243  0.17025166  0.09897517  1  0  0.070295  0  0.957514  0  0  0.082131  0  1.034266  0  0  0.083723  0  1.032654  0  0  0.081202  0.080895  0  1.035519  0
H  H43  1  0.47436872  0.32974659  0.59897573  1  0  0.070322  0  0.957529  0  0  0.082149  0  1.034286  0  0  0.08374  0  1.032675  0  0  0.081189  0.080913  0  1.035538  0
H  H44  1  0.45648949  0.93793468  0.96003634  1  0  0.058564  0  0.98122  0  0  0.075409  0  1.053237  0  0  0.076027  0  1.05245  0  0  0.080204  0.074865  0  1.053945  0
H  H45  1  0.54350875  0.56206359  0.46003572  1  0  0.058498  0  0.981261  0  0  0.075366  0  1.053263  0  0  0.075986  0  1.052476  0  0  0.080188  0.074821  0  1.053971  0
H  H46  1  0.54350808  0.06206283  0.03996453  1  0  0.058495  0  0.981243  0  0  0.075365  0  1.053249  0  0  0.075985  0  1.05246  0  0  0.080198  0.07482  0  1.053958  0
H  H47  1  0.45649356  0.43793616  0.53996450  1  0  0.058524  0  0.981249  0  0  0.075392  0  1.053248  0  0  0.07601  0  1.052464  0  0  0.080206  0.074847  0  1.053956  0
H  H48  1  0.27346982  0.83382550  0.94997878  1  0  0.067189  0  0.964286  0  0  0.080211  0  1.040904  0  0  0.081011  0  1.040284  0  0  0.083339  0.079555  0  1.041434  0
H  H49  1  0.72652844  0.66617277  0.44997742  1  0  0.067214  0  0.964296  0  0  0.080232  0  1.040923  0  0  0.081034  0  1.040302  0  0  0.083352  0.079577  0  1.04145  0
H  H50  1  0.72652842  0.16617351  0.05002209  1  0  0.067199  0  0.964277  0  0  0.08022  0  1.0409  0  0  0.081021  0  1.040279  0  0  0.083342  0.079566  0  1.041427  0
H  H51  1  0.27347071  0.33382549  0.55002280  1  0  0.067209  0  0.964285  0  0  0.080234  0  1.040898  0  0  0.081032  0  1.040279  0  0  0.083354  0.079579  0  1.041426  0
C  C52  1  0.27033941  0.60620262  0.88638606  1  0  0.636292  0  3.945627  0  0  0.586273  0  4.232454  0  0  0.620098  0  4.228753  0  0  0.196722  0.563487  0  4.234078  0
C  C53  1  0.72966544  0.89380162  0.38638676  1  0  0.63615  0  3.945674  0  0  0.586185  0  4.232558  0  0  0.620014  0  4.228853  0  0  0.196665  0.563399  0  4.234176  0
C  C54  1  0.72966424  0.39380013  0.11361221  1  0  0.636197  0  3.945711  0  0  0.586219  0  4.232559  0  0  0.620048  0  4.228851  0  0  0.196677  0.563429  0  4.234179  0
C  C55  1  0.27033878  0.10619962  0.61361216  1  0  0.636331  0  3.945628  0  0  0.586325  0  4.232452  0  0  0.620157  0  4.228744  0  0  0.196734  0.563534  0  4.234076  0
C  C56  1  0.21563266  0.59016388  0.79288760  1  0  -0.08857  0  3.721182  0  0  -0.059228  0  3.956584  0  0  -0.071436  0  3.979724  0  0  -0.007276  -0.051722  0  3.941335  0
C  C57  1  0.78436758  0.90984334  0.29288762  1  0  -0.088407  0  3.720977  0  0  -0.059377  0  3.956783  0  0  -0.071597  0  3.979923  0  0  -0.007276  -0.051869  0  3.941525  0
C  C58  1  0.78436986  0.40984186  0.20711197  1  0  -0.088466  0  3.721031  0  0  -0.059327  0  3.956668  0  0  -0.071546  0  3.979808  0  0  -0.007279  -0.051816  0  3.941412  0
C  C59  1  0.21562953  0.09015866  0.70711130  1  0  -0.08864  0  3.721213  0  0  -0.05937  0  3.956725  0  0  -0.07159  0  3.979858  0  0  -0.007277  -0.051856  0  3.941475  0
C  C60  1  0.33713207  0.59345474  0.72698824  1  0  0.134366  0  3.648774  0  0  0.088876  0  3.906471  0  0  0.098476  0  3.920427  0  0  0.054191  0.082727  0  3.896998  0
C  C61  1  0.66286992  0.90655322  0.22699029  1  0  0.134324  0  3.648746  0  0  0.088935  0  3.906515  0  0  0.098542  0  3.92047  0  0  0.054192  0.082785  0  3.897041  0
C  C62  1  0.66286843  0.40654651  0.27301003  1  0  0.134337  0  3.648824  0  0  0.088918  0  3.90654  0  0  0.098528  0  3.920489  0  0  0.054201  0.082766  0  3.897066  0
C  C63  1  0.33713035  0.09345028  0.77300928  1  0  0.134327  0  3.648883  0  0  0.088861  0  3.906584  0  0  0.098474  0  3.920531  0  0  0.054118  0.082707  0  3.897112  0
C  C64  1  0.12887886  0.56941872  0.61985632  1  0  0.06896  0  3.72899  0  0  0.028024  0  3.988944  0  0  0.035765  0  4.003431  0  0  0.034992  0.023213  0  3.979043  0
C  C65  1  0.87112501  0.93058172  0.11985759  1  0  0.068968  0  3.72897  0  0  0.028048  0  3.988901  0  0  0.035787  0  4.003393  0  0  0.035019  0.023237  0  3.978997  0
C  C66  1  0.87112492  0.43057878  0.38014065  1  0  0.069068  0  3.72909  0  0  0.028178  0  3.989036  0  0  0.035917  0  4.003526  0  0  0.03506  0.023368  0  3.979131  0
C  C67  1  0.12887606  0.06941803  0.88014133  1  0  0.069031  0  3.728892  0  0  0.028137  0  3.988855  0  0  0.035876  0  4.003346  0  0  0.035034  0.023323  0  3.978955  0
C  C68  1  0.00102195  0.56643300  0.68198181  1  0  0.027998  0  3.743562  0  0  0.047227  0  4.016096  0  0  0.044213  0  4.040471  0  0  -0.017262  0.048667  0  3.999747  0
C  C69  1  0.99898142  0.93356671  0.18198363  1  0  0.027979  0  3.743632  0  0  0.047217  0  4.016131  0  0  0.044201  0  4.040509  0  0  -0.017283  0.048656  0  3.999777  0
C  C70  1  0.99898363  0.43357124  0.31801776  1  0  0.028014  0  3.743586  0  0  0.047164  0  4.016215  0  0  0.04415  0  4.040587  0  0  -0.017318  0.048604  0  3.999861  0
C  C71  1  0.00101604  0.06642781  0.81801529  1  0  0.028057  0  3.743619  0  0  0.047196  0  4.016309  0  0  0.044179  0  4.04068  0  0  -0.01732  0.048637  0  3.999959  0
C  C72  1  0.04277864  0.57673898  0.77001645  1  0  -0.062353  0  3.67204  0  0  -0.101168  0  3.922534  0  0  -0.097349  0  3.941085  0  0  -0.067055  -0.103125  0  3.909901  0
C  C73  1  0.95722168  0.92326000  0.27001569  1  0  -0.062372  0  3.671996  0  0  -0.101111  0  3.922598  0  0  -0.097266  0  3.941114  0  0  -0.067036  -0.10308  0  3.909995  0
C  C74  1  0.95722717  0.42326301  0.22998312  1  0  -0.062464  0  3.671883  0  0  -0.101218  0  3.922467  0  0  -0.09738  0  3.940979  0  0  -0.067042  -0.103191  0  3.909871  0
C  C75  1  0.04277364  0.07673527  0.72998388  1  0  -0.062346  0  3.672023  0  0  -0.101127  0  3.922579  0  0  -0.097299  0  3.941132  0  0  -0.067018  -0.103091  0  3.909947  0
C  C76  1  0.70911391  0.65558513  0.14619204  1  0  0.637538  0  3.948363  0  0  0.586789  0  4.23863  0  0  0.620878  0  4.234499  0  0  0.192507  0.563837  0  4.240484  0
C  C77  1  0.29088367  0.84441532  0.64619079  1  0  0.637307  0  3.948585  0  0  0.586576  0  4.238869  0  0  0.620667  0  4.23474  0  0  0.192448  0.563624  0  4.240721  0
C  C78  1  0.29088783  0.34441612  0.85381013  1  0  0.637398  0  3.948559  0  0  0.586703  0  4.238791  0  0  0.620794  0  4.23466  0  0  0.192462  0.563752  0  4.240646  0
C  C79  1  0.70911729  0.15558143  0.35381334  1  0  0.637409  0  3.948591  0  0  0.586691  0  4.238853  0  0  0.620781  0  4.234723  0  0  0.19245  0.563738  0  4.240706  0
C  C80  1  0.88654526  0.66270877  0.18076320  1  0  -0.09643  0  3.744705  0  0  -0.068218  0  3.982971  0  0  -0.080972  0  4.006726  0  0  -0.013385  -0.060369  0  3.967329  0
C  C81  1  0.11345449  0.83729393  0.68076273  1  0  -0.096107  0  3.744459  0  0  -0.06797  0  3.982801  0  0  -0.080719  0  4.006548  0  0  -0.013326  -0.060124  0  3.967168  0
C  C82  1  0.11345557  0.33729323  0.81923767  1  0  -0.096124  0  3.744431  0  0  -0.068051  0  3.982842  0  0  -0.0808  0  4.006586  0  0  -0.013314  -0.060208  0  3.96721  0
C  C83  1  0.88654308  0.16270358  0.31923814  1  0  -0.096152  0  3.744533  0  0  -0.068072  0  3.982964  0  0  -0.080824  0  4.006715  0  0  -0.013304  -0.060222  0  3.967321  0
C  C84  1  0.92113579  0.67945387  0.26941456  1  0  -0.061055  0  3.697725  0  0  -0.100348  0  3.946243  0  0  -0.095807  0  3.964887  0  0  -0.068492  -0.102857  0  3.933594  0
C  C85  1  0.07885899  0.82054661  0.76941150  1  0  -0.061151  0  3.697907  0  0  -0.100429  0  3.94644  0  0  -0.095891  0  3.965088  0  0  -0.068525  -0.102937  0  3.933791  0
C  C86  1  0.07886155  0.32054588  0.73058762  1  0  -0.061232  0  3.69779  0  0  -0.100478  0  3.946353  0  0  -0.095938  0  3.964997  0  0  -0.068538  -0.102984  0  3.933705  0
C  C87  1  0.92113519  0.17945165  0.23058937  1  0  -0.06116  0  3.697845  0  0  -0.100442  0  3.946399  0  0  -0.095903  0  3.965047  0  0  -0.06853  -0.102948  0  3.933746  0
C  C88  1  0.08703182  0.68616960  0.29908038  1  0  0.026849  0  3.742121  0  0  0.046472  0  4.016067  0  0  0.043349  0  4.038671  0  0  -0.016836  0.047998  0  4.000947  0
C  C89  1  0.91296763  0.81383313  0.79907995  1  0  0.026827  0  3.7422  0  0  0.046459  0  4.016125  0  0  0.043332  0  4.038734  0  0  -0.016832  0.047983  0  4.001009  0
C  C90  1  0.91296891  0.31382940  0.70092050  1  0  0.026924  0  3.742123  0  0  0.046547  0  4.016055  0  0  0.043421  0  4.038663  0  0  -0.016835  0.048071  0  4.000938  0
C  C91  1  0.08702949  0.18616887  0.20092157  1  0  0.026912  0  3.742087  0  0  0.046565  0  4.015989  0  0  0.043441  0  4.038597  0  0  -0.016825  0.04809  0  4.000871  0
C  C92  1  0.21425118  0.67597650  0.24056531  1  0  0.071503  0  3.705207  0  0  0.026777  0  3.966361  0  0  0.035925  0  3.981081  0  0  0.040882  0.020826  0  3.956517  0
C  C93  1  0.78574841  0.82402622  0.74056237  1  0  0.071401  0  3.705279  0  0  0.026612  0  3.966473  0  0  0.035781  0  3.98116  0  0  0.040781  0.02066  0  3.956633  0
C  C94  1  0.78575090  0.32402550  0.75943752  1  0  0.07144  0  3.705355  0  0  0.026664  0  3.966556  0  0  0.035833  0  3.981244  0  0  0.040869  0.020712  0  3.956708  0
C  C95  1  0.21425073  0.17597204  0.25943589  1  0  0.07143  0  3.705283  0  0  0.026675  0  3.966459  0  0  0.035835  0  3.98116  0  0  0.040856  0.020725  0  3.956613  0
C  C96  1  0.01956081  0.65300737  0.12570328  1  0  0.122345  0  3.642356  0  0  0.0737  0  3.900104  0  0  0.084181  0  3.914939  0  0  0.051368  0.066977  0  3.890031  0
C  C97  1  0.98044067  0.84699608  0.62569956  1  0  0.122293  0  3.642207  0  0  0.073638  0  3.899938  0  0  0.084142  0  3.914789  0  0  0.051377  0.066884  0  3.889852  0
C  C98  1  0.98044386  0.34699763  0.87429824  1  0  0.122313  0  3.642255  0  0  0.073677  0  3.900019  0  0  0.084179  0  3.91487  0  0  0.05137  0.066931  0  3.889937  0
C  C99  1  0.01955882  0.15300293  0.37429870  1  0  0.122365  0  3.642101  0  0  0.073722  0  3.899881  0  0  0.08422  0  3.91473  0  0  0.051384  0.066995  0  3.88981  0
C  C100  1  0.41404309  0.85582221  0.95759357  1  0  -0.024681  0  3.694968  0  0  -0.120883  0  3.966362  0  0  -0.113901  0  3.969574  0  0  -0.166807  -0.125539  0  3.964226  0
C  C101  1  0.58595481  0.64417531  0.45759296  1  0  -0.024662  0  3.694995  0  0  -0.12089  0  3.966405  0  0  -0.113907  0  3.969613  0  0  -0.166834  -0.125551  0  3.964281  0
C  C102  1  0.58595481  0.14417604  0.04240600  1  0  -0.024608  0  3.694928  0  0  -0.120832  0  3.966339  0  0  -0.11385  0  3.969552  0  0  -0.166815  -0.125491  0  3.964215  0
C  C103  1  0.41404434  0.35582295  0.54240661  1  0  -0.024701  0  3.694981  0  0  -0.120917  0  3.966396  0  0  -0.113932  0  3.969611  0  0  -0.166828  -0.125575  0  3.964264  0
Br  Br104  1  0.77237019  0.55422871  0.64425573  1  0  -0.021734  0  1.324133  0  0  -0.008328  0  1.585906  0  0  -0.014597  0  1.581589  0  0  0.079847  -0.003879  0  1.589044  0
Br  Br105  1  0.22763237  0.94577174  0.14425488  1  0  -0.021699  0  1.3241  0  0  -0.008306  0  1.585901  0  0  -0.014585  0  1.581589  0  0  0.079862  -0.003855  0  1.58904  0
Br  Br106  1  0.22763265  0.44578603  0.35575035  1  0  -0.021682  0  1.324097  0  0  -0.00826  0  1.585929  0  0  -0.01455  0  1.581647  0  0  0.079894  -0.003808  0  1.589069  0
Br  Br107  1  0.77236907  0.05421227  0.85574860  1  0  -0.021737  0  1.324205  0  0  -0.008306  0  1.586044  0  0  -0.014597  0  1.581766  0  0  0.079867  -0.003858  0  1.589182  0
Br  Br108  1  0.14430337  0.71117270  0.41781402  1  0  -0.001471  0  1.379444  0  0  0.007635  0  1.658859  0  0  0.00286  0  1.65156  0  0  0.091264  0.011024  0  1.664108  0
Br  Br109  1  0.85568638  0.78883681  0.91781232  1  0  -0.00141  0  1.379462  0  0  0.00768  0  1.658919  0  0  0.002917  0  1.651602  0  0  0.091292  0.011068  0  1.664168  0
Br  Br110  1  0.85569645  0.28882705  0.58218750  1  0  -0.001471  0  1.379459  0  0  0.007627  0  1.658888  0  0  0.002852  0  1.651585  0  0  0.091257  0.011015  0  1.664136  0
Br  Br111  1  0.14429434  0.21117571  0.08218855  1  0  -0.001485  0  1.379396  0  0  0.007602  0  1.658823  0  0  0.002841  0  1.651495  0  0  0.091252  0.01099  0  1.664068  0
N  N112  1  0.29468430  0.58352364  0.64234000  1  0  -0.287117  0  3.167376  0  0  -0.220374  0  3.418479  0  0  -0.235668  0  3.4341  0  0  -0.305013  -0.210073  0  3.407639  0
N  N113  1  0.70531736  0.91647756  0.14234073  1  0  -0.287119  0  3.167326  0  0  -0.220382  0  3.418404  0  0  -0.23568  0  3.434027  0  0  -0.305024  -0.21008  0  3.407563  0
N  N114  1  0.70531542  0.41647311  0.35765892  1  0  -0.287062  0  3.167266  0  0  -0.220386  0  3.418371  0  0  -0.235683  0  3.43399  0  0  -0.305049  -0.210083  0  3.407529  0
N  N115  1  0.29468291  0.08352594  0.85765819  1  0  -0.287093  0  3.167241  0  0  -0.220381  0  3.418351  0  0  -0.235676  0  3.433967  0  0  -0.305005  -0.21008  0  3.407515  0
N  N116  1  0.17902275  0.65927204  0.15554782  1  0  -0.309172  0  3.266437  0  0  -0.228336  0  3.535894  0  0  -0.250177  0  3.55488  0  0  -0.32101  -0.213443  0  3.522448  0
N  N117  1  0.82097729  0.84072842  0.65554422  1  0  -0.309072  0  3.266427  0  0  -0.228221  0  3.535858  0  0  -0.250066  0  3.554838  0  0  -0.320922  -0.213329  0  3.522424  0
N  N118  1  0.82098350  0.34073370  0.84445501  1  0  -0.309038  0  3.266328  0  0  -0.228213  0  3.535792  0  0  -0.250057  0  3.554773  0  0  -0.320957  -0.213322  0  3.522353  0
N  N119  1  0.17902208  0.15926759  0.34445405  1  0  -0.309244  0  3.266375  0  0  -0.228391  0  3.535828  0  0  -0.250235  0  3.554811  0  0  -0.321007  -0.213495  0  3.522378  0
O  O120  1  0.42930735  0.61542763  0.90443421  1  0  -0.672998  0  2.038664  0  0  -0.602817  0  2.27502  0  0  -0.632949  0  2.265849  0  0  -0.327557  -0.581661  0  2.28053  0
O  O121  1  0.57068990  0.88457362  0.40443567  1  0  -0.673051  0  2.038677  0  0  -0.602755  0  2.274918  0  0  -0.632883  0  2.265727  0  0  -0.327551  -0.581593  0  2.280427  0
O  O122  1  0.57069259  0.38457512  0.09556406  1  0  -0.673034  0  2.038733  0  0  -0.602755  0  2.274986  0  0  -0.632889  0  2.265807  0  0  -0.327552  -0.581595  0  2.280495  0
O  O123  1  0.42930767  0.11542389  0.59556390  1  0  -0.673089  0  2.038719  0  0  -0.602821  0  2.274995  0  0  -0.632947  0  2.265798  0  0  -0.327567  -0.581658  0  2.280507  0
O  O124  1  0.15979128  0.61261480  0.94301060  1  0  -0.610302  0  1.919361  0  0  -0.551453  0  2.145102  0  0  -0.578796  0  2.137846  0  0  -0.318104  -0.532285  0  2.149292  0
O  O125  1  0.84020519  0.88738497  0.44300601  1  0  -0.610202  0  1.919539  0  0  -0.551369  0  2.145274  0  0  -0.578713  0  2.13802  0  0  -0.318063  -0.532216  0  2.149495  0
O  O126  1  0.84020842  0.38739020  0.05699157  1  0  -0.610241  0  1.919468  0  0  -0.551433  0  2.145234  0  0  -0.578772  0  2.137973  0  0  -0.318084  -0.532282  0  2.149463  0
O  O127  1  0.15979114  0.11261254  0.55699161  1  0  -0.610278  0  1.919367  0  0  -0.551461  0  2.145129  0  0  -0.578796  0  2.137859  0  0  -0.318095  -0.532302  0  2.149346  0
O  O128  1  0.68477444  0.64003458  0.06405820  1  0  -0.671381  0  2.048968  0  0  -0.598054  0  2.293353  0  0  -0.628596  0  2.283632  0  0  -0.328566  -0.576629  0  2.299309  0
O  O129  1  0.31522020  0.85996437  0.56405824  1  0  -0.671348  0  2.049123  0  0  -0.598031  0  2.293483  0  0  -0.628567  0  2.283759  0  0  -0.328588  -0.57661  0  2.299448  0
O  O130  1  0.31522313  0.35996293  0.93594398  1  0  -0.671404  0  2.049114  0  0  -0.598082  0  2.293461  0  0  -0.628622  0  2.283737  0  0  -0.328544  -0.576642  0  2.29938  0
O  O131  1  0.68478211  0.14003538  0.43594459  1  0  -0.671374  0  2.049158  0  0  -0.598034  0  2.293462  0  0  -0.628571  0  2.283741  0  0  -0.328546  -0.576608  0  2.299417  0
O  O132  1  0.59305022  0.66579211  0.19783467  1  0  -0.620966  0  1.909805  0  0  -0.56666  0  2.135811  0  0  -0.593694  0  2.128921  0  0  -0.324117  -0.547683  0  2.139756  0
O  O133  1  0.40695693  0.83421059  0.69783202  1  0  -0.62091  0  1.909838  0  0  -0.566567  0  2.135781  0  0  -0.593607  0  2.128898  0  0  -0.324058  -0.547584  0  2.139711  0
O  O134  1  0.40695569  0.33421288  0.80216881  1  0  -0.620958  0  1.909943  0  0  -0.566606  0  2.135834  0  0  -0.593643  0  2.128949  0  0  -0.32411  -0.547641  0  2.139798  0
O  O135  1  0.59304110  0.16578242  0.30217080  1  0  -0.621075  0  1.909944  0  0  -0.566684  0  2.135799  0  0  -0.593723  0  2.128911  0  0  -0.324131  -0.547713  0  2.139762  0
O  O136  1  0.30527973  0.46702232  0.08685918  1  0  -0.828016  0  1.856712  0  0  -0.769367  0  2.05147  0  0  -0.792102  0  2.017308  0  0  -0.584032  -0.753245  0  2.075267  0
O  O137  1  0.69471581  0.03297444  0.58685878  1  0  -0.828105  0  1.856703  0  0  -0.769442  0  2.051447  0  0  -0.792176  0  2.017281  0  0  -0.584052  -0.75332  0  2.075246  0
O  O138  1  0.69472258  0.53297743  0.91313909  1  0  -0.82794  0  1.856785  0  0  -0.769307  0  2.051548  0  0  -0.792043  0  2.017386  0  0  -0.584063  -0.753188  0  2.075346  0
O  O139  1  0.30528334  0.96702381  0.41314079  1  0  -0.828005  0  1.856738  0  0  -0.769361  0  2.051491  0  0  -0.792098  0  2.017329  0  0  -0.584028  -0.753237  0  2.075288  0
O  O140  1  0.45559823  0.81301756  0.03678088  1  0  -0.559256  0  2.260959  0  0  -0.477395  0  2.529165  0  0  -0.499607  0  2.517063  0  0  -0.423395  -0.461569  0  2.537022  0
O  O141  1  0.54440360  0.68698063  0.53678066  1  0  -0.559211  0  2.260923  0  0  -0.477347  0  2.529129  0  0  -0.499564  0  2.517045  0  0  -0.423365  -0.461521  0  2.536983  0
O  O142  1  0.54440126  0.18698145  0.96321869  1  0  -0.559272  0  2.26095  0  0  -0.477416  0  2.529179  0  0  -0.499626  0  2.51708  0  0  -0.423378  -0.461591  0  2.537034  0
O  O143  1  0.45559713  0.31301838  0.46321956  1  0  -0.55918  0  2.260992  0  0  -0.477349  0  2.529185  0  0  -0.499558  0  2.517082  0  0  -0.42338  -0.461523  0  2.537037  0
