# generated using pymatgen
data_Zn4H15C44S5N16(O3F)5
_symmetry_space_group_name_H-M   'P 1'
_cell_length_a   16.24961904
_cell_length_b   16.25841483
_cell_length_c   18.57480080
_cell_angle_alpha   105.43225510
_cell_angle_beta   107.40809594
_cell_angle_gamma   111.91957870
_symmetry_Int_Tables_number   1
_chemical_formula_structural   Zn4H15C44S5N16(O3F)5
_chemical_formula_sum   'Zn4 H15 C44 S5 N16 O15 F5'
_cell_volume   3928.59863834
_cell_formula_units_Z   1
loop_
 _symmetry_equiv_pos_site_id
 _symmetry_equiv_pos_as_xyz
  1  'x, y, z'
loop_
 _atom_site_type_symbol
 _atom_site_label
 _atom_site_symmetry_multiplicity
 _atom_site_fract_x
 _atom_site_fract_y
 _atom_site_fract_z
 _atom_site_occupancy
 _atom_site_pbe_bader_charge
 _atom_site_pbe_bader_spin_density
 _atom_site_pbe_cm5_charge
 _atom_site_pbe_ddec_charge
 _atom_site_pbe_ddec_spin_density
 _atom_site_pbe_ddec_sum_bond_order
 _atom_site_pbe_magmom
Zn  Zn0  1  0.14225146  0.13476260  0.51358091  1  1.215443  0  0.773017  0.702538  0  2.262843  0
Zn  Zn1  1  0.86589192  0.85871239  0.53000447  1  1.230761  0  0.766091  0.721602  0  2.397693  0
Zn  Zn2  1  0.98513061  0.90466725  0.33622329  1  1.237402  0  0.768624  0.768179  0  2.248462  0
Zn  Zn3  1  0.00255520  0.11205203  0.63460492  1  1.24285  0  0.743274  0.676464  0  2.35834  0
H  H4  1  0.04404353  0.12008311  0.82560200  1  0.157616  0  0.140916  0.137276  0  0.949748  0
H  H5  1  0.33388095  0.10247939  0.56849040  1  0.155176  0  0.127619  0.119379  0  0.993368  0
H  H6  1  0.17961340  0.13663725  0.78814555  1  0.128154  0  0.121602  0.111234  0  1.036252  0
H  H7  1  0.07289319  0.75095367  0.42084707  1  0.109012  0  0.12654  0.122123  0  0.974551  0
H  H8  1  0.23573367  0.15759189  0.07237793  1  0.147174  0  0.116727  0.156897  0  0.993223  0
H  H9  1  0.64603090  0.83350085  0.44719490  1  0.139965  0  0.132317  0.122523  0  0.973244  0
H  H10  1  0.63943264  0.77039714  0.29715789  1  0.087455  0  0.116443  0.105436  0  0.994384  0
H  H11  1  0.04834633  0.25208808  0.43065078  1  0.143995  0  0.13302  0.132587  0  0.973385  0
H  H12  1  0.82601989  0.14639178  0.53314753  1  0.1243  0  0.120541  0.109249  0  1.023145  0
H  H13  1  0.36738523  0.26397376  0.68059172  1  0.110498  0  0.130396  0.121612  0  0.977411  0
H  H14  1  0.68991894  0.50769810  0.37560574  1  0.636471  0  0.368249  0.420195  0  0.809878  0
H  H15  1  0.22649799  0.90683592  0.22134248  1  0.653452  0  0.370008  0.421683  0  0.808309  0
H  H16  1  0.65981753  0.32121516  0.94818368  1  0.632445  0  0.357794  0.406352  0  0.828454  0
H  H17  1  0.40996260  0.45038556  0.17334475  1  0.651847  0  0.351418  0.402036  0  0.83789  0
H  H18  1  0.06297337  0.47326171  0.74706349  1  0.644305  0  0.369815  0.420601  0  0.808733  0
C  C19  1  0.18102668  0.16252235  0.36719008  1  1.080059  0  0.211463  0.344944  0  4.10698  0
C  C20  1  0.69850710  0.99351006  0.47682977  1  0.085672  0  -0.02129  0.029621  0  4.184029  0
C  C21  1  0.70041689  0.68023711  0.24066582  1  0.161894  0  -0.041463  -0.106044  0  4.21738  0
C  C22  1  0.01331037  0.31643970  0.53322611  1  0.20247  0  -0.010044  0.04844  0  4.164866  0
C  C23  1  0.30674351  0.22515948  0.69331140  1  0.406638  0  0.026015  -0.039147  0  3.942511  0
C  C24  1  0.88639471  0.69387183  0.46727301  1  0.270959  0  0.065909  -0.116905  0  4.051151  0
C  C25  1  0.18616229  0.93222365  0.37768038  1  0.301025  0  0.080619  -0.085476  0  3.988185  0
C  C26  1  0.02252741  0.05000307  0.77822006  1  0.433871  0  0.039745  -0.002585  0  3.92898  0
C  C27  1  0.99650401  0.90371418  0.70731916  1  1.102265  0  0.221358  0.350239  0  4.071282  0
C  C28  1  0.27582583  0.04689576  0.50710619  1  0.37365  0  0.026407  -0.033495  0  3.882  0
C  C29  1  0.20945840  0.15959199  0.74764542  1  0.458699  0  0.026465  -0.017271  0  3.917933  0
C  C30  1  0.70501172  0.90855055  0.47317961  1  0.393798  0  0.035579  -0.016863  0  3.918063  0
C  C31  1  0.01199546  0.74306598  0.43661834  1  0.487254  0  0.027382  -0.024751  0  3.897807  0
C  C32  1  0.30998270  0.21607142  0.76740485  1  0.14051  0  -0.02307  0.032986  0  4.19065  0
C  C33  1  0.95325435  0.66514641  0.45115230  1  0.098671  0  -0.011327  0.050817  0  4.170259  0
C  C34  1  0.28546350  0.99201286  0.44005075  1  0.133219  0  -0.01204  0.057392  0  4.173237  0
C  C35  1  0.03772293  0.97334858  0.78990993  1  0.168496  0  -0.027076  -0.087307  0  4.209539  0
C  C36  1  0.99670588  0.38932851  0.51669819  1  -0.29394  0  -0.034139  -0.085231  0  4.094296  0
C  C37  1  0.98467940  0.45111819  0.49579154  1  0.038215  0  -0.030941  -0.018472  0  4.293792  0
C  C38  1  0.97249402  0.52029767  0.47473613  1  -0.193742  0  -0.03649  -0.030271  0  4.285526  0
C  C39  1  0.96335706  0.58578298  0.45859031  1  0.114991  0  -0.024161  -0.064611  0  4.078919  0
C  C40  1  0.61191357  0.00048215  0.45486663  1  -0.268174  0  -0.017191  -0.04312  0  4.069769  0
C  C41  1  0.79723667  0.71965807  0.24803882  1  1.097076  0  0.215388  0.351968  0  4.060899  0
C  C42  1  0.53366620  0.00125008  0.44242206  1  0.088104  0  -0.047838  -0.065093  0  4.315209  0
C  C43  1  0.44871285  0.00032657  0.43682051  1  -0.139576  0  -0.034721  -0.00849  0  4.312168  0
C  C44  1  0.37153301  0.99627287  0.43629669  1  -0.021468  0  -0.04461  -0.108458  0  4.110871  0
C  C45  1  0.62655006  0.58327390  0.19015141  1  -0.285222  0  -0.016297  0.017321  0  4.102687  0
C  C46  1  0.50152670  0.41185662  0.06619467  1  -0.01022  0  -0.002762  -0.059832  0  4.042359  0
C  C47  1  0.52139042  0.37685244  0.00085993  1  0.003582  0  -0.003443  -0.069046  0  4.030028  0
C  C48  1  0.45172990  0.30859877  0.91998398  1  0.065361  0  -0.056554  -0.103405  0  4.229695  0
C  C49  1  0.56793746  0.49809099  0.13826606  1  -0.024309  0  -0.069034  -0.150891  0  4.235947  0
C  C50  1  0.38941508  0.26205686  0.84688384  1  -0.32214  0  -0.018798  -0.026521  0  4.066674  0
C  C51  1  0.08354705  0.97264769  0.86640169  1  -0.034783  0  -0.027247  -0.004591  0  4.120786  0
C  C52  1  0.01251590  0.28640277  0.59825988  1  0.30515  0  0.082979  -0.085819  0  3.984705  0
C  C53  1  0.15230334  0.00423951  0.02287211  1  0.489676  0  0.109068  0.314666  0  4.134037  0
C  C54  1  0.20168935  0.09585627  0.08639900  1  0.192179  0  -0.093786  -0.205496  0  4.065238  0
C  C55  1  0.19718816  0.11117461  0.16245286  1  -0.05682  0  -0.043446  -0.017204  0  4.182494  0
C  C56  1  0.12193302  0.98443827  0.93850379  1  -0.198574  0  -0.046195  -0.165558  0  4.128659  0
C  C57  1  0.17991416  0.12016007  0.22296295  1  -0.231479  0  -0.06031  -0.080892  0  4.167548  0
C  C58  1  0.70062448  0.76575632  0.28763149  1  0.527024  0  0.014156  -0.030466  0  4.015143  0
C  C59  1  0.03855000  0.25446107  0.48628551  1  0.425657  0  0.034819  -0.018708  0  3.868503  0
C  C60  1  0.79824570  0.06896527  0.51743004  1  0.486009  0  0.027688  -0.012182  0  3.901231  0
C  C61  1  0.04745980  0.03825836  0.26284373  1  1.089652  0  0.212425  0.350958  0  4.090444  0
C  C62  1  0.14121363  0.11159714  0.28010605  1  0.1944  0  -0.039084  -0.175202  0  4.23369  0
S  S63  1  0.78751294  0.64025965  0.48826253  1  3.059357  0  0.555027  1.159254  0  5.991909  0
S  S64  1  0.13076728  0.84709895  0.27383098  1  3.115272  0  0.560282  1.166558  0  6.005787  0
S  S65  1  0.64942225  0.44046643  0.01909364  1  3.07149  0  0.542638  1.160852  0  5.962091  0
S  S66  1  0.37514232  0.35334284  0.05149520  1  3.034812  0  0.544008  1.16038  0  5.963197  0
S  S67  1  0.98363934  0.31757704  0.68166127  1  3.086912  0  0.55636  1.15743  0  6.022484  0
N  N68  1  0.11939572  0.12380961  0.39757631  1  -0.833707  0  -0.292402  -0.304012  0  3.580928  0
N  N69  1  0.90694122  0.78139402  0.46418101  1  -0.751569  0  -0.272473  -0.193523  0  3.688462  0
N  N70  1  0.12547787  0.95086593  0.40671518  1  -0.734607  0  -0.264988  -0.184922  0  3.703134  0
N  N71  1  0.97765859  0.02703105  0.69672889  1  -0.767428  0  -0.273348  -0.172219  0  3.526583  0
N  N72  1  0.96080841  0.93463679  0.65198945  1  -0.842753  0  -0.286855  -0.315546  0  3.549203  0
N  N73  1  0.17951962  0.02144049  0.48541277  1  -0.715572  0  -0.251582  -0.176939  0  3.498616  0
N  N74  1  0.15103802  0.13780388  0.66909466  1  -0.804559  0  -0.265496  -0.21106  0  3.496551  0
N  N75  1  0.98410607  0.81188033  0.44568063  1  -0.658873  0  -0.228896  -0.187426  0  3.315871  0
N  N76  1  0.80054588  0.93325697  0.50990830  1  -0.78668  0  -0.282716  -0.17478  0  3.677141  0
N  N77  1  0.84759849  0.81672020  0.29327188  1  -0.857995  0  -0.298385  -0.303187  0  3.680672  0
N  N78  1  0.03552415  0.21431829  0.58928268  1  -0.734951  0  -0.259487  -0.176077  0  3.635896  0
N  N79  1  0.78755515  0.84641844  0.31875374  1  -0.685463  0  -0.264704  -0.214757  0  3.219645  0
N  N80  1  0.05097284  0.19417319  0.52089613  1  -0.76214  0  -0.252255  -0.165531  0  3.545706  0
N  N81  1  0.85871683  0.03200875  0.53756710  1  -0.788894  0  -0.265976  -0.201808  0  3.541497  0
N  N82  1  0.03315736  0.04272427  0.33082035  1  -0.803571  0  -0.284424  -0.323637  0  3.404867  0
N  N83  1  0.21178398  0.17932790  0.63596321  1  -0.79154  0  -0.278074  -0.183348  0  3.611417  0
O  O84  1  0.80111930  0.58264355  0.53210511  1  -1.25906  0  -0.285721  -0.489221  0  2.110384  0
O  O85  1  0.76702234  0.71891557  0.52136829  1  -1.29575  0  -0.305743  -0.508877  0  2.222823  0
O  O86  1  0.69283329  0.57102739  0.39862551  1  -1.185936  0  -0.344884  -0.51971  0  2.140453  0
O  O87  1  0.16151839  0.77460599  0.26549614  1  -1.271472  0  -0.297121  -0.503505  0  2.088708  0
O  O88  1  0.02692234  0.82019863  0.24390231  1  -1.283726  0  -0.290398  -0.511316  0  2.257243  0
O  O89  1  0.17058931  0.91174686  0.22786262  1  -1.200793  0  -0.333082  -0.512043  0  2.1995  0
O  O90  1  0.66970378  0.53121511  0.01286878  1  -1.258314  0  -0.294662  -0.484771  0  2.078431  0
O  O91  1  0.71054865  0.43508299  0.09002473  1  -1.280358  0  -0.315023  -0.536025  0  2.103467  0
O  O92  1  0.64634309  0.37142355  0.93662909  1  -1.178862  0  -0.356648  -0.526837  0  2.139408  0
O  O93  1  0.32583421  0.40085291  0.01685471  1  -1.272537  0  -0.314818  -0.526102  0  2.072997  0
O  O94  1  0.33239672  0.24868472  0.01472564  1  -1.257855  0  -0.295238  -0.505293  0  2.139996  0
O  O95  1  0.39176521  0.38133766  0.14685366  1  -1.202557  0  -0.358895  -0.527924  0  2.135361  0
O  O96  1  0.89865605  0.33070868  0.65635694  1  -1.27604  0  -0.298287  -0.512633  0  2.09641  0
O  O97  1  0.98609363  0.24835331  0.71667385  1  -1.296199  0  -0.297568  -0.507164  0  2.163574  0
O  O98  1  0.07834360  0.42104765  0.75019797  1  -1.180383  0  -0.343921  -0.510177  0  2.111044  0
F  F99  1  0.26984249  0.24198595  0.41936148  1  -0.633787  0  -0.085561  -0.129567  0  1.328732  0
F  F100  1  0.98883761  0.81511489  0.68125297  1  -0.627041  0  -0.072981  -0.117443  0  1.354713  0
F  F101  1  0.11649529  0.92389854  0.03890968  1  -0.61717  0  -0.108282  -0.149934  0  1.292977  0
F  F102  1  0.83869175  0.67164004  0.21731308  1  -0.63005  0  -0.068925  -0.104447  0  1.388764  0
F  F103  1  0.97688563  0.96735623  0.18824644  1  -0.623756  0  -0.067015  -0.100628  0  1.348076  0
