# generated using pymatgen
data_ZnH22C19N4O5
_symmetry_space_group_name_H-M   'P 1'
_cell_length_a   9.87194923
_cell_length_b   9.72191411
_cell_length_c   11.76624685
_cell_angle_alpha   85.54408829
_cell_angle_beta   82.09923769
_cell_angle_gamma   84.54656538
_symmetry_Int_Tables_number   1
_chemical_formula_structural   ZnH22C19N4O5
_chemical_formula_sum   'Zn2 H44 C38 N8 O10'
_cell_volume   1111.08019018
_cell_formula_units_Z   2
loop_
 _symmetry_equiv_pos_site_id
 _symmetry_equiv_pos_as_xyz
  1  'x, y, z'
loop_
 _atom_site_type_symbol
 _atom_site_label
 _atom_site_symmetry_multiplicity
 _atom_site_fract_x
 _atom_site_fract_y
 _atom_site_fract_z
 _atom_site_occupancy
 _atom_site_pbe_bader_charge
 _atom_site_pbe_bader_spin_density
 _atom_site_pbe_cm5_charge
 _atom_site_pbe_ddec_charge
 _atom_site_pbe_ddec_spin_density
 _atom_site_pbe_ddec_sum_bond_order
 _atom_site_pbe_magmom
Zn  Zn0  1  0.17177970  0.99335860  0.57471965  1  1.238921  0  0.691115  0.751188  0  2.393261  0
Zn  Zn1  1  0.07868577  0.14950801  0.92389431  1  1.244716  0  0.697546  0.765076  0  2.347242  0
H  H2  1  0.38618532  0.81625129  0.67295800  1  0.082215  0  0.113976  0.078088  0  1.010193  0
H  H3  1  0.40888757  0.62730995  0.82649233  1  0.151366  0  0.106195  0.121106  0  1.048872  0
H  H4  1  0.96756606  0.66843804  0.90666685  1  0.11226  0  0.108063  0.12034  0  1.000709  0
H  H5  1  0.96280663  0.84509168  0.73949521  1  0.147929  0  0.114804  0.089419  0  1.042979  0
H  H6  1  0.29876856  0.46933322  0.97215011  1  0.071487  0  0.101525  0.116955  0  0.963745  0
H  H7  1  0.11891874  0.46157180  0.98780793  1  0.056704  0  0.092669  0.090973  0  1.038302  0
H  H8  1  0.07780341  0.65669929  0.11146414  1  -0.00209  0  0.091448  0.086041  0  0.992459  0
H  H9  1  0.19179248  0.52566846  0.16770083  1  0.024005  0  0.088843  0.081252  0  1.01444  0
H  H10  1  0.39202086  0.66086805  0.08323306  1  0.078667  0  0.0953  0.106341  0  0.989879  0
H  H11  1  0.27428888  0.79149298  0.02744281  1  0.074673  0  0.097153  0.109071  0  1.022333  0
H  H12  1  0.07022648  0.89183418  0.17820264  1  0.1729  0  0.111658  0.141871  0  1.027795  0
H  H13  1  0.03297164  0.99330161  0.36929979  1  0.109239  0  0.120836  0.091262  0  0.996151  0
H  H14  1  0.40273457  0.80662106  0.45647143  1  0.068947  0  0.113317  0.075439  0  1.008195  0
H  H15  1  0.45511565  0.69305970  0.26894720  1  0.136179  0  0.108263  0.122661  0  0.999666  0
H  H16  1  0.78979087  0.24303012  0.51280357  1  0.051735  0  0.09598  0.104037  0  1.019748  0
H  H17  1  0.75647272  0.21237043  0.66174510  1  0.047711  0  0.101939  0.117347  0  0.995557  0
H  H18  1  0.59700386  0.03457079  0.64119459  1  0.028259  0  0.089782  0.089093  0  1.010658  0
H  H19  1  0.64645722  0.03951219  0.49131651  1  0.025192  0  0.093645  0.096005  0  0.970002  0
H  H20  1  0.55529384  0.28259087  0.47005665  1  0.040745  0  0.113524  0.063123  0  0.989994  0
H  H21  1  0.54947556  0.47656316  0.46288745  1  0.459877  0  0.314341  0.322032  0  0.946178  0
H  H22  1  0.61607960  0.60000307  0.53315179  1  0.455109  0  0.320249  0.32978  0  0.92557  0
H  H23  1  0.48604569  0.26556617  0.72691401  1  0.50875  0  0.307139  0.28797  0  0.968898  0
H  H24  1  0.84868019  0.32833809  0.04372582  1  0.097284  0  0.11905  0.087067  0  0.998555  0
H  H25  1  0.79412063  0.44189897  0.22538393  1  0.124164  0  0.106421  0.129722  0  1.014213  0
H  H26  1  0.18083966  0.25198595  0.32300602  1  0.162636  0  0.111373  0.144204  0  1.027062  0
H  H27  1  0.22362069  0.15142385  0.13031089  1  0.094991  0  0.120343  0.090336  0  0.986822  0
H  H28  1  0.84467996  0.45560020  0.42182552  1  -0.023822  0  0.085283  0.076577  0  1.012361  0
H  H29  1  0.97950782  0.34324201  0.47296768  1  0.092031  0  0.099398  0.113375  0  1.018213  0
H  H30  1  0.02028361  0.62303883  0.33761519  1  0.03462  0  0.089062  0.083812  0  1.00321  0
H  H31  1  0.14891297  0.51000306  0.39487724  1  0.042589  0  0.091737  0.088575  0  0.99073  0
H  H32  1  0.06943316  0.69890433  0.52373030  1  0.062023  0  0.094419  0.098356  0  1.020798  0
H  H33  1  0.89771616  0.66265798  0.53149399  1  0.01152  0  0.093561  0.102873  0  0.977032  0
H  H34  1  0.24456215  0.48568125  0.58857637  1  0.070037  0  0.105567  0.113935  0  1.003835  0
H  H35  1  0.26589579  0.30848593  0.75173817  1  0.172152  0  0.114603  0.08298  0  1.082836  0
H  H36  1  0.84479100  0.31896177  0.83758349  1  0.105645  0  0.118397  0.086029  0  0.999908  0
H  H37  1  0.80489222  0.50613129  0.68790724  1  0.079169  0  0.102186  0.112994  0  1.050466  0
H  H38  1  0.51639433  0.93919967  0.81094373  1  0.042698  0  0.095809  0.102057  0  1.001398  0
H  H39  1  0.45853291  0.87687192  0.95259314  1  0.078137  0  0.094556  0.104694  0  1.034378  0
H  H40  1  0.58278029  0.06414828  0.02724960  1  0.040347  0  0.095063  0.098561  0  0.962731  0
H  H41  1  0.64904238  0.11139343  0.88367091  1  0.050478  0  0.094172  0.098653  0  0.996044  0
H  H42  1  0.76451333  0.87306672  0.86272564  1  0.053349  0  0.114362  0.072915  0  0.983717  0
H  H43  1  0.73788780  0.80367784  0.10725032  1  0.47472  0  0.307507  0.275136  0  0.959619  0
H  H44  1  0.63156805  0.55099939  0.88184989  1  0.498301  0  0.312421  0.340836  0  0.937431  0
H  H45  1  0.65208066  0.72085381  0.83899607  1  0.444803  0  0.307406  0.307953  0  0.961395  0
C  C46  1  0.29603184  0.77819122  0.72566272  1  0.461981  0  0.044161  0.096689  0  3.963801  0
C  C47  1  0.30793006  0.67611431  0.81341961  1  -0.043512  0  -0.085345  -0.183716  0  3.933647  0
C  C48  1  0.18991558  0.63502276  0.88257662  1  -0.044048  0  0.020533  0.183734  0  3.929697  0
C  C49  1  0.06320013  0.69778539  0.85688553  1  -0.030242  0  -0.082047  -0.174991  0  3.913939  0
C  C50  1  0.05872957  0.79681243  0.76568319  1  0.464572  0  0.047391  0.100342  0  3.938691  0
C  C51  1  0.19986916  0.53231809  0.98334794  1  -0.047864  0  -0.16099  -0.213489  0  3.937632  0
C  C52  1  0.18225662  0.60479060  0.09671807  1  0.035479  0  -0.157486  -0.123258  0  3.909013  0
C  C53  1  0.28722198  0.71155543  0.09771335  1  -0.05722  0  -0.162229  -0.218907  0  3.922164  0
C  C54  1  0.26572761  0.78095450  0.20875668  1  -0.06788  0  0.023776  0.191724  0  3.918244  0
C  C55  1  0.14645420  0.86846312  0.23768428  1  -0.071984  0  -0.079666  -0.189944  0  3.904302  0
C  C56  1  0.12511329  0.92635546  0.34339817  1  0.508441  0  0.052075  0.104936  0  3.946299  0
C  C57  1  0.33167705  0.82168973  0.39237878  1  0.447956  0  0.041706  0.087848  0  3.97811  0
C  C58  1  0.35999601  0.75878017  0.28864258  1  -0.015228  0  -0.084761  -0.190567  0  3.936042  0
C  C59  1  0.89116911  0.05817322  0.57912373  1  1.567935  0  0.198635  0.622841  0  4.169125  0
C  C60  1  0.76598943  0.16113376  0.58050748  1  -0.059902  0  -0.171155  -0.292915  0  3.94922  0
C  C61  1  0.63221526  0.10284029  0.56630668  1  0.023773  0  -0.165298  -0.168902  0  3.954977  0
C  C62  1  0.52119422  0.22115566  0.54927981  1  0.32171  0  0.01021  0.037137  0  3.852732  0
C  C63  1  0.38354851  0.16989492  0.53033215  1  1.587225  0  0.198484  0.562485  0  4.194865  0
C  C64  1  0.54847461  0.44030901  0.64146866  1  1.856187  0  0.321974  0.689223  0  4.241927  0
C  C65  1  0.92050195  0.31370069  0.10709984  1  0.432193  0  0.049347  0.102346  0  3.950096  0
C  C66  1  0.88978297  0.37600197  0.21081721  1  -0.019577  0  -0.084704  -0.186545  0  3.922745  0
C  C67  1  0.98274334  0.35538892  0.29163005  1  -0.01708  0  0.018963  0.179722  0  3.932552  0
C  C68  1  0.10525492  0.27242947  0.26270089  1  -0.010384  0  -0.080784  -0.188233  0  3.89998  0
C  C69  1  0.12944748  0.21558216  0.15640100  1  0.430151  0  0.05101  0.100891  0  3.949504  0
C  C70  1  0.95473514  0.42134904  0.40427835  1  0.0109  0  -0.163684  -0.21362  0  3.949599  0
C  C71  1  0.03892184  0.54543102  0.40804580  1  -0.018618  0  -0.158224  -0.128723  0  3.911491  0
C  C72  1  0.00355632  0.61420776  0.52301659  1  0.012331  0  -0.159641  -0.203383  0  3.929664  0
C  C73  1  0.02193079  0.51174035  0.62292682  1  0.001857  0  0.019157  0.176495  0  3.929833  0
C  C74  1  0.15258360  0.45384695  0.64252064  1  -0.005602  0  -0.080173  -0.165073  0  3.915413  0
C  C75  1  0.16640664  0.35375486  0.73160303  1  0.453786  0  0.045238  0.099105  0  3.933522  0
C  C76  1  0.93082348  0.36145155  0.78227077  1  0.474665  0  0.047698  0.09883  0  3.951735  0
C  C77  1  0.90974017  0.46469153  0.69672781  1  -0.044005  0  -0.086917  -0.188042  0  3.941007  0
C  C78  1  0.36540213  0.07563641  0.89861594  1  1.55629  0  0.206987  0.628407  0  4.151167  0
C  C79  1  0.48933260  0.96978408  0.90031089  1  -0.079812  0  -0.169519  -0.294166  0  3.933362  0
C  C80  1  0.61301685  0.02443759  0.94144296  1  -0.021155  0  -0.163143  -0.167054  0  3.923746  0
C  C81  1  0.73303413  0.91175204  0.94886221  1  0.334238  0  0.009505  0.029451  0  3.861706  0
C  C82  1  0.85995634  0.97425906  0.98061458  1  1.585781  0  0.204043  0.562828  0  4.196862  0
C  C83  1  0.67513416  0.66594748  0.01076366  1  1.838964  0  0.307843  0.681619  0  4.275304  0
N  N84  1  0.17354021  0.83809735  0.70155728  1  -1.274149  0  -0.338531  -0.246753  0  3.595091  0
N  N85  1  0.21568340  0.90360922  0.42024149  1  -1.279951  0  -0.335532  -0.247377  0  3.607622  0
N  N86  1  0.56170371  0.51633328  0.53738283  1  -1.266329  0  -0.59447  -0.720583  0  3.297354  0
N  N87  1  0.50343765  0.31171997  0.64501773  1  -1.220071  0  -0.426487  -0.428265  0  3.463239  0
N  N88  1  0.03864696  0.23490505  0.07960403  1  -1.27059  0  -0.338552  -0.254912  0  3.623517  0
N  N89  1  0.05733972  0.30630326  0.80010077  1  -1.276798  0  -0.336277  -0.244036  0  3.585568  0
N  N90  1  0.69813350  0.79803850  0.03236595  1  -1.234506  0  -0.444046  -0.456223  0  3.520099  0
N  N91  1  0.66261503  0.64256138  0.89971379  1  -1.278503  0  -0.598127  -0.712627  0  3.328682  0
O  O92  1  0.00531707  0.11699800  0.57556296  1  -1.169643  0  -0.343002  -0.558375  0  2.313028  0
O  O93  1  0.88252533  0.93069419  0.58107700  1  -1.200081  0  -0.335668  -0.577501  0  2.124084  0
O  O94  1  0.34229582  0.06983059  0.60259411  1  -1.177816  0  -0.340338  -0.559046  0  2.317984  0
O  O95  1  0.32256775  0.22481275  0.45034195  1  -1.187724  0  -0.335717  -0.565759  0  2.123911  0
O  O96  1  0.57304588  0.49212245  0.72980327  1  -1.205815  0  -0.333009  -0.593822  0  2.133751  0
O  O97  1  0.38200233  0.20077509  0.87267797  1  -1.184182  0  -0.321188  -0.5621  0  2.160926  0
O  O98  1  0.24681870  0.02513896  0.92468656  1  -1.168885  0  -0.334103  -0.551783  0  2.301235  0
O  O99  1  0.90210165  0.93884908  0.07452146  1  -1.181798  0  -0.326677  -0.551151  0  2.131918  0
O  O100  1  0.91177773  0.06185252  0.90188966  1  -1.184289  0  -0.339095  -0.566603  0  2.344969  0
O  O101  1  0.66680616  0.57174676  0.08939934  1  -1.184538  0  -0.364157  -0.616319  0  2.041919  0
