# generated using pymatgen
data_ZnH9C7BrN2O5
_symmetry_space_group_name_H-M   'P 1'
_cell_length_a   6.20096026
_cell_length_b   9.99347589
_cell_length_c   19.01821359
_cell_angle_alpha   101.07419738
_cell_angle_beta   89.99995481
_cell_angle_gamma   90.00010908
_symmetry_Int_Tables_number   1
_chemical_formula_structural   ZnH9C7BrN2O5
_chemical_formula_sum   'Zn4 H36 C28 Br4 N8 O20'
_cell_volume   1156.59714365
_cell_formula_units_Z   4
loop_
 _symmetry_equiv_pos_site_id
 _symmetry_equiv_pos_as_xyz
  1  'x, y, z'
loop_
 _atom_site_type_symbol
 _atom_site_label
 _atom_site_symmetry_multiplicity
 _atom_site_fract_x
 _atom_site_fract_y
 _atom_site_fract_z
 _atom_site_occupancy
 _atom_site_hle17_bader_spin_density
 _atom_site_hle17_ddec_charge
 _atom_site_hle17_ddec_spin_density
 _atom_site_hle17_ddec_sum_bond_order
 _atom_site_hle17_magmom
 _atom_site_hse06_10hf_bader_spin_density
 _atom_site_hse06_10hf_ddec_charge
 _atom_site_hse06_10hf_ddec_spin_density
 _atom_site_hse06_10hf_ddec_sum_bond_order
 _atom_site_hse06_10hf_magmom
 _atom_site_hse06_bader_spin_density
 _atom_site_hse06_ddec_charge
 _atom_site_hse06_ddec_spin_density
 _atom_site_hse06_ddec_sum_bond_order
 _atom_site_hse06_magmom
 _atom_site_pbe_bader_spin_density
 _atom_site_pbe_cm5_charge
 _atom_site_pbe_ddec_charge
 _atom_site_pbe_ddec_spin_density
 _atom_site_pbe_ddec_sum_bond_order
 _atom_site_pbe_magmom
Zn  Zn0  1  0.57642613  0.05831838  0.89384599  1  0  1.050132  0  1.840565  0  0  0.883118  0  2.318321  0  0  0.932548  0  2.256276  0  0  0.590235  0.8484  0  2.361262  0
Zn  Zn1  1  0.07640292  0.44169045  0.60616290  1  0  1.050044  0  1.840329  0  0  0.883032  0  2.31803  0  0  0.932467  0  2.255985  0  0  0.590199  0.848313  0  2.360963  0
Zn  Zn2  1  0.42358760  0.94167789  0.10615100  1  0  1.049989  0  1.84067  0  0  0.883063  0  2.31841  0  0  0.932493  0  2.25636  0  0  0.590224  0.848346  0  2.361349  0
Zn  Zn3  1  0.92357534  0.55831848  0.39384735  1  0  1.050072  0  1.840633  0  0  0.883059  0  2.31841  0  0  0.932498  0  2.256363  0  0  0.590236  0.848346  0  2.36135  0
H  H4  1  0.08641945  0.82993305  0.98564846  1  0  0.116293  0  0.962983  0  0  0.123174  0  1.035055  0  0  0.126038  0  1.032874  0  0  0.113933  0.121037  0  1.036799  0
H  H5  1  0.58640184  0.67006313  0.51435048  1  0  0.116393  0  0.963004  0  0  0.123131  0  1.035148  0  0  0.125995  0  1.032968  0  0  0.113936  0.120996  0  1.036897  0
H  H6  1  0.91358783  0.17006859  0.01435692  1  0  0.116443  0  0.963039  0  0  0.123217  0  1.035155  0  0  0.126084  0  1.032978  0  0  0.113942  0.121076  0  1.03689  0
H  H7  1  0.41357480  0.32992718  0.48565070  1  0  0.116277  0  0.962957  0  0  0.123111  0  1.035044  0  0  0.125973  0  1.032864  0  0  0.11394  0.120981  0  1.036785  0
H  H8  1  0.87210656  0.72996402  0.00900958  1  0  0.117251  0  0.948704  0  0  0.127554  0  1.014996  0  0  0.130031  0  1.013856  0  0  0.110318  0.125748  0  1.016011  0
H  H9  1  0.37208846  0.77001913  0.49098967  1  0  0.117203  0  0.948842  0  0  0.12752  0  1.015036  0  0  0.129992  0  1.013903  0  0  0.110302  0.125718  0  1.016051  0
H  H10  1  0.12791201  0.27003653  0.99099359  1  0  0.117222  0  0.948725  0  0  0.127519  0  1.014937  0  0  0.129991  0  1.013809  0  0  0.110306  0.125714  0  1.015953  0
H  H11  1  0.62790269  0.22996901  0.50900710  1  0  0.11726  0  0.948792  0  0  0.127531  0  1.015071  0  0  0.130003  0  1.013936  0  0  0.110311  0.125729  0  1.016086  0
H  H12  1  0.33382459  0.72380046  0.87751198  1  0  0.140905  0  0.932147  0  0  0.145866  0  0.998141  0  0  0.149433  0  0.993567  0  0  0.149934  0.143136  0  1.001673  0
H  H13  1  0.83382329  0.77618570  0.62248438  1  0  0.140891  0  0.932007  0  0  0.145905  0  0.997942  0  0  0.149474  0  0.993368  0  0  0.149957  0.143173  0  1.001473  0
H  H14  1  0.66618269  0.27620723  0.12249185  1  0  0.140892  0  0.932009  0  0  0.145868  0  0.998014  0  0  0.14944  0  0.993429  0  0  0.14991  0.143135  0  1.001546  0
H  H15  1  0.16617109  0.22379016  0.37751021  1  0  0.140925  0  0.932032  0  0  0.145793  0  0.998131  0  0  0.14936  0  0.993558  0  0  0.149907  0.143061  0  1.001661  0
H  H16  1  0.81495282  0.48801981  0.93566128  1  0  0.128628  0  0.974166  0  0  0.133817  0  1.041721  0  0  0.137294  0  1.039834  0  0  0.112866  0.131273  0  1.043223  0
H  H17  1  0.31493782  0.01197463  0.56433676  1  0  0.128851  0  0.973922  0  0  0.13392  0  1.041607  0  0  0.137408  0  1.039718  0  0  0.112843  0.131377  0  1.04311  0
H  H18  1  0.18506897  0.51198475  0.06434016  1  0  0.128726  0  0.973954  0  0  0.133808  0  1.041643  0  0  0.137284  0  1.039771  0  0  0.112856  0.131266  0  1.043143  0
H  H19  1  0.68504850  0.98802173  0.43566288  1  0  0.128637  0  0.974112  0  0  0.133794  0  1.041716  0  0  0.137275  0  1.039819  0  0  0.11283  0.131251  0  1.043214  0
H  H20  1  0.09067929  0.31773721  0.84389879  1  0  0.137538  0  0.969493  0  0  0.144312  0  1.03156  0  0  0.14765  0  1.029696  0  0  0.125917  0.141874  0  1.033016  0
H  H21  1  0.59066791  0.18225803  0.65609887  1  0  0.137617  0  0.969349  0  0  0.144385  0  1.031434  0  0  0.147723  0  1.029562  0  0  0.12593  0.141946  0  1.032892  0
H  H22  1  0.90933766  0.68227039  0.15610240  1  0  0.137438  0  0.969473  0  0  0.144256  0  1.031523  0  0  0.147602  0  1.029653  0  0  0.125885  0.141817  0  1.032984  0
H  H23  1  0.40934098  0.81772304  0.34389936  1  0  0.137406  0  0.969567  0  0  0.144233  0  1.031603  0  0  0.147577  0  1.029736  0  0  0.125852  0.141795  0  1.033061  0
H  H24  1  0.50316392  0.36781925  0.80889759  1  0  0.121167  0  0.920175  0  0  0.13105  0  0.983148  0  0  0.133698  0  0.981502  0  0  0.117399  0.1291  0  0.984457  0
H  H25  1  0.00316201  0.13217365  0.69109356  1  0  0.12117  0  0.920247  0  0  0.131042  0  0.983221  0  0  0.133697  0  0.981574  0  0  0.11739  0.129089  0  0.984529  0
H  H26  1  0.49684659  0.63219122  0.19109860  1  0  0.121174  0  0.920274  0  0  0.131011  0  0.983252  0  0  0.133651  0  0.981617  0  0  0.117369  0.129058  0  0.984562  0
H  H27  1  0.99685656  0.86780014  0.30889979  1  0  0.121229  0  0.920237  0  0  0.131054  0  0.983221  0  0  0.133693  0  0.981589  0  0  0.117407  0.129103  0  0.984531  0
H  H28  1  0.56616738  0.53983226  0.80581722  1  0  0.139394  0  0.903168  0  0  0.152144  0  0.959027  0  0  0.155056  0  0.95718  0  0  0.13147  0.150014  0  0.960481  0
H  H29  1  0.06615697  0.96017362  0.69416841  1  0  0.139381  0  0.903148  0  0  0.152138  0  0.959  0  0  0.155054  0  0.957152  0  0  0.131449  0.150007  0  0.960448  0
H  H30  1  0.43383668  0.46018231  0.19417988  1  0  0.139382  0  0.902949  0  0  0.152094  0  0.958853  0  0  0.155011  0  0.957004  0  0  0.131437  0.14996  0  0.960305  0
H  H31  1  0.93384064  0.03981033  0.30582482  1  0  0.139352  0  0.903079  0  0  0.152113  0  0.958922  0  0  0.155026  0  0.95708  0  0  0.131451  0.149982  0  0.960373  0
H  H32  1  0.16744104  0.02283878  0.87456935  1  0  0.438351  0  0.86118  0  0  0.407815  0  0.923327  0  0  0.418574  0  0.907958  0  0  0.293413  0.40022  0  0.934166  0
H  H33  1  0.66742917  0.47715863  0.62543006  1  0  0.43836  0  0.861172  0  0  0.407836  0  0.923294  0  0  0.418591  0  0.907932  0  0  0.293416  0.400242  0  0.934131  0
H  H34  1  0.83256947  0.97715757  0.12542976  1  0  0.438355  0  0.861182  0  0  0.407832  0  0.923303  0  0  0.418588  0  0.90794  0  0  0.293438  0.400238  0  0.934141  0
H  H35  1  0.33255393  0.52284895  0.37457060  1  0  0.438358  0  0.861173  0  0  0.407836  0  0.923294  0  0  0.418591  0  0.907931  0  0  0.293423  0.40024  0  0.934132  0
H  H36  1  0.24287925  0.00442571  0.95372406  1  0  0.418714  0  0.886524  0  0  0.386426  0  0.956106  0  0  0.397395  0  0.940463  0  0  0.289334  0.378629  0  0.967232  0
H  H37  1  0.74287404  0.49557692  0.54627738  1  0  0.418761  0  0.886482  0  0  0.386442  0  0.956091  0  0  0.397416  0  0.940445  0  0  0.28933  0.37864  0  0.967224  0
H  H38  1  0.75712481  0.99557883  0.04627685  1  0  0.418736  0  0.886527  0  0  0.386397  0  0.956164  0  0  0.397369  0  0.940521  0  0  0.289324  0.378598  0  0.967293  0
H  H39  1  0.25711873  0.50442558  0.45372334  1  0  0.418788  0  0.88648  0  0  0.386448  0  0.956095  0  0  0.39742  0  0.940448  0  0  0.289353  0.378651  0  0.967222  0
C  C40  1  0.79311974  0.83139002  0.92312121  1  0  0.679916  0  3.862579  0  0  0.628399  0  4.17098  0  0  0.66072  0  4.164896  0  0  0.204725  0.606407  0  4.174372  0
C  C41  1  0.29311495  0.66861688  0.57688811  1  0  0.679975  0  3.862776  0  0  0.62855  0  4.170977  0  0  0.660887  0  4.164863  0  0  0.204791  0.606562  0  4.174371  0
C  C42  1  0.20688593  0.16861581  0.07688770  1  0  0.679918  0  3.862906  0  0  0.628538  0  4.171076  0  0  0.660875  0  4.164964  0  0  0.204766  0.606548  0  4.174468  0
C  C43  1  0.70686331  0.33139775  0.42311057  1  0  0.679733  0  3.863598  0  0  0.628364  0  4.171774  0  0  0.66069  0  4.165673  0  0  0.204648  0.606371  0  4.175166  0
C  C44  1  0.95643299  0.76054709  0.96373135  1  0  -0.173788  0  3.633199  0  0  -0.232385  0  3.874981  0  0  -0.233852  0  3.881536  0  0  -0.059778  -0.231368  0  3.870749  0
C  C45  1  0.45642530  0.73944646  0.53626986  1  0  -0.173883  0  3.633367  0  0  -0.232309  0  3.875008  0  0  -0.233768  0  3.881528  0  0  -0.0598  -0.231309  0  3.870795  0
C  C46  1  0.04357268  0.23944843  0.03627346  1  0  -0.174084  0  3.633311  0  0  -0.232493  0  3.874875  0  0  -0.233937  0  3.881348  0  0  -0.059807  -0.231469  0  3.870638  0
C  C47  1  0.54356908  0.26054787  0.46372958  1  0  -0.17372  0  3.632901  0  0  -0.232195  0  3.874488  0  0  -0.233672  0  3.881073  0  0  -0.059767  -0.231195  0  3.870283  0
C  C48  1  0.23018565  0.63753034  0.88071611  1  0  0.157  0  3.489217  0  0  0.08431  0  3.750145  0  0  0.101181  0  3.75712  0  0  0.178664  0.073172  0  3.745518  0
C  C49  1  0.73017337  0.86246985  0.61927737  1  0  0.157061  0  3.489427  0  0  0.084337  0  3.750378  0  0  0.10121  0  3.757344  0  0  0.17863  0.073197  0  3.745758  0
C  C50  1  0.76983615  0.36248246  0.11928872  1  0  0.15715  0  3.48961  0  0  0.084452  0  3.750545  0  0  0.101323  0  3.757518  0  0  0.178727  0.073314  0  3.745921  0
C  C51  1  0.26980972  0.13751515  0.38071701  1  0  0.157261  0  3.489506  0  0  0.084671  0  3.750464  0  0  0.101542  0  3.757431  0  0  0.178819  0.073536  0  3.745838  0
C  C52  1  0.96265420  0.51025295  0.90967221  1  0  -0.034969  0  3.641521  0  0  -0.080549  0  3.911988  0  0  -0.079342  0  3.929684  0  0  0.014761  -0.081354  0  3.900236  0
C  C53  1  0.46263926  0.98974051  0.59032637  1  0  -0.035099  0  3.64163  0  0  -0.080566  0  3.912099  0  0  -0.07938  0  3.929796  0  0  0.014769  -0.081366  0  3.900338  0
C  C54  1  0.03736759  0.48975479  0.09033320  1  0  -0.035106  0  3.641325  0  0  -0.080588  0  3.911859  0  0  -0.079399  0  3.92957  0  0  0.01469  -0.081376  0  3.900076  0
C  C55  1  0.53735028  0.01024660  0.40967031  1  0  -0.034977  0  3.641517  0  0  -0.080541  0  3.912053  0  0  -0.079337  0  3.929748  0  0  0.014766  -0.081331  0  3.90028  0
C  C56  1  0.09774128  0.42679096  0.86428437  1  0  -0.028927  0  3.630133  0  0  -0.075191  0  3.898765  0  0  -0.073034  0  3.915581  0  0  0.015718  -0.076837  0  3.887767  0
C  C57  1  0.59772955  0.07320214  0.63570993  1  0  -0.029019  0  3.63012  0  0  -0.07528  0  3.898752  0  0  -0.073116  0  3.915563  0  0  0.015688  -0.076928  0  3.887765  0
C  C58  1  0.90226923  0.57321554  0.13571462  1  0  -0.028861  0  3.629984  0  0  -0.075177  0  3.898627  0  0  -0.073029  0  3.915446  0  0  0.015727  -0.076825  0  3.887641  0
C  C59  1  0.40226645  0.92677981  0.36428417  1  0  -0.02895  0  3.630245  0  0  -0.075263  0  3.898903  0  0  -0.073117  0  3.915727  0  0  0.015667  -0.076909  0  3.887909  0
C  C60  1  0.43694694  0.46310542  0.79706227  1  0  -0.168143  0  3.597145  0  0  -0.22428  0  3.838765  0  0  -0.226057  0  3.845258  0  0  -0.046131  -0.223065  0  3.834614  0
C  C61  1  0.93693817  0.03689410  0.70293252  1  0  -0.168147  0  3.59745  0  0  -0.224195  0  3.839042  0  0  -0.225986  0  3.845542  0  0  -0.046051  -0.222954  0  3.834855  0
C  C62  1  0.56305873  0.53690512  0.20293604  1  0  -0.168171  0  3.597235  0  0  -0.224197  0  3.838742  0  0  -0.22597  0  3.845227  0  0  -0.046058  -0.222961  0  3.834554  0
C  C63  1  0.06305621  0.96308894  0.29706379  1  0  -0.168201  0  3.597204  0  0  -0.224238  0  3.838755  0  0  -0.226013  0  3.845243  0  0  -0.046092  -0.223008  0  3.834582  0
C  C64  1  0.36520485  0.44041168  0.71865739  1  0  0.697485  0  3.857804  0  0  0.649484  0  4.156035  0  0  0.683018  0  4.149158  0  0  0.219457  0.626717  0  4.159825  0
C  C65  1  0.86522667  0.05958579  0.78133881  1  0  0.697443  0  3.857492  0  0  0.649244  0  4.156035  0  0  0.682781  0  4.149158  0  0  0.219329  0.62647  0  4.159821  0
C  C66  1  0.63478308  0.55960100  0.28134374  1  0  0.697156  0  3.857635  0  0  0.649182  0  4.155854  0  0  0.682714  0  4.148983  0  0  0.219378  0.626409  0  4.15964  0
C  C67  1  0.13478384  0.94040431  0.21865604  1  0  0.69721  0  3.857858  0  0  0.649186  0  4.156147  0  0  0.68272  0  4.14928  0  0  0.219347  0.626414  0  4.15993  0
Br  Br68  1  0.54062075  0.29291142  0.94954370  1  0  -0.566403  0  0.977881  0  0  -0.51203  0  1.285853  0  0  -0.530503  0  1.259716  0  0  -0.257198  -0.498578  0  1.304028  0
Br  Br69  1  0.04058229  0.20707378  0.55045883  1  0  -0.566438  0  0.977702  0  0  -0.512039  0  1.285632  0  0  -0.530511  0  1.259512  0  0  -0.257194  -0.49858  0  1.30379  0
Br  Br70  1  0.45938814  0.70709514  0.05045686  1  0  -0.566399  0  0.978008  0  0  -0.512007  0  1.285976  0  0  -0.530471  0  1.259838  0  0  -0.257184  -0.498556  0  1.304152  0
Br  Br71  1  0.95938790  0.79291872  0.44954676  1  0  -0.566375  0  0.977823  0  0  -0.512001  0  1.285793  0  0  -0.53047  0  1.25966  0  0  -0.257196  -0.498551  0  1.303966  0
N  N72  1  0.04854762  0.64012323  0.91931864  1  0  -0.011163  0  3.615584  0  0  0.077332  0  3.836143  0  0  0.063907  0  3.861706  0  0  -0.229211  0.086194  0  3.818699  0
N  N73  1  0.54854831  0.85987395  0.58068040  1  0  -0.011334  0  3.616111  0  0  0.077129  0  3.836597  0  0  0.063705  0  3.862167  0  0  -0.229221  0.085998  0  3.81914  0
N  N74  1  0.95146611  0.35988353  0.08068773  1  0  -0.011035  0  3.615565  0  0  0.077393  0  3.836084  0  0  0.063969  0  3.861653  0  0  -0.229114  0.086252  0  3.818654  0
N  N75  1  0.45145252  0.14011814  0.41931306  1  0  -0.011252  0  3.615644  0  0  0.077199  0  3.836182  0  0  0.063775  0  3.861727  0  0  -0.229215  0.086055  0  3.818766  0
N  N76  1  0.26286426  0.50824880  0.84720195  1  0  -0.007677  0  3.598584  0  0  0.07849  0  3.823741  0  0  0.065455  0  3.848837  0  0  -0.226434  0.087046  0  3.806796  0
N  N77  1  0.76285400  0.99174640  0.65279316  1  0  -0.007699  0  3.598415  0  0  0.078432  0  3.823688  0  0  0.065397  0  3.848791  0  0  -0.226439  0.086982  0  3.806743  0
N  N78  1  0.73714464  0.49176282  0.15279803  1  0  -0.007778  0  3.598896  0  0  0.078383  0  3.824026  0  0  0.065351  0  3.849113  0  0  -0.226474  0.086932  0  3.807082  0
N  N79  1  0.23713716  0.00823065  0.34720628  1  0  -0.007769  0  3.598899  0  0  0.078368  0  3.824077  0  0  0.065347  0  3.849125  0  0  -0.226438  0.08692  0  3.807132  0
O  O80  1  0.75279876  0.95720787  0.95526515  1  0  -0.691836  0  2.095443  0  0  -0.603436  0  2.360431  0  0  -0.634753  0  2.345406  0  0  -0.331387  -0.581573  0  2.370293  0
O  O81  1  0.25279680  0.54280387  0.54473832  1  0  -0.691826  0  2.095165  0  0  -0.603504  0  2.360132  0  0  -0.634824  0  2.34509  0  0  -0.331408  -0.581651  0  2.370006  0
O  O82  1  0.24720207  0.04280701  0.04474091  1  0  -0.691647  0  2.095261  0  0  -0.603489  0  2.360364  0  0  -0.634809  0  2.345324  0  0  -0.331403  -0.581632  0  2.370231  0
O  O83  1  0.74719274  0.45721074  0.45525983  1  0  -0.691673  0  2.095735  0  0  -0.603392  0  2.360679  0  0  -0.634712  0  2.345651  0  0  -0.331348  -0.581527  0  2.370543  0
O  O84  1  0.70980356  0.77321688  0.86643049  1  0  -0.577193  0  1.891794  0  0  -0.536796  0  2.104386  0  0  -0.558515  0  2.096735  0  0  -0.31059  -0.521585  0  2.109179  0
O  O85  1  0.20981339  0.72677959  0.63357369  1  0  -0.577109  0  1.892068  0  0  -0.536791  0  2.10466  0  0  -0.558508  0  2.096983  0  0  -0.310582  -0.521579  0  2.109447  0
O  O86  1  0.29018760  0.22678474  0.13357436  1  0  -0.577178  0  1.892022  0  0  -0.536832  0  2.104561  0  0  -0.558557  0  2.096894  0  0  -0.310636  -0.521625  0  2.109349  0
O  O87  1  0.79015519  0.27322702  0.36642846  1  0  -0.577152  0  1.892454  0  0  -0.536799  0  2.10495  0  0  -0.558514  0  2.097297  0  0  -0.310562  -0.521588  0  2.109736  0
O  O88  1  0.50644907  0.39868760  0.67212101  1  0  -0.648037  0  1.97859  0  0  -0.595218  0  2.200809  0  0  -0.619732  0  2.189576  0  0  -0.32154  -0.578001  0  2.207933  0
O  O89  1  0.00651776  0.10129184  0.82786260  1  0  -0.647872  0  1.978057  0  0  -0.594994  0  2.200379  0  0  -0.619504  0  2.189138  0  0  -0.32143  -0.577782  0  2.207515  0
O  O90  1  0.49351144  0.60132084  0.32787500  1  0  -0.647734  0  1.978218  0  0  -0.59495  0  2.200431  0  0  -0.61947  0  2.189217  0  0  -0.321437  -0.577732  0  2.207555  0
O  O91  1  0.99351855  0.89868882  0.17212349  1  0  -0.647736  0  1.978394  0  0  -0.594923  0  2.200627  0  0  -0.619436  0  2.189393  0  0  -0.321418  -0.577707  0  2.207749  0
O  O92  1  0.16701786  0.46426332  0.70709442  1  0  -0.619444  0  2.050658  0  0  -0.55079  0  2.312206  0  0  -0.579391  0  2.296757  0  0  -0.31858  -0.530864  0  2.322192  0
O  O93  1  0.66704440  0.03574969  0.79291536  1  0  -0.619493  0  2.050662  0  0  -0.550749  0  2.312256  0  0  -0.579358  0  2.296828  0  0  -0.318578  -0.530835  0  2.322266  0
O  O94  1  0.83297007  0.53577100  0.29291553  1  0  -0.619369  0  2.0508  0  0  -0.550716  0  2.31231  0  0  -0.579325  0  2.296892  0  0  -0.318607  -0.530807  0  2.322323  0
O  O95  1  0.33296610  0.96425179  0.20708527  1  0  -0.619392  0  2.050762  0  0  -0.550753  0  2.312305  0  0  -0.579352  0  2.296862  0  0  -0.318631  -0.530835  0  2.322307  0
O  O96  1  0.27726605  0.97847685  0.90137312  1  0  -0.815246  0  1.9099  0  0  -0.742631  0  2.11779  0  0  -0.766843  0  2.08201  0  0  -0.567281  -0.725749  0  2.142859  0
O  O97  1  0.77724775  0.52152883  0.59863084  1  0  -0.815219  0  1.909922  0  0  -0.742589  0  2.117813  0  0  -0.766807  0  2.082026  0  0  -0.567255  -0.725709  0  2.142882  0
O  O98  1  0.72274607  0.02152674  0.09862980  1  0  -0.815208  0  1.909915  0  0  -0.742584  0  2.117835  0  0  -0.766802  0  2.082051  0  0  -0.567265  -0.725704  0  2.142902  0
O  O99  1  0.22273857  0.47847981  0.40137097  1  0  -0.815287  0  1.90991  0  0  -0.742645  0  2.117786  0  0  -0.766855  0  2.082007  0  0  -0.56729  -0.725766  0  2.142856  0
