# generated using pymatgen
data_Sm2Cd3H58C30N6O35
_symmetry_space_group_name_H-M   'P 1'
_cell_length_a   10.62774160
_cell_length_b   10.63702119
_cell_length_c   14.84600000
_cell_angle_alpha   70.74883824
_cell_angle_beta   70.73136573
_cell_angle_gamma   85.00179899
_symmetry_Int_Tables_number   1
_chemical_formula_structural   Sm2Cd3H58C30N6O35
_chemical_formula_sum   'Sm2 Cd3 H58 C30 N6 O35'
_cell_volume   1495.25547655
_cell_formula_units_Z   1
loop_
 _symmetry_equiv_pos_site_id
 _symmetry_equiv_pos_as_xyz
  1  'x, y, z'
loop_
 _atom_site_type_symbol
 _atom_site_label
 _atom_site_symmetry_multiplicity
 _atom_site_fract_x
 _atom_site_fract_y
 _atom_site_fract_z
 _atom_site_occupancy
 _atom_site_hle17_bader_spin_density
 _atom_site_hle17_ddec_charge
 _atom_site_hle17_ddec_spin_density
 _atom_site_hle17_ddec_sum_bond_order
 _atom_site_hle17_magmom
 _atom_site_hse06_10hf_bader_spin_density
 _atom_site_hse06_10hf_ddec_charge
 _atom_site_hse06_10hf_ddec_spin_density
 _atom_site_hse06_10hf_ddec_sum_bond_order
 _atom_site_hse06_10hf_magmom
 _atom_site_hse06_bader_spin_density
 _atom_site_hse06_ddec_charge
 _atom_site_hse06_ddec_spin_density
 _atom_site_hse06_ddec_sum_bond_order
 _atom_site_hse06_magmom
 _atom_site_pbe_bader_charge
 _atom_site_pbe_bader_spin_density
 _atom_site_pbe_cm5_charge
 _atom_site_pbe_ddec_charge
 _atom_site_pbe_ddec_spin_density
 _atom_site_pbe_ddec_sum_bond_order
 _atom_site_pbe_magmom
Sm  Sm0  1  0.28724883  0.26953601  0.31732273  1  0  2.286483  0  1.502128  0  0  2.118016  0  1.963525  0  0  2.233051  0  1.788042  0  2.221323  0  1.446606  2.085802  0  1.992612  0
Sm  Sm1  1  0.73193843  0.71402330  0.68410644  1  0  2.287414  0  1.496222  0  0  2.117854  0  1.958473  0  0  2.233833  0  1.7817  0  2.222562  0  1.443881  2.085553  0  1.987531  0
Cd  Cd2  1  0.60843208  0.94795408  0.37608389  1  0  1.152423  0  1.686374  0  0  0.97604  0  2.101424  0  0  1.030016  0  2.052577  0  1.277382  0  0.793117  0.93767  0  2.135483  0
Cd  Cd3  1  0.05129360  0.39240174  0.62493687  1  0  1.153863  0  1.680215  0  0  0.976932  0  2.094791  0  0  1.031027  0  2.045969  0  1.277418  0  0.792973  0.938513  0  2.128765  0
Cd  Cd4  1  0.38325478  0.61491034  0.99929915  1  0  1.165423  0  1.67691  0  0  0.983108  0  2.097039  0  0  1.037693  0  2.047262  0  1.290068  0  0.788093  0.944762  0  2.130887  0
H  H5  1  0.28033199  0.93547107  0.96974880  1  0  0.073899  0  0.928278  0  0  0.092166  0  0.987954  0  0  0.092994  0  0.987422  0  0.055445  0  0.11088  0.091418  0  0.988506  0
H  H6  1  0.06491107  0.72126388  0.02883216  1  0  0.07397  0  0.93237  0  0  0.092  0  0.992844  0  0  0.092927  0  0.992204  0  0.07894  0  0.110822  0.091149  0  0.993519  0
H  H7  1  0.12590836  0.92221311  0.06587645  1  0  0.056594  0  0.926538  0  0  0.074052  0  0.991447  0  0  0.074728  0  0.991136  0  0.024753  0  0.097416  0.073438  0  0.991829  0
H  H8  1  0.07844067  0.87577340  0.93281538  1  0  0.056975  0  0.926869  0  0  0.07472  0  0.991736  0  0  0.075438  0  0.991358  0  0.018037  0  0.097506  0.074054  0  0.992181  0
H  H9  1  0.07792160  0.66672396  0.17308711  1  0  0.099264  0  0.924557  0  0  0.113595  0  0.986407  0  0  0.115644  0  0.984944  0  0.060984  0  0.116503  0.112118  0  0.987352  0
H  H10  1  0.33008590  0.92458580  0.82440814  1  0  0.096555  0  0.926638  0  0  0.111668  0  0.98768  0  0  0.113541  0  0.986387  0  0.052148  0  0.115741  0.110343  0  0.988461  0
H  H11  1  0.13764603  0.73467325  0.24627798  1  0  0.099549  0  0.90357  0  0  0.114814  0  0.961001  0  0  0.117413  0  0.958655  0  0.069527  0  0.112103  0.112561  0  0.963327  0
H  H12  1  0.26489197  0.86145759  0.75159744  1  0  0.101621  0  0.904177  0  0  0.117012  0  0.961027  0  0  0.119739  0  0.958537  0  0.099368  0  0.113148  0.114686  0  0.963446  0
H  H13  1  0.37862672  0.76465158  0.18553916  1  0  0.117317  0  0.950969  0  0  0.130212  0  1.013303  0  0  0.132474  0  1.012616  0  0.141636  0  0.11566  0.128626  0  1.013716  0
H  H14  1  0.23681088  0.61825521  0.81564274  1  0  0.11838  0  0.94975  0  0  0.130389  0  1.012317  0  0  0.132676  0  1.011652  0  0.132634  0  0.115932  0.128803  0  1.012662  0
H  H15  1  0.33308447  0.92639868  0.12573143  1  0  0.102494  0  0.903118  0  0  0.117877  0  0.959178  0  0  0.120491  0  0.95696  0  0.056882  0  0.110031  0.115996  0  0.960841  0
H  H16  1  0.07506239  0.66944727  0.87021068  1  0  0.101822  0  0.903519  0  0  0.117391  0  0.95902  0  0  0.120057  0  0.956799  0  0.061769  0  0.109387  0.115497  0  0.960634  0
H  H17  1  0.76000330  0.25917568  0.20635705  1  0  0.114399  0  0.90764  0  0  0.132621  0  0.959249  0  0  0.134639  0  0.958001  0  0.089627  0  0.123246  0.131308  0  0.959833  0
H  H18  1  0.73982228  0.24266250  0.79438894  1  0  0.116293  0  0.908251  0  0  0.134707  0  0.95969  0  0  0.136756  0  0.958489  0  0.091416  0  0.123978  0.133353  0  0.960301  0
H  H19  1  0.91571873  0.20480709  0.14466727  1  0  0.109928  0  0.908274  0  0  0.121934  0  0.970993  0  0  0.125151  0  0.968028  0  0.083843  0  0.112229  0.119613  0  0.973175  0
H  H20  1  0.79346218  0.08664191  0.85608114  1  0  0.109236  0  0.909151  0  0  0.121529  0  0.97201  0  0  0.124561  0  0.969298  0  0.084696  0  0.111803  0.119336  0  0.974002  0
H  H21  1  0.62289983  0.04288666  0.12274688  1  0  0.140525  0  0.936921  0  0  0.151426  0  0.998434  0  0  0.1551  0  0.995667  0  0.169003  0  0.124197  0.148839  0  1.000338  0
H  H22  1  0.95732793  0.37546821  0.88000139  1  0  0.139729  0  0.940934  0  0  0.15061  0  1.003245  0  0  0.154318  0  1.000441  0  0.163591  0  0.123289  0.147987  0  1.005202  0
H  H23  1  0.70642968  0.19964834  0.07194373  1  0  0.08866  0  0.934222  0  0  0.102517  0  0.9952  0  0  0.104849  0  0.993116  0  0.062786  0  0.106412  0.100818  0  0.996686  0
H  H24  1  0.79930885  0.29429383  0.92900332  1  0  0.08834  0  0.935091  0  0  0.102443  0  0.996503  0  0  0.104827  0  0.994325  0  0.050712  0  0.106378  0.100673  0  0.998142  0
H  H25  1  0.92417498  0.95735816  0.19345539  1  0  0.068197  0  0.937326  0  0  0.084563  0  1.000769  0  0  0.085182  0  1.000527  0  0.056081  0  0.108287  0.083919  0  1.001285  0
H  H26  1  0.04190634  0.07729062  0.80613773  1  0  0.068034  0  0.938739  0  0  0.08486  0  1.001243  0  0  0.085506  0  1.000938  0  0.024449  0  0.107859  0.084179  0  1.001823  0
H  H27  1  0.88087192  0.99926268  0.08183306  1  0  0.059233  0  0.923886  0  0  0.076866  0  0.987487  0  0  0.077662  0  0.986756  0  0.00218  0  0.099621  0.076126  0  0.988222  0
H  H28  1  0.00020062  0.11901185  0.91838316  1  0  0.058773  0  0.92436  0  0  0.075989  0  0.988288  0  0  0.076669  0  0.987671  0  0.049318  0  0.09921  0.075335  0  0.988944  0
H  H29  1  0.68598605  0.84054667  0.17036584  1  0  0.096337  0  0.937072  0  0  0.111887  0  0.997576  0  0  0.112973  0  0.99774  0  0.105224  0  0.114682  0.110989  0  0.997565  0
H  H30  1  0.15919323  0.31422062  0.83041534  1  0  0.097068  0  0.936618  0  0  0.113102  0  0.996374  0  0  0.114268  0  0.996414  0  0.103526  0  0.115362  0.112177  0  0.996388  0
H  H31  1  0.84064143  0.76253787  0.16568987  1  0  0.061378  0  0.912122  0  0  0.081092  0  0.97002  0  0  0.08174  0  0.969673  0  0.037706  0  0.100015  0.08045  0  0.970344  0
H  H32  1  0.23714027  0.15971010  0.83466686  1  0  0.060788  0  0.912456  0  0  0.08058  0  0.970502  0  0  0.081186  0  0.9702  0  0.029145  0  0.099833  0.079945  0  0.970836  0
H  H33  1  0.91022053  0.79420159  0.31641385  1  0  0.106263  0  0.933709  0  0  0.119641  0  0.996655  0  0  0.121886  0  0.99499  0  0.081926  0  0.118323  0.117899  0  0.998153  0
H  H34  1  0.20549276  0.09040414  0.68438509  1  0  0.10712  0  0.933504  0  0  0.119922  0  0.99662  0  0  0.122224  0  0.994957  0  0.096097  0  0.118601  0.11818  0  0.998132  0
H  H35  1  0.85666435  0.62572290  0.35628487  1  0  0.104167  0  0.906473  0  0  0.119212  0  0.964312  0  0  0.121777  0  0.962232  0  0.084038  0  0.113475  0.11739  0  0.965609  0
H  H36  1  0.37408174  0.14399379  0.64439928  1  0  0.103781  0  0.907392  0  0  0.118285  0  0.965437  0  0  0.120897  0  0.963356  0  0.085684  0  0.113711  0.116497  0  0.966708  0
H  H37  1  0.60298575  0.61084829  0.42226770  1  0  0.106337  0  0.915901  0  0  0.124608  0  0.969336  0  0  0.126479  0  0.968376  0  0.040054  0  0.118036  0.123237  0  0.970095  0
H  H38  1  0.38936623  0.39705946  0.57836609  1  0  0.104926  0  0.916501  0  0  0.123367  0  0.970296  0  0  0.125244  0  0.969376  0  0.041862  0  0.117449  0.122012  0  0.971023  0
H  H39  1  0.64417296  0.60027180  0.29857675  1  0  0.092766  0  0.919203  0  0  0.106915  0  0.979147  0  0  0.109673  0  0.976548  0  0.045107  0  0.107186  0.105117  0  0.980578  0
H  H40  1  0.39949850  0.35637316  0.70215949  1  0  0.093979  0  0.918531  0  0  0.107987  0  0.97848  0  0  0.110762  0  0.975969  0  0.057664  0  0.108306  0.106193  0  0.97988  0
H  H41  1  0.61102441  0.47206305  0.94274764  1  0  0.425199  0  0.876565  0  0  0.393554  0  0.940815  0  0  0.404587  0  0.924748  0  0.638005  0  0.292985  0.385774  0  0.952154  0
H  H42  1  0.51109395  0.36951159  0.04616071  1  0  0.431421  0  0.870422  0  0  0.399052  0  0.934732  0  0  0.410469  0  0.918187  0  0.654716  0  0.291895  0.391016  0  0.946356  0
H  H43  1  0.44182775  0.49610269  0.32825919  1  0  0.436083  0  0.865931  0  0  0.402461  0  0.934223  0  0  0.414359  0  0.91719  0  0.653476  0  0.289017  0.39372  0  0.946805  0
H  H44  1  0.50483194  0.55944207  0.67269990  1  0  0.436821  0  0.864073  0  0  0.402822  0  0.932812  0  0  0.414705  0  0.915803  0  0.65971  0  0.290067  0.394117  0  0.94534  0
H  H45  1  0.51360882  0.35866417  0.36571435  1  0  0.426879  0  0.824008  0  0  0.413889  0  0.87171  0  0  0.421545  0  0.862349  0  0.596178  0  0.324999  0.40851  0  0.877895  0
H  H46  1  0.64233371  0.48703429  0.63666574  1  0  0.426886  0  0.82504  0  0  0.413534  0  0.873215  0  0  0.421212  0  0.863053  0  0.596382  0  0.325327  0.408158  0  0.879385  0
H  H47  1  0.18187423  0.34997726  0.13602908  1  0  0.445486  0  0.852794  0  0  0.413088  0  0.917113  0  0  0.425618  0  0.898945  0  0.654493  0  0.290766  0.404345  0  0.929839  0
H  H48  1  0.65461586  0.81488739  0.86647522  1  0  0.447131  0  0.850423  0  0  0.414191  0  0.915903  0  0  0.426714  0  0.897646  0  0.663237  0  0.291097  0.405433  0  0.928732  0
H  H49  1  0.06911391  0.26832676  0.23577473  1  0  0.422711  0  0.886074  0  0  0.392987  0  0.947885  0  0  0.403249  0  0.933157  0  0.626547  0  0.292144  0.385654  0  0.958583  0
H  H50  1  0.72887006  0.93338626  0.76632568  1  0  0.424157  0  0.883297  0  0  0.394793  0  0.944325  0  0  0.405164  0  0.929416  0  0.649389  0  0.292652  0.387418  0  0.955088  0
H  H51  1  0.99363213  0.19194458  0.40053067  1  0  0.433292  0  0.868405  0  0  0.401398  0  0.932341  0  0  0.413474  0  0.914921  0  0.636178  0  0.294258  0.392807  0  0.944871  0
H  H52  1  0.80795531  0.00735214  0.60013881  1  0  0.43454  0  0.865816  0  0  0.402973  0  0.929331  0  0  0.415058  0  0.911868  0  0.671717  0  0.294873  0.394392  0  0.941854  0
H  H53  1  0.02743616  0.17569835  0.50275097  1  0  0.443543  0  0.848617  0  0  0.41146  0  0.912965  0  0  0.42327  0  0.89579  0  0.652057  0  0.296357  0.40323  0  0.924994  0
H  H54  1  0.82508696  0.97279059  0.49803986  1  0  0.444483  0  0.847192  0  0  0.412164  0  0.911942  0  0  0.423999  0  0.894725  0  0.658636  0  0.29695  0.403898  0  0.924038  0
H  H55  1  0.17265667  0.00507508  0.39238122  1  0  0.430397  0  0.835914  0  0  0.411109  0  0.88686  0  0  0.42075  0  0.872655  0  0.629178  0  0.31591  0.404101  0  0.897404  0
H  H56  1  0.99695805  0.82869021  0.60677046  1  0  0.43162  0  0.834269  0  0  0.412102  0  0.885446  0  0  0.42175  0  0.871235  0  0.61865  0  0.316212  0.405084  0  0.896012  0
H  H57  1  0.31584717  0.95181392  0.34363517  1  0  0.447893  0  0.840243  0  0  0.416033  0  0.903749  0  0  0.42795  0  0.886265  0  0.662629  0  0.296997  0.407679  0  0.9161  0
H  H58  1  0.04992918  0.68550923  0.65586703  1  0  0.447133  0  0.841531  0  0  0.415189  0  0.905185  0  0  0.42718  0  0.887591  0  0.663998  0  0.296353  0.406819  0  0.91755  0
H  H59  1  0.44042056  0.06075951  0.50604987  1  0  0.414564  0  0.902434  0  0  0.383651  0  0.966427  0  0  0.394931  0  0.95008  0  0.64882  0  0.284317  0.375781  0  0.977825  0
H  H60  1  0.94033067  0.56077185  0.49378475  1  0  0.415471  0  0.901358  0  0  0.384398  0  0.965445  0  0  0.395737  0  0.949038  0  0.647977  0  0.284588  0.37648  0  0.976895  0
H  H61  1  0.52341951  0.96072793  0.57288037  1  0  0.43897  0  0.861587  0  0  0.408338  0  0.923909  0  0  0.419816  0  0.907186  0  0.660466  0  0.292911  0.400171  0  0.935794  0
H  H62  1  0.04162805  0.47808641  0.42710318  1  0  0.440483  0  0.858222  0  0  0.409977  0  0.92038  0  0  0.421393  0  0.903704  0  0.662663  0  0.294263  0.401882  0  0.9322  0
C  C63  1  0.20140340  0.86378147  0.02579740  1  0  -0.034287  0  3.670368  0  0  -0.097077  0  3.943231  0  0  -0.0942  0  3.956455  0  0.290861  0  -0.069221  -0.098864  0  3.934077  0
C  C64  1  0.13674312  0.79993209  0.97271442  1  0  -0.035509  0  3.67266  0  0  -0.099231  0  3.946822  0  0  -0.096421  0  3.95994  0  0.252598  0  -0.0699  -0.100975  0  3.937775  0
C  C65  1  0.16845942  0.68572239  0.18747833  1  0  -0.158031  0  3.65922  0  0  -0.215845  0  3.916702  0  0  -0.21653  0  3.923597  0  0.27107  0  -0.063843  -0.214992  0  3.911289  0
C  C66  1  0.31359266  0.83290268  0.81050464  1  0  -0.158977  0  3.657571  0  0  -0.216657  0  3.915892  0  0  -0.217328  0  3.922649  0  0.259216  0  -0.064285  -0.215865  0  3.910654  0
C  C67  1  0.22065342  0.54871318  0.23119974  1  0  0.694084  0  3.859028  0  0  0.644258  0  4.159493  0  0  0.676937  0  4.158767  0  1.583232  0  0.209043  0.621348  0  4.16404  0
C  C68  1  0.45230357  0.78313503  0.76727780  1  0  0.689475  0  3.867014  0  0  0.639598  0  4.167094  0  0  0.672173  0  4.166758  0  1.595712  0  0.208815  0.616737  0  4.171428  0
C  C69  1  0.36580580  0.82972116  0.11437098  1  0  -0.190222  0  3.640456  0  0  -0.247045  0  3.895572  0  0  -0.248748  0  3.903132  0  0.195352  0  -0.079282  -0.245758  0  3.890207  0
C  C70  1  0.16975385  0.63494670  0.88481480  1  0  -0.191501  0  3.639443  0  0  -0.24611  0  3.893188  0  0  -0.247942  0  3.900665  0  0.224888  0  -0.078805  -0.24475  0  3.887897  0
C  C71  1  0.50505039  0.84952045  0.03462845  1  0  0.678562  0  3.895509  0  0  0.631753  0  4.202552  0  0  0.664587  0  4.195714  0  1.593722  0  0.196534  0.609377  0  4.206517  0
C  C72  1  0.14391859  0.49846840  0.96797355  1  0  0.678571  0  3.895998  0  0  0.632349  0  4.20082  0  0  0.665246  0  4.193876  0  1.580656  0  0.19739  0.609942  0  4.20483  0
C  C73  1  0.85609069  0.13574019  0.30737237  1  0  0.687137  0  3.859062  0  0  0.632563  0  4.169779  0  0  0.665608  0  4.162752  0  1.587957  0  0.213425  0.61023  0  4.173625  0
C  C74  1  0.86279213  0.14589832  0.69340775  1  0  0.687859  0  3.854707  0  0  0.633279  0  4.166137  0  0  0.666379  0  4.15903  0  1.600032  0  0.213194  0.610916  0  4.170038  0
C  C75  1  0.82294218  0.17123586  0.20890060  1  0  -0.185802  0  3.650717  0  0  -0.243608  0  3.90971  0  0  -0.245123  0  3.917169  0  0.244514  0  -0.071925  -0.24258  0  3.904283  0
C  C76  1  0.82746395  0.17923546  0.79182368  1  0  -0.18556  0  3.650006  0  0  -0.244695  0  3.910823  0  0  -0.246227  0  3.918404  0  0.22304  0  -0.07161  -0.243648  0  3.905295  0
C  C77  1  0.53716866  0.17691557  0.20399662  1  0  0.689323  0  3.859284  0  0  0.638293  0  4.15933  0  0  0.67068  0  4.160108  0  1.530914  0  0.210869  0.615606  0  4.163297  0
C  C78  1  0.82492657  0.46555759  0.79835877  1  0  0.689329  0  3.858704  0  0  0.639049  0  4.158039  0  0  0.671472  0  4.158866  0  1.558166  0  0.209997  0.616362  0  4.162082  0
C  C79  1  0.65887227  0.12054085  0.14342630  1  0  -0.181811  0  3.653931  0  0  -0.234563  0  3.902957  0  0  -0.236561  0  3.910004  0  0.214431  0  -0.067827  -0.232892  0  3.897577  0
C  C80  1  0.87951649  0.34179837  0.85815978  1  0  -0.182305  0  3.653952  0  0  -0.2361  0  3.90333  0  0  -0.238117  0  3.910334  0  0.234188  0  -0.069224  -0.234425  0  3.898025  0
C  C81  1  0.83949566  0.96588768  0.16501522  1  0  -0.022809  0  3.665056  0  0  -0.085785  0  3.937408  0  0  -0.082725  0  3.950452  0  0.292474  0  -0.066129  -0.087742  0  3.928371  0
C  C82  1  0.03350795  0.16126699  0.83524444  1  0  -0.024041  0  3.667127  0  0  -0.086432  0  3.938087  0  0  -0.083286  0  3.9511  0  0.290485  0  -0.066002  -0.088422  0  3.928988  0
C  C83  1  0.77025224  0.83011462  0.19960430  1  0  -0.036103  0  3.640201  0  0  -0.095823  0  3.905007  0  0  -0.093306  0  3.918018  0  0.281729  0  -0.067863  -0.097299  0  3.895911  0
C  C84  1  0.16949945  0.23024524  0.80092910  1  0  -0.035285  0  3.638722  0  0  -0.095562  0  3.903765  0  0  -0.09305  0  3.916742  0  0.291561  0  -0.067512  -0.096999  0  3.894654  0
C  C85  1  0.82273335  0.72675632  0.35729680  1  0  -0.175264  0  3.667135  0  0  -0.234197  0  3.924362  0  0  -0.235238  0  3.931726  0  0.223913  0  -0.069712  -0.23312  0  3.918707  0
C  C86  1  0.27294904  0.17783496  0.64336939  1  0  -0.175663  0  3.670026  0  0  -0.232684  0  3.925445  0  0  -0.233865  0  3.932803  0  0.227966  0  -0.069598  -0.23168  0  3.91994  0
C  C87  1  0.61530312  0.66927495  0.34324247  1  0  -0.184004  0  3.671344  0  0  -0.242347  0  3.929051  0  0  -0.243439  0  3.936774  0  0.305735  0  -0.07329  -0.241227  0  3.923125  0
C  C88  1  0.33069346  0.38515419  0.65730158  1  0  -0.181578  0  3.669799  0  0  -0.240246  0  3.928084  0  0  -0.241519  0  3.936043  0  0.281817  0  -0.072412  -0.239104  0  3.922126  0
C  C89  1  0.47595367  0.72241536  0.34217931  1  0  0.683693  0  3.867338  0  0  0.631968  0  4.179481  0  0  0.664744  0  4.173439  0  1.591571  0  0.209465  0.609549  0  4.182655  0
C  C90  1  0.27791847  0.52466557  0.65784275  1  0  0.683068  0  3.867192  0  0  0.631459  0  4.179258  0  0  0.664249  0  4.173265  0  1.600936  0  0.209678  0.609058  0  4.182404  0
C  C91  1  0.77923384  0.72907223  0.46553580  1  0  0.672711  0  3.887357  0  0  0.624004  0  4.188353  0  0  0.656329  0  4.187526  0  1.585852  0  0.204905  0.601443  0  4.192717  0
C  C92  1  0.27077478  0.22084613  0.53520285  1  0  0.672136  0  3.88832  0  0  0.622877  0  4.189278  0  0  0.655175  0  4.188612  0  1.586624  0  0.204726  0.600364  0  4.193565  0
N  N93  1  0.26398460  0.76716969  0.09403663  1  0  -0.191557  0  3.325337  0  0  -0.100756  0  3.56708  0  0  -0.117277  0  3.589522  0  -1.015622  0  -0.343068  -0.089247  0  3.550918  0
N  N94  1  0.23291920  0.73724416  0.90431099  1  0  -0.188683  0  3.322282  0  0  -0.100179  0  3.566604  0  0  -0.116411  0  3.588734  0  -1.03763  0  -0.343497  -0.088903  0  3.550751  0
N  N95  1  0.71889124  0.77221589  0.31006759  1  0  -0.187323  0  3.353608  0  0  -0.095013  0  3.594075  0  0  -0.111855  0  3.617184  0  -1.054052  0  -0.347442  -0.083471  0  3.577571  0
N  N96  1  0.22748113  0.28176302  0.69045430  1  0  -0.18792  0  3.351823  0  0  -0.096209  0  3.593049  0  0  -0.112941  0  3.616128  0  -1.059307  0  -0.348067  -0.084676  0  3.57662  0
N  N97  1  0.75084272  0.06553875  0.20065163  1  0  -0.189287  0  3.328341  0  0  -0.100571  0  3.570878  0  0  -0.116903  0  3.593868  0  -1.018567  0  -0.343397  -0.08895  0  3.55425  0
N  N98  1  0.93376036  0.25053559  0.80015291  1  0  -0.19007  0  3.33222  0  0  -0.100204  0  3.573431  0  0  -0.116709  0  3.596736  0  -1.037607  0  -0.343519  -0.088454  0  3.556569  0
O  O99  1  0.32740776  0.50729277  0.18070906  1  0  -0.672519  0  2.036252  0  0  -0.605745  0  2.280682  0  0  -0.639513  0  2.272136  0  -1.170796  0  -0.337831  -0.586512  0  2.286347  0
O  O100  1  0.49439155  0.67749269  0.81815436  1  0  -0.666438  0  2.052019  0  0  -0.596844  0  2.294586  0  0  -0.631473  0  2.287403  0  -1.176401  0  -0.338853  -0.577173  0  2.29937  0
O  O101  1  0.15177996  0.47467779  0.31778063  1  0  -0.707703  0  2.043003  0  0  -0.65029  0  2.27966  0  0  -0.682944  0  2.267714  0  -1.206665  0  -0.365159  -0.632668  0  2.287073  0
O  O102  1  0.52683395  0.85247286  0.68110142  1  0  -0.70536  0  2.048288  0  0  -0.648128  0  2.284719  0  0  -0.680733  0  2.272917  0  -1.208379  0  -0.361411  -0.63048  0  2.292085  0
O  O103  1  0.52835495  0.78594898  0.97032772  1  0  -0.678784  0  2.045979  0  0  -0.601197  0  2.281662  0  0  -0.630881  0  2.268319  0  -1.188408  0  -0.329839  -0.580223  0  2.289826  0
O  O104  1  0.19689417  0.48079179  0.03786456  1  0  -0.673845  0  2.04542  0  0  -0.596089  0  2.277667  0  0  -0.626109  0  2.265933  0  -1.174514  0  -0.328456  -0.574899  0  2.284709  0
O  O105  1  0.58716723  0.92291237  0.03877371  1  0  -0.624239  0  1.873152  0  0  -0.587447  0  2.08915  0  0  -0.609962  0  2.0793  0  -1.188834  0  -0.346113  -0.571629  0  2.095333  0
O  O106  1  0.07564625  0.41399697  0.96141301  1  0  -0.625057  0  1.877341  0  0  -0.588658  0  2.093807  0  0  -0.611238  0  2.083842  0  -1.192222  0  -0.346491  -0.572798  0  2.100047  0
O  O107  1  0.82258651  0.02145877  0.37260700  1  0  -0.643544  0  2.025903  0  0  -0.57274  0  2.256472  0  0  -0.600942  0  2.246753  0  -1.189356  0  -0.311921  -0.552938  0  2.262281  0
O  O108  1  0.97718921  0.17936993  0.62806121  1  0  -0.644945  0  2.025724  0  0  -0.573149  0  2.255994  0  0  -0.601325  0  2.246082  0  -1.190507  0  -0.312286  -0.553371  0  2.261881  0
O  O109  1  0.91458666  0.22745519  0.31667795  1  0  -0.629554  0  1.981657  0  0  -0.570523  0  2.192309  0  0  -0.594572  0  2.178918  0  -1.192659  0  -0.31652  -0.553465  0  2.200566  0
O  O110  1  0.77105220  0.08731427  0.68417131  1  0  -0.629673  0  1.976903  0  0  -0.571313  0  2.188101  0  0  -0.595471  0  2.174741  0  -1.193896  0  -0.31654  -0.554216  0  2.196328  0
O  O111  1  0.86133652  0.68730319  0.51475207  1  0  -0.702283  0  2.057523  0  0  -0.641671  0  2.289327  0  0  -0.674284  0  2.277634  0  -1.196182  0  -0.364597  -0.624064  0  2.296674  0
O  O112  1  0.31242273  0.13839577  0.48632702  1  0  -0.701608  0  2.05733  0  0  -0.640926  0  2.289232  0  0  -0.673384  0  2.277622  0  -1.207722  0  -0.366326  -0.623369  0  2.29657  0
O  O113  1  0.66666385  0.77170091  0.50455596  1  0  -0.661402  0  2.067983  0  0  -0.60221  0  2.316487  0  0  -0.634023  0  2.309282  0  -1.173636  0  -0.319938  -0.583773  0  2.322187  0
O  O114  1  0.22856224  0.33340830  0.49581680  1  0  -0.663198  0  2.06602  0  0  -0.604449  0  2.315097  0  0  -0.636336  0  2.30786  0  -1.177024  0  -0.321534  -0.585991  0  2.320671  0
O  O115  1  0.39706536  0.64415157  0.33823770  1  0  -0.600716  0  1.929492  0  0  -0.550314  0  2.144226  0  0  -0.574216  0  2.134244  0  -1.180104  0  -0.311627  -0.532747  0  2.150495  0
O  O116  1  0.35647679  0.60350013  0.66146141  1  0  -0.601309  0  1.927394  0  0  -0.550899  0  2.142086  0  0  -0.574719  0  2.132029  0  -1.180634  0  -0.311833  -0.53338  0  2.148356  0
O  O117  1  0.44853540  0.83973386  0.34794438  1  0  -0.654773  0  2.002768  0  0  -0.582833  0  2.24116  0  0  -0.611711  0  2.228023  0  -1.171958  0  -0.31813  -0.562086  0  2.24966  0
O  O118  1  0.16058543  0.55225129  0.65185026  1  0  -0.654365  0  2.003118  0  0  -0.582168  0  2.241653  0  0  -0.611121  0  2.2285  0  -1.173263  0  -0.318047  -0.561398  0  2.250144  0
O  O119  1  0.50765155  0.14380952  0.29959190  1  0  -0.698992  0  2.082072  0  0  -0.631444  0  2.336999  0  0  -0.66676  0  2.329236  0  -1.153639  0  -0.35751  -0.611503  0  2.343096  0
O  O120  1  0.85592302  0.49469820  0.70280182  1  0  -0.704183  0  2.079316  0  0  -0.636508  0  2.333715  0  0  -0.672194  0  2.325974  0  -1.167591  0  -0.361722  -0.616368  0  2.339625  0
O  O121  1  0.46296802  0.25465243  0.15956903  1  0  -0.66488  0  2.007878  0  0  -0.602815  0  2.233247  0  0  -0.635399  0  2.222705  0  -1.182107  0  -0.346533  -0.585139  0  2.239737  0
O  O122  1  0.75090831  0.54116481  0.84351553  1  0  -0.665031  0  1.981304  0  0  -0.605268  0  2.205348  0  0  -0.637295  0  2.194496  0  -1.185165  0  -0.347209  -0.587985  0  2.212085  0
O  O123  1  0.51738319  0.44236163  0.98223765  1  0  -0.832025  0  1.850332  0  0  -0.766147  0  2.034551  0  0  -0.788442  0  1.998661  0  -1.25251  0  -0.5902  -0.750322  0  2.059213  0
O  O124  1  0.46642389  0.40562683  0.31878046  1  0  -0.90255  0  1.861058  0  0  -0.860297  0  2.047005  0  0  -0.885886  0  2.012933  0  -1.242888  0  -0.62971  -0.8479  0  2.066576  0
O  O125  1  0.59527140  0.53583971  0.68239097  1  0  -0.89971  0  1.861125  0  0  -0.856451  0  2.048175  0  0  -0.882161  0  2.013189  0  -1.246901  0  -0.629295  -0.844079  0  2.067787  0
O  O126  1  0.16741438  0.27888432  0.20361932  1  0  -0.938677  0  1.831616  0  0  -0.887498  0  2.019674  0  0  -0.916617  0  1.980881  0  -1.278573  0  -0.670192  -0.873315  0  2.042393  0
O  O127  1  0.72202378  0.83487593  0.79697564  1  0  -0.940328  0  1.836785  0  0  -0.888975  0  2.025518  0  0  -0.918313  0  1.986562  0  -1.308731  0  -0.670042  -0.874683  0  2.048174  0
O  O128  1  0.06650818  0.17433071  0.43216265  1  0  -0.934007  0  1.854045  0  0  -0.877702  0  2.046372  0  0  -0.906695  0  2.005823  0  -1.289266  0  -0.645721  -0.862909  0  2.070847  0
O  O129  1  0.82649660  0.93440127  0.56864760  1  0  -0.934699  0  1.85151  0  0  -0.878071  0  2.043521  0  0  -0.907209  0  2.002949  0  -1.327893  0  -0.646139  -0.863274  0  2.068053  0
O  O130  1  0.25454232  0.02791343  0.33513276  1  0  -0.8914  0  1.812919  0  0  -0.843848  0  1.982729  0  0  -0.869276  0  1.94458  0  -1.278744  0  -0.626782  -0.831427  0  2.005818  0
O  O131  1  0.97419372  0.74730666  0.66437588  1  0  -0.89257  0  1.814011  0  0  -0.844771  0  1.984371  0  0  -0.870393  0  1.946123  0  -1.269602  0  -0.626984  -0.832313  0  2.007497  0
O  O132  1  0.53182081  0.02831087  0.50594136  1  0  -0.838261  0  1.846563  0  0  -0.775036  0  2.033104  0  0  -0.798289  0  1.998273  0  -1.271489  0  -0.597874  -0.758367  0  2.056929  0
O  O133  1  0.97342750  0.46960968  0.49373441  1  0  -0.839192  0  1.845863  0  0  -0.77576  0  2.032297  0  0  -0.798977  0  1.997356  0  -1.271886  0  -0.59747  -0.75916  0  2.056146  0
