# generated using pymatgen
data_CdH15C19(NO3)2
_symmetry_space_group_name_H-M   'P 1'
_cell_length_a   7.80170922
_cell_length_b   9.83817350
_cell_length_c   12.37509223
_cell_angle_alpha   103.87597489
_cell_angle_beta   95.27247097
_cell_angle_gamma   108.15275152
_symmetry_Int_Tables_number   1
_chemical_formula_structural   CdH15C19(NO3)2
_chemical_formula_sum   'Cd2 H30 C38 N4 O12'
_cell_volume   861.82168383
_cell_formula_units_Z   2
loop_
 _symmetry_equiv_pos_site_id
 _symmetry_equiv_pos_as_xyz
  1  'x, y, z'
loop_
 _atom_site_type_symbol
 _atom_site_label
 _atom_site_symmetry_multiplicity
 _atom_site_fract_x
 _atom_site_fract_y
 _atom_site_fract_z
 _atom_site_occupancy
 _atom_site_hle17_bader_spin_density
 _atom_site_hle17_ddec_charge
 _atom_site_hle17_ddec_spin_density
 _atom_site_hle17_ddec_sum_bond_order
 _atom_site_hle17_magmom
 _atom_site_hse06_10hf_bader_spin_density
 _atom_site_hse06_10hf_ddec_charge
 _atom_site_hse06_10hf_ddec_spin_density
 _atom_site_hse06_10hf_ddec_sum_bond_order
 _atom_site_hse06_10hf_magmom
 _atom_site_hse06_bader_spin_density
 _atom_site_hse06_ddec_charge
 _atom_site_hse06_ddec_spin_density
 _atom_site_hse06_ddec_sum_bond_order
 _atom_site_hse06_magmom
 _atom_site_pbe_bader_spin_density
 _atom_site_pbe_cm5_charge
 _atom_site_pbe_ddec_charge
 _atom_site_pbe_ddec_spin_density
 _atom_site_pbe_ddec_sum_bond_order
 _atom_site_pbe_magmom
Cd  Cd0  1  0.65574101  0.06293135  0.90110762  1  0  1.242943  0  1.655046  0  0  1.063317  0  2.11082  0  0  1.119432  0  2.052134  0  0  0.786682  1.023076  0  2.15141  0
Cd  Cd1  1  0.34425769  0.93706726  0.09889087  1  0  1.242998  0  1.654977  0  0  1.063371  0  2.110751  0  0  1.119485  0  2.052065  0  0  0.786701  1.023127  0  2.151329  0
H  H2  1  0.13911792  0.52833769  0.57743656  1  0  0.090993  0  0.974755  0  0  0.098886  0  1.04217  0  0  0.102028  0  1.040389  0  0  0.098596  0.096719  0  1.043304  0
H  H3  1  0.86087859  0.47165869  0.42256219  1  0  0.091037  0  0.974712  0  0  0.098901  0  1.042166  0  0  0.102044  0  1.040385  0  0  0.098604  0.096733  0  1.043299  0
H  H4  1  0.13761980  0.39860018  0.37721872  1  0  0.09569  0  0.965343  0  0  0.105859  0  1.028326  0  0  0.10892  0  1.027187  0  0  0.099202  0.103785  0  1.028843  0
H  H5  1  0.86237545  0.60139951  0.62277737  1  0  0.095711  0  0.965394  0  0  0.105895  0  1.028355  0  0  0.10895  0  1.027222  0  0  0.099214  0.103821  0  1.028874  0
H  H6  1  0.57393866  0.78618224  0.36084456  1  0  0.101558  0  0.947907  0  0  0.111531  0  1.00825  0  0  0.114954  0  1.006868  0  0  0.101292  0.109004  0  1.009471  0
H  H7  1  0.42605712  0.21381857  0.63915662  1  0  0.1015  0  0.947971  0  0  0.111463  0  1.008326  0  0  0.114897  0  1.006932  0  0  0.101296  0.10894  0  1.009549  0
H  H8  1  0.56670429  0.91566105  0.55843688  1  0  0.094766  0  0.975645  0  0  0.10212  0  1.042299  0  0  0.104806  0  1.04173  0  0  0.098152  0.100384  0  1.042266  0
H  H9  1  0.43329104  0.08433865  0.44156487  1  0  0.094757  0  0.975662  0  0  0.102108  0  1.042318  0  0  0.104785  0  1.04178  0  0  0.098135  0.100368  0  1.042293  0
H  H10  1  0.31319309  0.38309043  0.22222464  1  0  0.091917  0  0.931525  0  0  0.10712  0  0.994023  0  0  0.10812  0  0.993405  0  0  0.116426  0.106454  0  0.994364  0
H  H11  1  0.68681089  0.61691157  0.77777639  1  0  0.091909  0  0.93153  0  0  0.107132  0  0.99402  0  0  0.108131  0  0.993402  0  0  0.116423  0.106467  0  0.994363  0
H  H12  1  0.22311717  0.51126107  0.18204351  1  0  0.101551  0  0.919889  0  0  0.118082  0  0.979611  0  0  0.119858  0  0.977451  0  0  0.121652  0.116677  0  0.98151  0
H  H13  1  0.77688551  0.48874091  0.81795665  1  0  0.101561  0  0.919834  0  0  0.118083  0  0.979583  0  0  0.119859  0  0.977422  0  0  0.121661  0.116681  0  0.981479  0
H  H14  1  0.61580461  0.41389612  0.23463331  1  0  0.099799  0  0.953578  0  0  0.108878  0  1.016872  0  0  0.111551  0  1.014166  0  0  0.126185  0.107034  0  1.018436  0
H  H15  1  0.38419409  0.58610249  0.76536518  1  0  0.099808  0  0.953555  0  0  0.10889  0  1.016839  0  0  0.111562  0  1.014133  0  0  0.126184  0.107047  0  1.018404  0
H  H16  1  0.88480742  0.48454152  0.14110839  1  0  0.12776  0  0.944517  0  0  0.138402  0  1.000161  0  0  0.142296  0  0.998994  0  0  0.113017  0.13531  0  1.001658  0
H  H17  1  0.11519315  0.51546156  0.85889348  1  0  0.127783  0  0.944428  0  0  0.138453  0  1.000039  0  0  0.142348  0  0.998872  0  0  0.113035  0.135364  0  1.001536  0
H  H18  1  0.90858072  0.67539073  0.03485093  1  0  0.107149  0  0.961056  0  0  0.120439  0  1.020173  0  0  0.123527  0  1.016201  0  0  0.114161  0.118117  0  1.02302  0
H  H19  1  0.09142831  0.32462023  0.96515774  1  0  0.107117  0  0.961136  0  0  0.120482  0  1.02016  0  0  0.123572  0  1.016187  0  0  0.114179  0.118165  0  1.023005  0
H  H20  1  0.80347427  0.24408192  0.73308032  1  0  0.079705  0  0.975642  0  0  0.086606  0  1.042746  0  0  0.088817  0  1.04131  0  0  0.114923  0.085067  0  1.043577  0
H  H21  1  0.19651968  0.75591443  0.26692072  1  0  0.079739  0  0.975627  0  0  0.086648  0  1.042719  0  0  0.08886  0  1.04128  0  0  0.114924  0.085105  0  1.043549  0
H  H22  1  0.90857192  0.21421865  0.55017091  1  0  0.101722  0  0.980643  0  0  0.112697  0  1.040341  0  0  0.11473  0  1.041653  0  0  0.105729  0.111247  0  1.039466  0
H  H23  1  0.09141988  0.78577879  0.44982861  1  0  0.101723  0  0.98061  0  0  0.112702  0  1.040312  0  0  0.11474  0  1.041616  0  0  0.105717  0.111248  0  1.039442  0
H  H24  1  0.02467496  0.82948211  0.60379135  1  0  0.103107  0  0.977387  0  0  0.113127  0  1.039748  0  0  0.115815  0  1.039184  0  0  0.107151  0.111262  0  1.04014  0
H  H25  1  0.97533463  0.17052105  0.39620858  1  0  0.1031  0  0.977416  0  0  0.113129  0  1.039763  0  0  0.115822  0  1.039191  0  0  0.107169  0.111232  0  1.040179  0
H  H26  1  0.91474336  0.87863610  0.78495363  1  0  0.087509  0  0.961471  0  0  0.095837  0  1.02579  0  0  0.098767  0  1.02283  0  0  0.118008  0.093767  0  1.027865  0
H  H27  1  0.08526264  0.12136148  0.21504504  1  0  0.087517  0  0.961478  0  0  0.095838  0  1.025796  0  0  0.098732  0  1.022881  0  0  0.118005  0.093769  0  1.027869  0
H  H28  1  0.83093974  0.21579551  0.13011983  1  0  0.431913  0  0.872563  0  0  0.396563  0  0.943252  0  0  0.409135  0  0.925115  0  0  0.281422  0.387628  0  0.956165  0
H  H29  1  0.16905720  0.78420197  0.86987754  1  0  0.431956  0  0.872506  0  0  0.396625  0  0.943162  0  0  0.409195  0  0.925028  0  0  0.28147  0.387689  0  0.956076  0
H  H30  1  0.98894364  0.18747688  0.05782018  1  0  0.421294  0  0.889269  0  0  0.389248  0  0.956014  0  0  0.400335  0  0.939854  0  0  0.283854  0.381386  0  0.967462  0
H  H31  1  0.01105506  0.81252173  0.94217831  1  0  0.421278  0  0.889299  0  0  0.389239  0  0.956029  0  0  0.400326  0  0.93987  0  0  0.283841  0.381377  0  0.967477  0
C  C32  1  0.33879676  0.81215046  0.69742569  1  0  0.641447  0  3.948393  0  0  0.590022  0  4.250755  0  0  0.624529  0  4.242029  0  0  0.1966  0.566641  0  4.256205  0
C  C33  1  0.66119929  0.18784480  0.30257364  1  0  0.641564  0  3.948324  0  0  0.590136  0  4.250678  0  0  0.624645  0  4.241946  0  0  0.196568  0.566761  0  4.256116  0
C  C34  1  0.35190407  0.73046193  0.58010648  1  0  -0.091518  0  3.77673  0  0  -0.070369  0  4.01306  0  0  -0.079078  0  4.036119  0  0  -0.031214  -0.064714  0  3.997862  0
C  C35  1  0.64809206  0.26953666  0.41989268  1  0  -0.091578  0  3.77677  0  0  -0.070433  0  4.013098  0  0  -0.079142  0  4.036154  0  0  -0.031197  -0.064772  0  3.997891  0
C  C36  1  0.23388105  0.58334357  0.52903039  1  0  -0.080999  0  3.785176  0  0  -0.103371  0  4.033428  0  0  -0.10279  0  4.053875  0  0  -0.093135  -0.103911  0  4.019755  0
C  C37  1  0.76611450  0.41665056  0.47096546  1  0  -0.080931  0  3.785066  0  0  -0.103281  0  4.033306  0  0  -0.102701  0  4.053753  0  0  -0.0931  -0.103824  0  4.019632  0
C  C38  1  0.23482367  0.51097054  0.41790954  1  0  -0.125725  0  3.746285  0  0  -0.139988  0  3.986577  0  0  -0.144726  0  4.008685  0  0  -0.094571  -0.136599  0  3.971059  0
C  C39  1  0.76517466  0.48903029  0.58208936  1  0  -0.125802  0  3.746254  0  0  -0.140055  0  3.986566  0  0  -0.144788  0  4.008675  0  0  -0.094579  -0.136669  0  3.97105  0
C  C40  1  0.35607891  0.58311599  0.35586047  1  0  0.080288  0  3.737547  0  0  0.099079  0  3.978455  0  0  0.099959  0  4.001806  0  0  -0.009343  0.098821  0  3.96243  0
C  C41  1  0.64391803  0.41688149  0.64413691  1  0  0.080286  0  3.737514  0  0  0.09899  0  3.978556  0  0  0.099869  0  4.001911  0  0  -0.009389  0.098735  0  3.962532  0
C  C42  1  0.47914690  0.72797271  0.40795264  1  0  -0.120126  0  3.728289  0  0  -0.141298  0  3.980754  0  0  -0.145066  0  4.000597  0  0  -0.094503  -0.13902  0  3.96727  0
C  C43  1  0.52085108  0.27203035  0.59204909  1  0  -0.120008  0  3.728207  0  0  -0.14114  0  3.980681  0  0  -0.144914  0  4.000521  0  0  -0.094494  -0.138869  0  3.967211  0
C  C44  1  0.47603357  0.80107925  0.51885574  1  0  -0.063017  0  3.743257  0  0  -0.084183  0  3.991415  0  0  -0.083068  0  4.011793  0  0  -0.087514  -0.084945  0  3.97725  0
C  C45  1  0.52395952  0.19891820  0.48114304  1  0  -0.063067  0  3.743111  0  0  -0.084226  0  3.991265  0  0  -0.083115  0  4.011641  0  0  -0.087522  -0.08499  0  3.977104  0
C  C46  1  0.33974396  0.50226388  0.23321907  1  0  -0.045324  0  3.647434  0  0  -0.117045  0  3.905223  0  0  -0.111632  0  3.913574  0  0  -0.050555  -0.120755  0  3.899715  0
C  C47  1  0.66025742  0.49773810  0.76678101  1  0  -0.045314  0  3.647294  0  0  -0.117029  0  3.905141  0  0  -0.111617  0  3.913491  0  0  -0.050552  -0.12074  0  3.899633  0
C  C48  1  0.63458759  0.49782578  0.18913149  1  0  0.120155  0  3.649948  0  0  0.072662  0  3.910286  0  0  0.085645  0  3.924812  0  0  0.057275  0.064739  0  3.899696  0
C  C49  1  0.36540808  0.50217169  0.81086743  1  0  0.120196  0  3.650033  0  0  0.072717  0  3.910372  0  0  0.0857  0  3.924897  0  0  0.057297  0.064795  0  3.899785  0
C  C50  1  0.78360030  0.53905975  0.13824111  1  0  -0.150366  0  3.762014  0  0  -0.168099  0  4.034822  0  0  -0.180267  0  4.0548  0  0  -0.101011  -0.160491  0  4.021594  0
C  C51  1  0.21640230  0.46093891  0.86175921  1  0  -0.150415  0  3.762194  0  0  -0.168177  0  4.035028  0  0  -0.180346  0  4.055005  0  0  -0.101025  -0.16057  0  4.021801  0
C  C52  1  0.79331208  0.64432558  0.07817675  1  0  0.031376  0  3.705958  0  0  -0.008475  0  3.967374  0  0  0.004798  0  3.980208  0  0  -0.061948  -0.016708  0  3.958568  0
C  C53  1  0.20669293  0.35568199  0.92182783  1  0  0.031393  0  3.706074  0  0  -0.008511  0  3.967512  0  0  0.004762  0  3.980349  0  0  -0.061968  -0.016751  0  3.958713  0
C  C54  1  0.65928822  0.70890232  0.07019296  1  0  -0.245991  0  3.681073  0  0  -0.224536  0  3.93332  0  0  -0.244427  0  3.954557  0  0  -0.031491  -0.212221  0  3.9197  0
C  C55  1  0.34071670  0.29110192  0.92981016  1  0  -0.245946  0  3.68109  0  0  -0.224508  0  3.933385  0  0  -0.244404  0  3.954633  0  0  -0.031473  -0.212185  0  3.91976  0
C  C56  1  0.50429825  0.66808117  0.12664038  1  0  0.493558  0  3.79365  0  0  0.444029  0  4.072807  0  0  0.472914  0  4.078057  0  0  0.226056  0.425045  0  4.068605  0
C  C57  1  0.49570186  0.33192079  0.87336125  1  0  0.493537  0  3.793614  0  0  0.444017  0  4.072783  0  0  0.472904  0  4.078031  0  0  0.226019  0.425029  0  4.068582  0
C  C58  1  0.67702628  0.81391273  0.99834742  1  0  0.685471  0  3.894225  0  0  0.629011  0  4.189959  0  0  0.665677  0  4.182504  0  0  0.20775  0.604027  0  4.194522  0
C  C59  1  0.32297782  0.18609261  0.00165668  1  0  0.6854  0  3.894173  0  0  0.628935  0  4.189935  0  0  0.6656  0  4.182483  0  0  0.207756  0.603954  0  4.19449  0
C  C60  1  0.85536306  0.15437529  0.70120338  1  0  0.129785  0  3.721926  0  0  0.100325  0  3.974614  0  0  0.107086  0  3.993282  0  0  0.046577  0.095974  0  3.961533  0
C  C61  1  0.14463298  0.84561997  0.29879433  1  0  0.129782  0  3.721893  0  0  0.100295  0  3.974596  0  0  0.107059  0  3.993263  0  0  0.046646  0.095946  0  3.96151  0
C  C62  1  0.91417656  0.13552873  0.59778376  1  0  -0.151215  0  3.689549  0  0  -0.166997  0  3.930125  0  0  -0.174513  0  3.951917  0  0  -0.0782  -0.161994  0  3.915038  0
C  C63  1  0.08581701  0.86446984  0.40221688  1  0  -0.151216  0  3.689541  0  0  -0.166983  0  3.930129  0  0  -0.174501  0  3.951921  0  0  -0.078236  -0.161978  0  3.915043  0
C  C64  1  0.97290091  0.01483217  0.55630202  1  0  0.094971  0  3.737941  0  0  0.107673  0  3.964809  0  0  0.111531  0  3.985599  0  0  0.015435  0.105331  0  3.950568  0
C  C65  1  0.02709780  0.98516644  0.44369728  1  0  0.094995  0  3.737951  0  0  0.107651  0  3.964871  0  0  0.111509  0  3.985664  0  0  0.015425  0.105306  0  3.950625  0
C  C66  1  0.97633618  0.92305608  0.62706648  1  0  -0.143196  0  3.681862  0  0  -0.162916  0  3.928997  0  0  -0.169953  0  3.950113  0  0  -0.07713  -0.1582  0  3.914453  0
C  C67  1  0.02366825  0.07694703  0.37293398  1  0  -0.143176  0  3.681817  0  0  -0.162896  0  3.928957  0  0  -0.169933  0  3.950057  0  0  -0.077144  -0.158148  0  3.914439  0
C  C68  1  0.91582760  0.94976824  0.72964592  1  0  0.13307  0  3.698687  0  0  0.101624  0  3.953909  0  0  0.108439  0  3.972089  0  0  0.048144  0.097124  0  3.941293  0
C  C69  1  0.08417887  0.05023045  0.27035381  1  0  0.133052  0  3.698801  0  0  0.101609  0  3.954019  0  0  0.108449  0  3.972208  0  0  0.048154  0.097106  0  3.941392  0
N  N70  1  0.50100193  0.55832591  0.18299027  1  0  -0.148204  0  3.468464  0  0  -0.05372  0  3.687182  0  0  -0.074536  0  3.710945  0  0  -0.232493  -0.040009  0  3.670805  0
N  N71  1  0.49900028  0.44167496  0.81700965  1  0  -0.148225  0  3.468351  0  0  -0.05375  0  3.687092  0  0  -0.074565  0  3.710855  0  0  -0.232459  -0.040038  0  3.67072  0
N  N72  1  0.85281601  0.06216591  0.76608634  1  0  -0.338111  0  3.238682  0  0  -0.26367  0  3.505514  0  0  -0.283724  0  3.523992  0  0  -0.322226  -0.249751  0  3.492612  0
N  N73  1  0.14718577  0.93783385  0.23391496  1  0  -0.338123  0  3.238795  0  0  -0.263659  0  3.505623  0  0  -0.283711  0  3.524085  0  0  -0.322248  -0.24974  0  3.492717  0
O  O74  1  0.44601096  0.94699677  0.73731018  1  0  -0.671437  0  2.033931  0  0  -0.611486  0  2.295373  0  0  -0.638906  0  2.283466  0  0  -0.348423  -0.592381  0  2.303021  0
O  O75  1  0.55399246  0.05300078  0.26268916  1  0  -0.67147  0  2.033982  0  0  -0.611527  0  2.295425  0  0  -0.638945  0  2.283513  0  0  -0.348424  -0.59243  0  2.303071  0
O  O76  1  0.21900951  0.74051872  0.74547788  1  0  -0.639775  0  1.971813  0  0  -0.583363  0  2.201389  0  0  -0.608466  0  2.190979  0  0  -0.323826  -0.566123  0  2.208275  0
O  O77  1  0.78098753  0.25948210  0.25452095  1  0  -0.639882  0  1.97178  0  0  -0.583427  0  2.201324  0  0  -0.608532  0  2.190914  0  0  -0.323818  -0.56619  0  2.208201  0
O  O78  1  0.80857678  0.83736095  0.94450053  1  0  -0.647878  0  1.992475  0  0  -0.592299  0  2.228255  0  0  -0.61846  0  2.217398  0  0  -0.317361  -0.574114  0  2.235474  0
O  O79  1  0.19142908  0.16264552  0.05550469  1  0  -0.647857  0  1.992423  0  0  -0.592273  0  2.228214  0  0  -0.618426  0  2.217353  0  0  -0.317381  -0.574086  0  2.235426  0
O  O80  1  0.55580164  0.87600386  0.98978037  1  0  -0.678852  0  2.12534  0  0  -0.595299  0  2.394011  0  0  -0.627868  0  2.379848  0  0  -0.328389  -0.572182  0  2.40288  0
O  O81  1  0.44419976  0.12399811  0.01022052  1  0  -0.67883  0  2.125378  0  0  -0.595286  0  2.394063  0  0  -0.627855  0  2.379902  0  0  -0.328386  -0.57217  0  2.402931  0
O  O82  1  0.37209176  0.71533099  0.12993829  1  0  -0.580517  0  2.064071  0  0  -0.522438  0  2.315895  0  0  -0.548538  0  2.308393  0  0  -0.304275  -0.504137  0  2.320092  0
O  O83  1  0.62790777  0.28466652  0.87006003  1  0  -0.580526  0  2.064014  0  0  -0.522448  0  2.315841  0  0  -0.548548  0  2.308334  0  0  -0.304288  -0.504155  0  2.320063  0
O  O84  1  0.87457213  0.21228737  0.05527936  1  0  -0.867259  0  1.876168  0  0  -0.803612  0  2.084984  0  0  -0.827677  0  2.048192  0  0  -0.596693  -0.786381  0  2.110919  0
O  O85  1  0.12542482  0.78771011  0.94471882  1  0  -0.867318  0  1.876158  0  0  -0.803671  0  2.084954  0  0  -0.827736  0  2.048166  0  0  -0.596728  -0.786441  0  2.110893  0
