# generated using pymatgen
data_Al3H8C30NO14
_symmetry_space_group_name_H-M   'P 1'
_cell_length_a   12.32846632
_cell_length_b   12.43782997
_cell_length_c   27.06885366
_cell_angle_alpha   98.03463214
_cell_angle_beta   89.61007021
_cell_angle_gamma   120.55641800
_symmetry_Int_Tables_number   1
_chemical_formula_structural   Al3H8C30NO14
_chemical_formula_sum   'Al6 H16 C60 N2 O28'
_cell_volume   3529.15729574
_cell_formula_units_Z   2
loop_
 _symmetry_equiv_pos_site_id
 _symmetry_equiv_pos_as_xyz
  1  'x, y, z'
loop_
 _atom_site_type_symbol
 _atom_site_label
 _atom_site_symmetry_multiplicity
 _atom_site_fract_x
 _atom_site_fract_y
 _atom_site_fract_z
 _atom_site_occupancy
 _atom_site_pbe_bader_charge
 _atom_site_pbe_bader_spin_density
 _atom_site_pbe_cm5_charge
 _atom_site_pbe_ddec_charge
 _atom_site_pbe_ddec_spin_density
 _atom_site_pbe_ddec_sum_bond_order
 _atom_site_pbe_magmom
Al  Al0  1  0.41297674  0.81492984  0.48747178  1  2.493683  0  0.40036  1.679975  0  2.56444  0
Al  Al1  1  0.67273410  0.08245426  0.50222883  1  2.481554  0  0.51042  1.662023  0  2.510609  0
Al  Al2  1  0.42828015  0.08212911  0.50360304  1  2.488271  0  0.508583  1.661059  0  2.509706  0
Al  Al3  1  0.92644538  0.84568294  0.01977022  1  2.494507  0  0.399172  1.682795  0  2.560012  0
Al  Al4  1  0.91671804  0.58007895  0.00473509  1  2.487084  0  0.510695  1.664062  0  2.506124  0
Al  Al5  1  0.67001739  0.57481424  0.00283896  1  2.48018  0  0.511024  1.659842  0  2.508469  0
H  H6  1  0.71595923  0.17455781  0.28277886  1  0.107537  0  0.115415  0.117946  0  0.983178  0
H  H7  1  0.04072845  0.92002653  0.84902974  1  0.437949  0  0.308664  0.30723  0  0.940858  0
H  H8  1  0.05555623  0.01075018  0.80482126  1  0.450339  0  0.307632  0.294902  0  0.947399  0
H  H9  1  0.08346811  0.97011831  0.67687647  1  0.421876  0  0.305566  0.301289  0  0.945358  0
H  H10  1  0.99079861  0.95243852  0.72517718  1  0.440345  0  0.294993  0.283483  0  0.987357  0
H  H11  1  0.80916832  0.03636909  0.72657812  1  0.086254  0  0.113153  0.118407  0  0.978823  0
H  H12  1  0.80464494  0.99817155  0.81484463  1  0.100278  0  0.115314  0.121228  0  0.973814  0
H  H13  1  0.58225021  0.59624025  0.76454134  1  0.07002  0  0.11444  0.118373  0  0.980739  0
H  H14  1  0.62853625  0.47040858  0.31788946  1  0.110014  0  0.119072  0.123759  0  0.971152  0
H  H15  1  0.26796530  0.73037932  0.69866161  1  0.087723  0  0.109218  0.119174  0  0.986398  0
H  H16  1  0.23101926  0.68966480  0.78717156  1  0.08119  0  0.108403  0.117034  0  0.988795  0
H  H17  1  0.58678793  0.63406381  0.67634963  1  0.116796  0  0.117638  0.123114  0  0.973755  0
H  H18  1  0.72628220  0.20212373  0.19330030  1  0.106567  0  0.119811  0.125123  0  0.970934  0
H  H19  1  0.63893622  0.49797784  0.22842177  1  0.105342  0  0.115794  0.118261  0  0.981968  0
H  H20  1  0.32020507  0.60982898  0.50625192  1  0.590148  0  0.296211  0.386214  0  0.917663  0
H  H21  1  0.04895813  0.05305531  0.00344286  1  0.570614  0  0.294492  0.383511  0  0.921944  0
C  C22  1  0.62193944  0.90089001  0.41850673  1  1.691161  0  0.279159  0.689376  0  4.186534  0
C  C23  1  0.12916848  0.80066923  0.18294585  1  -0.343559  0  -0.000557  0.034997  0  4.244029  0
C  C24  1  0.15582026  0.81925199  0.23237871  1  -0.064154  0  0.005675  0.001755  0  4.182517  0
C  C25  1  0.63103143  0.23428187  0.44634335  1  1.636931  0  0.287858  0.726504  0  4.141921  0
C  C26  1  0.17776652  0.83609436  0.27807582  1  0.063515  0  0.006302  0.002158  0  4.182295  0
C  C27  1  0.20451723  0.85605833  0.32754231  1  -0.313212  0  0.000666  0.036952  0  4.242615  0
C  C28  1  0.23123177  0.87587001  0.37273041  1  0.23992  0  0.006694  -0.128126  0  3.817451  0
C  C29  1  0.66939804  0.78098770  0.13132544  1  0.342351  0  0.007618  -0.127683  0  3.813182  0
C  C30  1  0.66175803  0.80066890  0.17654663  1  -0.403447  0  -0.001645  0.033668  0  4.247017  0
C  C31  1  0.65666802  0.82190463  0.22615178  1  0.177244  0  0.001766  -0.003537  0  4.188917  0
C  C32  1  0.65604897  0.84144145  0.27209115  1  -0.207573  0  0.003168  -0.000639  0  4.190002  0
C  C33  1  0.65548007  0.42726610  0.24054227  1  -0.021664  0  -0.068048  -0.106271  0  3.933286  0
C  C34  1  0.65287536  0.86173729  0.32185233  1  -0.208801  0  -0.004183  0.028015  0  4.252872  0
C  C35  1  0.64795606  0.87997037  0.36732613  1  0.132757  0  0.006994  -0.125455  0  3.815423  0
C  C36  1  0.69625134  0.37594967  0.87414778  1  0.113841  0  0.008118  -0.127046  0  3.800778  0
C  C37  1  0.28360028  0.90371441  0.42325377  1  1.67087  0  0.282394  0.689772  0  4.185839  0
C  C38  1  0.68539206  0.35391304  0.82822605  1  -0.180777  0  0.001609  0.03733  0  4.231016  0
C  C39  1  0.67490076  0.33237332  0.77803118  1  0.272111  0  0.00664  0.0017  0  4.171791  0
C  C40  1  0.66672365  0.31536766  0.73182280  1  -0.352441  0  0.006132  0.002568  0  4.172403  0
C  C41  1  0.65595172  0.29385338  0.68161977  1  -0.190044  0  0.000505  0.035395  0  4.235412  0
C  C42  1  0.64490824  0.27191727  0.63569788  1  0.172562  0  0.007815  -0.127415  0  3.803925  0
C  C43  1  0.23007863  0.88289923  0.61045835  1  -0.3171  0  -0.04238  -0.211975  0  3.949899  0
C  C44  1  0.64986506  0.41209605  0.29047436  1  -0.031633  0  -0.066603  -0.106227  0  3.933202  0
C  C45  1  0.22075189  0.76884663  0.72277886  1  -0.015248  0  -0.095529  -0.139472  0  4.038207  0
C  C46  1  0.20054792  0.74659508  0.77132462  1  -0.015173  0  -0.095931  -0.13947  0  4.051062  0
C  C47  1  0.10002201  0.87518361  0.78308928  1  0.461542  0  0.103178  0.168188  0  4.031621  0
C  C48  1  0.11678240  0.89428526  0.73246185  1  0.426674  0  0.098871  0.159822  0  4.037732  0
C  C49  1  0.64649808  0.90563421  0.55873416  1  1.654275  0  0.277739  0.7091  0  4.163635  0
C  C50  1  0.17955579  0.84299794  0.70288973  1  0.128183  0  -0.011824  0.022342  0  4.123401  0
C  C51  1  0.14159892  0.80059942  0.80216055  1  0.120591  0  -0.013923  0.017214  0  4.129633  0
C  C52  1  0.12418589  0.78388254  0.85250841  1  -0.446995  0  -0.015049  -0.000953  0  4.110875  0
C  C53  1  0.20339705  0.86536195  0.65328770  1  -0.010335  0  -0.01829  -0.005514  0  4.111427  0
C  C54  1  0.10565494  0.77520106  0.89656545  1  0.133106  0  -0.043669  -0.21742  0  3.955124  0
C  C55  1  0.67161635  0.32073932  0.30627779  1  0.10171  0  0.011062  0.119114  0  4.097527  0
C  C56  1  0.68098010  0.87935417  0.60424048  1  0.191313  0  -0.032683  -0.183191  0  3.936228  0
C  C57  1  0.76093279  0.94033721  0.73516512  1  -0.074907  0  -0.078443  -0.128964  0  3.968157  0
C  C58  1  0.75793782  0.91921214  0.78423720  1  0.027955  0  -0.074317  -0.117351  0  3.964061  0
C  C59  1  0.63197946  0.69221549  0.75594316  1  0.036352  0  -0.070025  -0.109811  0  3.940901  0
C  C60  1  0.63486603  0.71316743  0.70681995  1  -0.016803  0  -0.0722  -0.112439  0  3.941443  0
C  C61  1  0.61904194  0.22332398  0.58300338  1  1.668589  0  0.283884  0.700804  0  4.174792  0
C  C62  1  0.69815401  0.83756494  0.69568856  1  0.037005  0  0.005502  0.126183  0  4.115102  0
C  C63  1  0.69249422  0.79486210  0.79545523  1  0.063776  0  0.007297  0.12916  0  4.10909  0
C  C64  1  0.68953419  0.77511282  0.84574247  1  -0.523377  0  -0.015597  -0.025805  0  4.074906  0
C  C65  1  0.69247851  0.85982366  0.64623357  1  -0.43553  0  -0.01698  -0.029388  0  4.080169  0
C  C66  1  0.68295723  0.35160757  0.20489934  1  0.080913  0  0.011446  0.120676  0  4.097145  0
C  C67  1  0.69042733  0.76182808  0.88948074  1  0.240103  0  -0.033317  -0.185661  0  3.934108  0
C  C68  1  0.05208339  0.75953282  0.08725031  1  1.691259  0  0.280123  0.691749  0  4.185677  0
C  C69  1  0.71877820  0.43380411  0.06407640  1  1.625449  0  0.286713  0.726661  0  4.142697  0
C  C70  1  0.70189495  0.75741354  0.08154896  1  1.683768  0  0.282684  0.688495  0  4.18776  0
C  C71  1  0.05963134  0.75787908  0.94512885  1  1.660397  0  0.271466  0.710792  0  4.174306  0
C  C72  1  0.72229151  0.42732350  0.92654499  1  1.704903  0  0.286506  0.701844  0  4.174489  0
C  C73  1  0.28573609  0.90327031  0.56357289  1  1.639495  0  0.272878  0.710532  0  4.168774  0
C  C74  1  0.71214572  0.74578440  0.93933892  1  1.678713  0  0.275373  0.70928  0  4.166883  0
C  C75  1  0.65479268  0.28335140  0.40020403  1  0.237066  0  -0.031594  -0.202245  0  3.921146  0
C  C76  1  0.69942868  0.24528943  0.27066220  1  -0.04204  0  -0.067528  -0.105214  0  3.929672  0
C  C77  1  0.68981952  0.36907878  0.15414417  1  -0.42013  0  0.007285  0.01734  0  4.025795  0
C  C78  1  0.70499791  0.26045540  0.22072138  1  -0.002639  0  -0.066681  -0.107485  0  3.931235  0
C  C79  1  0.66360823  0.30252067  0.35694853  1  -0.459619  0  0.009275  0.020965  0  4.023127  0
C  C80  1  0.69686570  0.38735219  0.11079202  1  0.203338  0  -0.032209  -0.201453  0  3.921835  0
C  C81  1  0.10269465  0.78346664  0.13784006  1  0.258714  0  0.006747  -0.127587  0  3.816884  0
N  N82  1  0.03910298  0.92581237  0.81192496  1  -1.215891  0  -0.583224  -0.588733  0  3.334846  0
N  N83  1  0.07594446  0.96744971  0.71420875  1  -1.19633  0  -0.593632  -0.602451  0  3.315966  0
O  O84  1  0.29828014  0.82105947  0.43919049  1  -1.202263  0  -0.19495  -0.526555  0  2.280156  0
O  O85  1  0.63897971  0.45948798  0.04730173  1  -1.245439  0  -0.226102  -0.589864  0  2.245837  0
O  O86  1  0.62038315  0.65400675  0.05348958  1  -1.25166  0  -0.235952  -0.594055  0  2.234778  0
O  O87  1  0.51456444  0.82127442  0.43052864  1  -1.207768  0  -0.194265  -0.52421  0  2.287202  0
O  O88  1  0.81371027  0.83142620  0.96354643  1  -1.21819  0  -0.209177  -0.559543  0  2.293834  0
O  O89  1  0.03473632  0.83895494  0.96695585  1  -1.227755  0  -0.217255  -0.580942  0  2.303487  0
O  O90  1  0.04207872  0.65855328  0.96217353  1  -1.256911  0  -0.244189  -0.605358  0  2.225437  0
O  O91  1  0.82995488  0.45774614  0.94610855  1  -1.23107  0  -0.218205  -0.569998  0  2.248913  0
O  O92  1  0.63890133  0.44453470  0.94832699  1  -1.235863  0  -0.220244  -0.574795  0  2.249425  0
O  O93  1  0.62838796  0.64261226  0.95431028  1  -1.260418  0  -0.243688  -0.60505  0  2.22972  0
O  O94  1  0.83647273  0.66451334  0.00859141  1  -1.611979  0  -0.391185  -1.274368  0  2.29321  0
O  O95  1  0.70047639  0.20355057  0.56104431  1  -1.2286  0  -0.218064  -0.570908  0  2.251198  0
O  O96  1  0.70817608  0.00072588  0.44674126  1  -1.249343  0  -0.237088  -0.598468  0  2.24142  0
O  O97  1  0.71065053  0.20772254  0.46284856  1  -1.237449  0  -0.225758  -0.589253  0  2.240278  0
O  O98  1  0.52964569  0.21390938  0.46672743  1  -1.245286  0  -0.224837  -0.588046  0  2.242431  0
O  O99  1  0.31598083  0.01431764  0.44718009  1  -1.246407  0  -0.23581  -0.593592  0  2.236579  0
O  O100  1  0.32215888  0.82832150  0.54567982  1  -1.218489  0  -0.211422  -0.565671  0  2.300448  0
O  O101  1  0.53999098  0.82497003  0.53671498  1  -1.216669  0  -0.206007  -0.557817  0  2.288797  0
O  O102  1  0.72597180  0.01315928  0.54548097  1  -1.249564  0  -0.241458  -0.601863  0  2.224764  0
O  O103  1  0.51307318  0.19833429  0.56344603  1  -1.23011  0  -0.22092  -0.574477  0  2.24608  0
O  O104  1  0.29869311  0.99802340  0.54400173  1  -1.259027  0  -0.248614  -0.617285  0  2.230407  0
O  O105  1  0.50643724  0.99569985  0.49786317  1  -1.615569  0  -0.3912  -1.275184  0  2.301719  0
O  O106  1  0.80994632  0.83782714  0.07050129  1  -1.203138  0  -0.189741  -0.51582  0  2.288236  0
O  O107  1  0.02725307  0.83863661  0.07426693  1  -1.2045  0  -0.195851  -0.531735  0  2.286188  0
O  O108  1  0.03214240  0.65611967  0.06026880  1  -1.249691  0  -0.237118  -0.599079  0  2.238824  0
O  O109  1  0.81960209  0.45256157  0.04346839  1  -1.248038  0  -0.226362  -0.591431  0  2.242918  0
O  O110  1  0.32881224  0.64991893  0.47719072  1  -1.363779  0  -0.569741  -0.983551  0  1.791599  0
O  O111  1  0.00608319  0.01061501  0.03093829  1  -1.352327  0  -0.57195  -0.985357  0  1.795084  0
