# generated using pymatgen
data_AlH8(C5O3)2
_symmetry_space_group_name_H-M   'P 1'
_cell_length_a   6.68352174
_cell_length_b   8.84582140
_cell_length_c   15.19761047
_cell_angle_alpha   67.60616353
_cell_angle_beta   79.36973426
_cell_angle_gamma   75.08356180
_symmetry_Int_Tables_number   1
_chemical_formula_structural   AlH8(C5O3)2
_chemical_formula_sum   'Al2 H16 C20 O12'
_cell_volume   798.98583651
_cell_formula_units_Z   2
loop_
 _symmetry_equiv_pos_site_id
 _symmetry_equiv_pos_as_xyz
  1  'x, y, z'
loop_
 _atom_site_type_symbol
 _atom_site_label
 _atom_site_symmetry_multiplicity
 _atom_site_fract_x
 _atom_site_fract_y
 _atom_site_fract_z
 _atom_site_occupancy
 _atom_site_pbe_bader_charge
 _atom_site_pbe_bader_spin_density
 _atom_site_pbe_cm5_charge
 _atom_site_pbe_ddec_charge
 _atom_site_pbe_ddec_spin_density
 _atom_site_pbe_ddec_sum_bond_order
 _atom_site_pbe_magmom
Al  Al0  1  0.50030856  0.49972202  0.50001175  1  2.504455  0  0.403041  1.645821  0  2.58709  0
Al  Al1  1  0.00029165  0.49977912  0.50002901  1  2.505113  0  0.402017  1.650288  0  2.575649  0
H  H2  1  0.26672066  0.32171709  0.60691288  1  0.626245  0  0.361938  0.441337  0  0.83448  0
H  H3  1  0.73303716  0.67900798  0.39369034  1  0.627673  0  0.361612  0.440713  0  0.834846  0
H  H4  1  0.19564206  0.40168211  0.07735532  1  0.056797  0  0.097609  0.09696  0  1.036315  0
H  H5  1  0.80208445  0.60076079  0.92205941  1  0.046243  0  0.09803  0.099081  0  1.034102  0
H  H6  1  0.37374241  0.37301303  0.79158537  1  0.082154  0  0.1068  0.105217  0  1.008781  0
H  H7  1  0.27423145  0.38105755  0.95309884  1  0.064797  0  0.101023  0.102593  0  1.017358  0
H  H8  1  0.62779344  0.62469752  0.20880375  1  0.086688  0  0.106464  0.10501  0  1.011462  0
H  H9  1  0.72759845  0.61602490  0.04747565  1  0.078205  0  0.100782  0.101508  0  1.019722  0
H  H10  1  0.21449361  0.13729608  0.49146719  1  0.640848  0  0.318667  0.35896  0  0.946677  0
H  H11  1  0.78606031  0.86241076  0.50857677  1  0.640277  0  0.31823  0.358621  0  0.946936  0
H  H12  1  0.97165034  0.34920351  0.20661185  1  0.017448  0  0.087848  0.122796  0  1.008719  0
H  H13  1  0.08564017  0.28150337  0.31568356  1  0.071888  0  0.094694  0.134699  0  1.013396  0
H  H14  1  0.92492468  0.48042220  0.27584953  1  0.083734  0  0.097295  0.141851  0  1.016296  0
H  H15  1  0.07436806  0.52211217  0.72375878  1  0.071889  0  0.097321  0.141965  0  1.016361  0
H  H16  1  0.91163822  0.72024325  0.68397130  1  0.063308  0  0.094677  0.134993  0  1.014623  0
H  H17  1  0.02580471  0.65365075  0.79290297  1  0.015703  0  0.088478  0.123298  0  1.008315  0
C  C18  1  0.68712355  0.47066793  0.66723625  1  1.560653  0  0.268889  0.656531  0  4.071854  0
C  C19  1  0.84338453  0.20842722  0.51228392  1  1.548724  0  0.259039  0.604494  0  4.105581  0
C  C20  1  0.31339307  0.52881328  0.33284138  1  1.567156  0  0.269411  0.656915  0  4.072091  0
C  C21  1  0.15723719  0.79118798  0.48771683  1  1.549816  0  0.258827  0.604559  0  4.105633  0
C  C22  1  0.10273402  0.96075607  0.49247274  1  0.606153  0  0.062978  0.031802  0  4.070804  0
C  C23  1  0.89790893  0.03891005  0.50750924  1  0.545712  0  0.062629  0.031097  0  4.071412  0
C  C24  1  0.35544458  0.52236176  0.23446455  1  -0.035504  0  -0.017176  -0.114867  0  3.922541  0
C  C25  1  0.64483328  0.47718719  0.76559482  1  -0.043456  0  -0.017992  -0.114578  0  3.920704  0
C  C26  1  0.23038816  0.45904439  0.19661702  1  -0.002181  0  0.005605  0.178991  0  3.930753  0
C  C27  1  0.29208373  0.45304190  0.10467155  1  0.004702  0  -0.093692  -0.200876  0  3.93147  0
C  C28  1  0.76891783  0.54170805  0.80319143  1  -0.009  0  0.006138  0.179693  0  3.930407  0
C  C29  1  0.70689770  0.54787425  0.89507742  1  0.017413  0  -0.094271  -0.203063  0  3.931114  0
C  C30  1  0.46844728  0.42121017  0.82165494  1  -0.037418  0  -0.082148  -0.078275  0  4.021875  0
C  C31  1  0.41207517  0.42732953  0.91289949  1  -0.025457  0  -0.096213  -0.147782  0  3.999149  0
C  C32  1  0.53251634  0.57727515  0.17858025  1  -0.067414  0  -0.081969  -0.077215  0  4.023326  0
C  C33  1  0.58887240  0.57095987  0.08739284  1  -0.023047  0  -0.096084  -0.147857  0  4.000329  0
C  C34  1  0.47002234  0.50633619  0.04811405  1  -0.077882  0  -0.002871  0.082813  0  4.001343  0
C  C35  1  0.52984378  0.49330844  0.95188682  1  -0.047745  0  -0.00315  0.082999  0  4.001272  0
C  C36  1  0.04265326  0.38971935  0.25116593  1  -0.083782  0  -0.240197  -0.413651  0  3.951051  0
C  C37  1  0.95568395  0.61231203  0.74844861  1  -0.055847  0  -0.241134  -0.415212  0  3.953567  0
O  O38  1  0.53153436  0.47475037  0.62803325  1  -1.259011  0  -0.237286  -0.601117  0  2.343032  0
O  O39  1  0.99615297  0.27650535  0.50849720  1  -1.25566  0  -0.238145  -0.610414  0  2.397618  0
O  O40  1  0.12639558  0.53935514  0.37184303  1  -1.275807  0  -0.238385  -0.602116  0  2.362959  0
O  O41  1  0.34791302  0.72348557  0.48063688  1  -1.249086  0  -0.227042  -0.554954  0  2.353377  0
O  O42  1  0.46910986  0.52444012  0.37206058  1  -1.25846  0  -0.237619  -0.601403  0  2.343256  0
O  O43  1  0.00442074  0.72314563  0.49151910  1  -1.259222  0  -0.237646  -0.610252  0  2.397716  0
O  O44  1  0.87418248  0.46031591  0.62828701  1  -1.269104  0  -0.238061  -0.602595  0  2.361694  0
O  O45  1  0.65269140  0.27603893  0.51938429  1  -1.248889  0  -0.226807  -0.554269  0  2.353713  0
O  O46  1  0.25887158  0.41471093  0.54680884  1  -1.429805  0  -0.447607  -0.9958  0  2.202669  0
O  O47  1  0.74165049  0.58489629  0.45328876  1  -1.430194  0  -0.447447  -0.994903  0  2.202962  0
O  O48  1  0.26956857  0.02759013  0.48268706  1  -1.120486  0  -0.343697  -0.387282  0  2.354243  0
O  O49  1  0.73098998  0.97214701  0.51730434  1  -1.119337  0  -0.343404  -0.387125  0  2.354331  0
