# generated using pymatgen
data_Co3H24C28(NO9)2
_symmetry_space_group_name_H-M   'P 1'
_cell_length_a   7.41083342
_cell_length_b   8.74577935
_cell_length_c   12.39662633
_cell_angle_alpha   98.69900369
_cell_angle_beta   91.98280305
_cell_angle_gamma   102.98849565
_symmetry_Int_Tables_number   1
_chemical_formula_structural   Co3H24C28(NO9)2
_chemical_formula_sum   'Co3 H24 C28 N2 O18'
_cell_volume   771.94129214
_cell_formula_units_Z   1
loop_
 _symmetry_equiv_pos_site_id
 _symmetry_equiv_pos_as_xyz
  1  'x, y, z'
loop_
 _atom_site_type_symbol
 _atom_site_label
 _atom_site_symmetry_multiplicity
 _atom_site_fract_x
 _atom_site_fract_y
 _atom_site_fract_z
 _atom_site_occupancy
 _atom_site_hle17_ddec_charge
 _atom_site_hle17_ddec_spin_density
 _atom_site_hle17_ddec_sum_bond_order
 _atom_site_hle17_magmom
 _atom_site_hse06_10hf_ddec_charge
 _atom_site_hse06_10hf_ddec_spin_density
 _atom_site_hse06_10hf_ddec_sum_bond_order
 _atom_site_hse06_10hf_magmom
 _atom_site_hse06_ddec_charge
 _atom_site_hse06_ddec_spin_density
 _atom_site_hse06_ddec_sum_bond_order
 _atom_site_hse06_magmom
 _atom_site_pbe_cm5_charge
 _atom_site_pbe_ddec_charge
 _atom_site_pbe_ddec_spin_density
 _atom_site_pbe_ddec_sum_bond_order
 _atom_site_pbe_magmom
Co  Co0  1  0.83300506  0.59910675  0.64942346  1  1.072603  -2.850839  1.881755  -2.61  1.034126  -2.850078  2.277488  -2.668  1.102452  -2.885693  2.211792  -2.734  0.664245  0.982282  -2.818203  2.325851  -2.606
Co  Co1  1  0.16716737  0.40084762  0.35046010  1  1.072434  -2.850915  1.882669  -2.61  1.0335  -2.84975  2.278994  -2.668  1.101818  -2.885378  2.21327  -2.734  0.664204  0.981632  -2.817946  2.327464  -2.606
Co  Co2  1  0.49981417  0.99982861  0.50000687  1  1.194591  -2.888372  1.762932  -2.647  1.164733  -2.878846  2.150951  -2.703  1.229324  -2.901689  2.081575  -2.758  0.654694  1.115308  -2.863316  2.201717  -2.655
H  H3  1  0.46951765  0.52056705  0.59656173  1  0.416674  7.9e-05  0.847818  0.0  0.39239  -0.000287  0.918597  -0.001  0.401315  -0.000133  0.908748  -0.001  0.307101  0.385932  -0.000437  0.925558  -0.001
H  H4  1  0.53064762  0.47939901  0.40303820  1  0.416431  8.2e-05  0.847377  0.0  0.392045  -0.000285  0.918442  -0.001  0.400974  -0.000131  0.90859  -0.001  0.306889  0.385586  -0.000435  0.925406  -0.001
H  H5  1  0.49717582  0.70476228  0.63168225  1  0.429574  0.000136  0.868094  0.0  0.406563  -0.000163  0.91846  -0.001  0.417826  -3e-06  0.902221  -0.001  0.298582  0.398322  -0.000345  0.930254  -0.001
H  H6  1  0.50297916  0.29511390  0.36830450  1  0.429277  0.000131  0.868594  0.0  0.406241  -0.000169  0.918963  -0.001  0.417515  -7e-06  0.90271  -0.001  0.29834  0.398001  -0.000351  0.930746  -0.001
H  H7  1  0.78085511  0.92179179  0.60538592  1  0.428404  0.000459  0.8616  0.0  0.40211  0.00015  0.927006  0.0  0.41298  0.000329  0.911407  0.0  0.2984  0.394507  -6.9e-05  0.93782  -0.001
H  H8  1  0.21910227  0.07806138  0.39459742  1  0.428487  0.000467  0.861207  0.0  0.402274  0.000156  0.926687  0.0  0.413138  0.000334  0.911081  0.0  0.298492  0.394658  -6.2e-05  0.93753  -0.001
H  H9  1  0.74801610  0.82012944  0.49001301  1  0.423916  0.000323  0.877094  0.0  0.393889  -0.000201  0.945983  -0.002  0.404846  -4.6e-05  0.930253  -0.001  0.295958  0.386235  -0.000373  0.956841  -0.002
H  H10  1  0.25183797  0.17973039  0.50996407  1  0.423785  0.000322  0.87716  0.0  0.393941  -0.000201  0.945829  -0.002  0.40487  -4.6e-05  0.930124  -0.001  0.295971  0.386296  -0.000373  0.956676  -0.002
H  H11  1  0.68858831  0.13788387  0.32734205  1  0.441405  -3.1e-05  0.826481  -0.001  0.417038  -0.000242  0.889777  -0.001  0.425904  -0.000119  0.878202  -0.001  0.31241  0.410859  -0.000369  0.896155  -0.001
H  H12  1  0.31210565  0.86275677  0.67319553  1  0.442063  -2.3e-05  0.82493  -0.001  0.417238  -0.000233  0.889136  -0.001  0.426145  -0.000112  0.877863  -0.001  0.312224  0.411028  -0.00036  0.895579  -0.001
H  H13  1  0.73094650  0.25344133  0.44210001  1  0.446783  0.000267  0.826766  0.0  0.412795  5.1e-05  0.909029  0.0  0.424161  0.000195  0.892168  0.0  0.309009  0.404493  -8.6e-05  0.919152  -0.001
H  H14  1  0.26821868  0.74634503  0.55896950  1  0.446813  0.000255  0.825941  0.0  0.413214  4.5e-05  0.907826  0.0  0.424543  0.000188  0.891358  0.0  0.309405  0.404947  -9.2e-05  0.917923  -0.001
H  H15  1  0.91782064  0.72332598  0.90060174  1  0.087334  -0.000596  0.95527  -0.002  0.092872  -0.00051  1.023638  -0.001  0.09548  -0.000358  1.021176  -0.001  0.117245  0.090777  -0.000663  1.02581  -0.002
H  H16  1  0.08216603  0.27670922  0.09931747  1  0.087203  -0.000596  0.955169  -0.002  0.092673  -0.00051  1.023639  -0.001  0.095333  -0.000358  1.021118  -0.001  0.117135  0.090522  -0.000663  1.025875  -0.002
H  H17  1  0.61713176  0.33350951  0.04904224  1  0.111245  -0.000111  0.923743  -0.001  0.126904  0.000149  0.97262  0.0  0.130155  9.3e-05  0.970189  0.0  0.115768  0.124044  0.000268  0.975306  0.0
H  H18  1  0.38279657  0.66658602  0.95090657  1  0.111309  -0.00011  0.923756  -0.001  0.126793  0.00015  0.972815  0.0  0.130061  9.3e-05  0.970351  0.0  0.115608  0.12394  0.00027  0.975501  0.0
H  H19  1  0.53988006  0.17576951  0.85983372  1  0.12655  -0.000369  0.924797  0.0  0.136094  -0.000402  0.980278  0.0  0.140557  -0.000258  0.977389  0.0  0.117271  0.132585  -0.000578  0.982766  -0.001
H  H20  1  0.46011237  0.82427121  0.14013300  1  0.12648  -0.00037  0.92483  0.0  0.136132  -0.000403  0.980156  0.0  0.140605  -0.000259  0.977269  0.0  0.117295  0.132617  -0.00058  0.982651  -0.001
H  H21  1  0.84790875  0.86960170  0.04848620  1  0.099682  0.000148  0.9437  0.0  0.110512  1e-05  1.003712  0.0  0.113671  1.2e-05  1.001785  0.0  0.105586  0.108339  1.6e-05  1.004952  0.0
H  H22  1  0.15202585  0.13046604  0.95146211  1  0.099181  0.000147  0.944125  0.0  0.110153  1e-05  1.004011  0.0  0.113316  1.3e-05  1.002084  0.0  0.105451  0.107973  1.6e-05  1.005257  0.0
H  H23  1  0.97097592  0.88915417  0.39194100  1  0.113492  -4.1e-05  0.959429  0.0  0.124487  -8.3e-05  1.01978  0.0  0.128691  1.5e-05  1.016514  0.0  0.111436  0.120908  -0.000188  1.022705  0.0
H  H24  1  0.02889739  0.11084211  0.60801191  1  0.113598  -4.3e-05  0.959533  0.0  0.124485  -8.3e-05  1.019956  0.0  0.128679  1.4e-05  1.016703  0.0  0.11146  0.120932  -0.000189  1.022856  0.0
H  H25  1  0.80608538  0.43545274  0.18447736  1  0.11232  0.000344  0.954606  0.0  0.118088  9.9e-05  1.025011  0.0  0.12214  0.000107  1.021333  0.0  0.10849  0.115115  9.4e-05  1.027642  0.0
H  H26  1  0.19396622  0.56457832  0.81541612  1  0.111997  0.00035  0.954613  0.0  0.117951  9.8e-05  1.024918  0.0  0.122078  0.000107  1.021143  0.0  0.108451  0.114969  9.3e-05  1.027573  0.0
C  C27  1  0.64576942  0.28312752  0.66914536  1  0.61695  0.021313  3.902394  0.015  0.570793  0.00671  4.203105  0.004  0.607275  0.003625  4.194913  0.002  0.211267  0.544166  0.012037  4.209413  0.007
C  C28  1  0.35440309  0.71677474  0.33081234  1  0.616782  0.02136  3.903456  0.015  0.570673  0.006712  4.204372  0.004  0.607143  0.003634  4.196219  0.002  0.211364  0.54406  0.012021  4.210625  0.007
C  C29  1  0.68286136  0.36878281  0.78418650  1  0.092911  0.0133  3.744302  0.007  0.098932  0.00314  3.985098  0.0  0.100673  0.0024  4.003012  0.001  0.108705  0.095835  0.006171  3.975758  0.001
C  C30  1  0.31720774  0.63121748  0.21574511  1  0.093003  0.013333  3.744266  0.007  0.098939  0.003154  3.985179  0.0  0.100694  0.002405  4.003079  0.001  0.10848  0.095833  0.006187  3.975844  0.001
C  C31  1  0.82891717  0.60465736  0.89660688  1  0.093792  0.021176  3.64975  0.013  0.059265  0.005649  3.908968  0.003  0.066643  0.004849  3.922995  0.003  0.053883  0.053052  0.006951  3.901843  0.003
C  C32  1  0.17107327  0.39538127  0.10332165  1  0.094094  0.021251  3.650098  0.013  0.059424  0.00567  3.90923  0.003  0.066745  0.004856  3.923284  0.003  0.054015  0.053253  0.006977  3.902123  0.003
C  C33  1  0.77316274  0.54352756  0.99175268  1  0.018434  -0.006301  3.761693  -0.01  0.033103  -0.001732  3.998434  -0.003  0.030588  -0.001877  4.02206  -0.003  0.002964  0.034112  -0.000778  3.98368  -0.003
C  C34  1  0.22680589  0.45655849  0.00818141  1  0.01784  -0.006319  3.761896  -0.01  0.032728  -0.001738  3.997787  -0.003  0.030201  -0.00188  4.021424  -0.003  0.002725  0.033754  -0.000787  3.983009  -0.003
C  C35  1  0.66642763  0.38606252  0.97812976  1  -0.052119  0.022452  3.67277  0.014  -0.077556  0.007497  3.923596  0.004  -0.075021  0.005037  3.939633  0.003  -0.064769  -0.080536  0.012408  3.91496  0.007
C  C36  1  0.33353684  0.61401882  0.02180776  1  -0.052207  0.022523  3.672948  0.014  -0.077649  0.007525  3.923705  0.004  -0.075109  0.005043  3.939717  0.003  -0.064748  -0.080638  0.012452  3.915071  0.007
C  C37  1  0.62213656  0.29786146  0.87387237  1  -0.088509  -0.006015  3.699332  -0.009  -0.110171  -0.001378  3.947018  -0.002  -0.113407  -0.001333  3.964748  -0.002  -0.067503  -0.108399  -0.001191  3.937222  -0.002
C  C38  1  0.37786043  0.70218526  0.12607413  1  -0.088211  -0.006034  3.69888  -0.009  -0.109945  -0.001385  3.946517  -0.002  -0.1132  -0.001336  3.964249  -0.002  -0.067331  -0.108167  -0.001199  3.936725  -0.002
C  C39  1  0.82659546  0.64037650  0.10100106  1  0.040196  0.002533  3.800819  0.002  0.056267  0.000503  4.041085  0.0  0.053184  0.000916  4.068945  0.001  -0.009285  0.05919  0.000233  4.021099  0.0
C  C40  1  0.17336777  0.35968334  0.89892520  1  0.039461  0.002545  3.801473  0.002  0.05635  0.000502  4.040469  0.0  0.053274  0.000915  4.068325  0.001  -0.009192  0.059268  0.000237  4.020486  0.0
C  C41  1  0.86517112  0.80758749  0.11677978  1  -0.11101  -0.002569  3.692624  -0.003  -0.143765  -0.001578  3.941091  -0.002  -0.144697  -0.001376  3.962076  -0.002  -0.078005  -0.142518  -0.001773  3.925973  -0.002
C  C42  1  0.13475445  0.19246853  0.88316464  1  -0.109937  -0.002565  3.692783  -0.003  -0.143098  -0.001574  3.940986  -0.002  -0.144029  -0.001374  3.961965  -0.002  -0.077831  -0.141855  -0.001768  3.92588  -0.002
C  C43  1  0.92089975  0.89749815  0.22069325  1  -0.046643  -0.000791  3.75266  -0.002  -0.022662  -0.000469  3.989818  -0.001  -0.029469  0.000185  4.011171  -0.001  -0.015933  -0.018607  -0.001087  3.97627  -0.002
C  C44  1  0.07899411  0.10253833  0.77926127  1  -0.047077  -0.000796  3.75302  -0.002  -0.023032  -0.000471  3.990316  -0.001  -0.029873  0.000184  4.011642  -0.001  -0.01596  -0.018948  -0.001086  3.976791  -0.002
C  C45  1  0.95109513  0.07611431  0.23940773  1  0.645709  0.00605  3.903342  0.004  0.59948  0.001513  4.205616  0.001  0.634519  0.000835  4.196426  0.0  0.208959  0.575007  0.002483  4.211178  0.001
C  C46  1  0.04882413  0.92393884  0.76063708  1  0.646121  0.006048  3.902975  0.004  0.599596  0.001505  4.205555  0.001  0.634712  0.000828  4.196246  0.0  0.209121  0.575065  0.002476  4.211206  0.001
C  C47  1  0.93042218  0.82018830  0.31062426  1  -0.065591  -0.001565  3.663421  -0.002  -0.100512  -0.00084  3.90509  -0.001  -0.098098  -0.000865  3.921969  -0.001  -0.077831  -0.102924  -0.00067  3.895725  -0.001
C  C48  1  0.06946274  0.17981492  0.68931595  1  -0.065559  -0.00156  3.66425  -0.002  -0.100463  -0.000838  3.905985  -0.001  -0.098032  -0.000863  3.922866  -0.001  -0.077859  -0.102904  -0.000668  3.896636  -0.001
C  C49  1  0.88247830  0.65416769  0.29677995  1  -0.067749  0.000893  3.784096  -0.001  -0.046582  0.000505  4.027091  -0.001  -0.054368  0.001179  4.048424  0.0  -0.019683  -0.04201  -0.000271  4.013844  -0.001
C  C50  1  0.11747919  0.34582992  0.70314340  1  -0.068529  0.000902  3.785048  -0.001  -0.047356  0.000508  4.028334  0.0  -0.055168  0.001179  4.049663  0.0  -0.020036  -0.042762  -0.000264  4.015103  -0.001
C  C51  1  0.86928683  0.57149532  0.39413294  1  0.675824  -0.00087  3.83631  -0.001  0.625947  -0.006435  4.134716  -0.008  0.663393  -0.004723  4.125322  -0.006  0.225524  0.599417  -0.008227  4.140007  -0.009
C  C52  1  0.13084970  0.42850898  0.60580133  1  0.676792  -0.000833  3.835766  -0.001  0.626681  -0.006412  4.134385  -0.008  0.66415  -0.004705  4.124909  -0.006  0.225701  0.600128  -0.008193  4.139767  -0.009
C  C53  1  0.83532467  0.56473078  0.19257427  1  -0.099821  -0.003128  3.683395  -0.004  -0.137983  -0.002238  3.940631  -0.003  -0.137758  -0.00179  3.960102  -0.002  -0.079548  -0.137668  -0.002651  3.927057  -0.004
C  C54  1  0.16466494  0.43530079  0.80733573  1  -0.098653  -0.00314  3.683436  -0.004  -0.137367  -0.002236  3.940509  -0.003  -0.137174  -0.001788  3.959921  -0.002  -0.07924  -0.137064  -0.002652  3.92695  -0.004
N  N55  1  0.78396328  0.52040800  0.79602239  1  -0.328165  -0.039927  3.377179  -0.073  -0.289088  -0.028432  3.662336  -0.047  -0.309219  -0.023397  3.677384  -0.039  -0.325357  -0.275535  -0.032094  3.65372  -0.052
N  N56  1  0.21608907  0.47960368  0.20389480  1  -0.328295  -0.039929  3.378133  -0.073  -0.288983  -0.028418  3.66314  -0.047  -0.309103  -0.023387  3.678171  -0.039  -0.32541  -0.275438  -0.032075  3.654536  -0.052
O  O57  1  0.71766369  0.35971229  0.59474464  1  -0.624874  -0.036475  2.115978  -0.071  -0.585175  -0.028115  2.38307  -0.051  -0.617923  -0.021431  2.37179  -0.04  -0.304847  -0.561103  -0.034893  2.390187  -0.062
O  O58  1  0.28289097  0.64008026  0.40522916  1  -0.624519  -0.036639  2.115782  -0.071  -0.585055  -0.028178  2.3832  -0.052  -0.617824  -0.021468  2.371979  -0.04  -0.305255  -0.560949  -0.034994  2.390287  -0.062
O  O59  1  0.54883958  0.14184388  0.65206814  1  -0.595103  -0.030919  2.065674  -0.063  -0.558761  -0.022878  2.323489  -0.042  -0.589644  -0.017951  2.310368  -0.033  -0.305633  -0.536284  -0.027914  2.332625  -0.051
O  O60  1  0.45108802  0.85815318  0.34788922  1  -0.594855  -0.031079  2.065558  -0.064  -0.558704  -0.022957  2.323624  -0.042  -0.589626  -0.018004  2.310511  -0.033  -0.305589  -0.536185  -0.028026  2.332743  -0.051
O  O61  1  0.91436191  0.43879450  0.38979519  1  -0.62431  -0.032757  2.13942  -0.057  -0.589865  -0.024757  2.426493  -0.038  -0.623231  -0.01794  2.412283  -0.028  -0.304621  -0.563463  -0.032568  2.434302  -0.05
O  O62  1  0.08597774  0.56132493  0.61016561  1  -0.625205  -0.032716  2.139286  -0.057  -0.590562  -0.024731  2.426267  -0.038  -0.624017  -0.017923  2.412168  -0.028  -0.304693  -0.564153  -0.032521  2.434102  -0.05
O  O63  1  0.79916771  0.63704780  0.47694531  1  -0.64168  -0.026606  2.074047  -0.048  -0.586793  -0.022643  2.318368  -0.037  -0.618732  -0.017292  2.305359  -0.029  -0.298367  -0.562957  -0.028584  2.32679  -0.046
O  O64  1  0.20088114  0.36290015  0.52300354  1  -0.64152  -0.026493  2.074303  -0.048  -0.58654  -0.022569  2.318608  -0.037  -0.618428  -0.017241  2.305574  -0.029  -0.298205  -0.562759  -0.028474  2.327071  -0.046
O  O65  1  0.09728982  0.15551455  0.30059738  1  -0.653347  -0.02926  2.077544  -0.054  -0.605237  -0.022874  2.335981  -0.037  -0.638753  -0.017955  2.321368  -0.029  -0.317723  -0.580166  -0.02791  2.344815  -0.044
O  O66  1  0.90277621  0.84444962  0.69936409  1  -0.653536  -0.029232  2.077758  -0.054  -0.605356  -0.022875  2.336207  -0.037  -0.638908  -0.017954  2.32155  -0.029  -0.317642  -0.580292  -0.027913  2.345074  -0.044
O  O67  1  0.83101756  0.13603554  0.19858431  1  -0.619372  0.000979  1.867737  0.0  -0.580839  4e-06  2.082972  0.0  -0.602624  0.000209  2.071879  0.0  -0.328726  -0.564878  -0.000179  2.089815  -0.001
O  O68  1  0.16880203  0.86408418  0.80163754  1  -0.6199  0.001  1.867376  0.0  -0.581019  1.1e-05  2.082735  0.0  -0.602846  0.000213  2.071649  0.0  -0.329097  -0.565038  -0.000168  2.089599  -0.001
O  O69  1  0.54428408  0.61130140  0.64689672  1  -0.806261  -0.022301  1.912132  -0.038  -0.768917  -0.021683  2.108919  -0.034  -0.79402  -0.016981  2.080721  -0.027  -0.575377  -0.74892  -0.026388  2.128373  -0.041
O  O70  1  0.45579689  0.38846646  0.35291446  1  -0.805854  -0.022338  1.911772  -0.038  -0.768492  -0.021711  2.108767  -0.034  -0.793628  -0.017003  2.080531  -0.027  -0.574994  -0.748444  -0.026427  2.12822  -0.041
O  O71  1  0.73574821  0.92528657  0.52935618  1  -0.841321  -0.032734  1.973076  -0.057  -0.81275  -0.02807  2.197186  -0.043  -0.840942  -0.021742  2.161315  -0.034  -0.57916  -0.789336  -0.035168  2.220996  -0.054
O  O72  1  0.26399746  0.07451980  0.47065472  1  -0.841061  -0.032776  1.972873  -0.057  -0.812731  -0.028097  2.197097  -0.043  -0.840978  -0.021762  2.161476  -0.034  -0.579234  -0.789367  -0.035203  2.220995  -0.054
O  O73  1  0.63630953  0.16665025  0.39781198  1  -0.825167  -0.022099  1.98418  -0.039  -0.776909  -0.020668  2.198288  -0.033  -0.802702  -0.016052  2.165727  -0.027  -0.547649  -0.757013  -0.025518  2.217229  -0.04
O  O74  1  0.36347895  0.83339514  0.60253337  1  -0.825577  -0.021992  1.98213  -0.039  -0.777507  -0.020606  2.19596  -0.033  -0.803217  -0.016008  2.164091  -0.027  -0.547488  -0.757665  -0.025439  2.214901  -0.04
