# generated using pymatgen
data_ScH6C7(NO4)2
_symmetry_space_group_name_H-M   'P 1'
_cell_length_a   10.63178437
_cell_length_b   10.63241004
_cell_length_c   11.97693337
_cell_angle_alpha   112.85285064
_cell_angle_beta   105.07837780
_cell_angle_gamma   105.63809322
_symmetry_Int_Tables_number   1
_chemical_formula_structural   ScH6C7(NO4)2
_chemical_formula_sum   'Sc4 H24 C28 N8 O32'
_cell_volume   1095.20396508
_cell_formula_units_Z   4
loop_
 _symmetry_equiv_pos_site_id
 _symmetry_equiv_pos_as_xyz
  1  'x, y, z'
loop_
 _atom_site_type_symbol
 _atom_site_label
 _atom_site_symmetry_multiplicity
 _atom_site_fract_x
 _atom_site_fract_y
 _atom_site_fract_z
 _atom_site_occupancy
 _atom_site_hle17_bader_spin_density
 _atom_site_hle17_ddec_charge
 _atom_site_hle17_ddec_spin_density
 _atom_site_hle17_ddec_sum_bond_order
 _atom_site_hle17_magmom
 _atom_site_hse06_10hf_bader_spin_density
 _atom_site_hse06_10hf_ddec_charge
 _atom_site_hse06_10hf_ddec_spin_density
 _atom_site_hse06_10hf_ddec_sum_bond_order
 _atom_site_hse06_10hf_magmom
 _atom_site_hse06_bader_spin_density
 _atom_site_hse06_ddec_charge
 _atom_site_hse06_ddec_spin_density
 _atom_site_hse06_ddec_sum_bond_order
 _atom_site_hse06_magmom
 _atom_site_pbe_bader_spin_density
 _atom_site_pbe_cm5_charge
 _atom_site_pbe_ddec_charge
 _atom_site_pbe_ddec_spin_density
 _atom_site_pbe_ddec_sum_bond_order
 _atom_site_pbe_magmom
Sc  Sc0  1  0.91955254  0.78087013  0.22643395  1  0  1.823074  0  1.691515  0  0  1.718172  0  2.081437  0  0  1.82708  0  1.991131  0  0  1.171841  1.640419  0  2.142654  0
Sc  Sc1  1  0.55473133  0.19281788  0.27376794  1  0  1.822536  0  1.691829  0  0  1.718027  0  2.081035  0  0  1.826838  0  1.990974  0  0  1.172004  1.640314  0  2.142161  0
Sc  Sc2  1  0.08044912  0.21913428  0.77356413  1  0  1.822948  0  1.691669  0  0  1.718141  0  2.081391  0  0  1.827118  0  1.990938  0  0  1.171899  1.640369  0  2.142603  0
Sc  Sc3  1  0.44526151  0.80717101  0.72622469  1  0  1.822528  0  1.691836  0  0  1.717979  0  2.081076  0  0  1.826818  0  1.990962  0  0  1.172012  1.640243  0  2.142216  0
H  H4  1  0.79165973  0.45089918  0.24283820  1  0  0.103822  0  0.924465  0  0  0.104595  0  0.989713  0  0  0.109016  0  0.982843  0  0  0.147315  0.101177  0  0.995077  0
H  H5  1  0.20879386  0.04855157  0.25717503  1  0  0.104168  0  0.924689  0  0  0.104162  0  0.990401  0  0  0.108564  0  0.983602  0  0  0.147117  0.100764  0  0.995713  0
H  H6  1  0.20834457  0.54910086  0.75716919  1  0  0.103844  0  0.924502  0  0  0.104695  0  0.989659  0  0  0.109118  0  0.982788  0  0  0.147325  0.101267  0  0.995025  0
H  H7  1  0.79121597  0.95145337  0.74282111  1  0  0.104139  0  0.924681  0  0  0.104106  0  0.990465  0  0  0.108507  0  0.983668  0  0  0.147103  0.100697  0  0.995769  0
H  H8  1  0.37002181  0.55302940  0.13269777  1  0  0.121104  0  0.96978  0  0  0.125173  0  1.040697  0  0  0.130006  0  1.037713  0  0  0.116572  0.121736  0  1.042955  0
H  H9  1  0.42069718  0.73657211  0.36674435  1  0  0.121287  0  0.970377  0  0  0.125629  0  1.04106  0  0  0.130345  0  1.038226  0  0  0.116414  0.122289  0  1.043184  0
H  H10  1  0.62998864  0.44698824  0.86733594  1  0  0.12105  0  0.9699  0  0  0.125168  0  1.040759  0  0  0.130002  0  1.037776  0  0  0.116531  0.121729  0  1.043029  0
H  H11  1  0.57930015  0.26342196  0.63324269  1  0  0.12128  0  0.970321  0  0  0.125617  0  1.040999  0  0  0.130333  0  1.038167  0  0  0.116421  0.122272  0  1.043144  0
H  H12  1  0.83757032  0.62051568  0.94460994  1  0  0.438757  0  0.867764  0  0  0.404272  0  0.936572  0  0  0.417064  0  0.918278  0  0  0.297966  0.395164  0  0.949573  0
H  H13  1  0.67579131  0.39331106  0.55567622  1  0  0.438603  0  0.868002  0  0  0.404322  0  0.936398  0  0  0.417113  0  0.918106  0  0  0.297938  0.39524  0  0.949348  0
H  H14  1  0.16242555  0.37948214  0.05538376  1  0  0.438593  0  0.867973  0  0  0.404119  0  0.936751  0  0  0.416915  0  0.918453  0  0  0.297946  0.39501  0  0.949748  0
H  H15  1  0.32420233  0.60669247  0.44431454  1  0  0.438504  0  0.868143  0  0  0.404215  0  0.936551  0  0  0.417005  0  0.918261  0  0  0.29787  0.395128  0  0.94951  0
H  H16  1  0.86635031  0.51239252  0.00794805  1  0  0.449613  0  0.795693  0  0  0.433062  0  0.845737  0  0  0.44239  0  0.835737  0  0  0.336097  0.426226  0  0.853141  0
H  H17  1  0.50427111  0.35842660  0.49175532  1  0  0.449975  0  0.794992  0  0  0.433474  0  0.845034  0  0  0.442801  0  0.835104  0  0  0.336398  0.426642  0  0.852447  0
H  H18  1  0.13366476  0.48761331  0.99205053  1  0  0.449531  0  0.795651  0  0  0.43299  0  0.845692  0  0  0.442315  0  0.8358  0  0  0.33612  0.426152  0  0.853092  0
H  H19  1  0.49572531  0.64157931  0.50824357  1  0  0.45007  0  0.794942  0  0  0.433568  0  0.844983  0  0  0.442895  0  0.834996  0  0  0.33639  0.426735  0  0.852399  0
H  H20  1  0.91343538  0.85481838  0.01412151  1  0  0.435346  0  0.847474  0  0  0.409171  0  0.905285  0  0  0.420171  0  0.889338  0  0  0.312521  0.401322  0  0.916662  0
H  H21  1  0.84079878  0.39986460  0.48656909  1  0  0.434888  0  0.848373  0  0  0.408627  0  0.905965  0  0  0.41967  0  0.889973  0  0  0.312368  0.400758  0  0.91736  0
H  H22  1  0.08656502  0.14519405  0.98587626  1  0  0.435322  0  0.847403  0  0  0.409126  0  0.905336  0  0  0.420128  0  0.889386  0  0  0.312516  0.401272  0  0.916722  0
H  H23  1  0.15920022  0.60012993  0.51343356  1  0  0.434901  0  0.848345  0  0  0.408632  0  0.905949  0  0  0.419675  0  0.889958  0  0  0.312393  0.400757  0  0.917357  0
H  H24  1  0.92670751  0.98724747  0.14137057  1  0  0.451166  0  0.782516  0  0  0.433865  0  0.834048  0  0  0.444057  0  0.822789  0  0  0.339817  0.426426  0  0.84245  0
H  H25  1  0.84639428  0.28531644  0.35992814  1  0  0.450998  0  0.782974  0  0  0.43384  0  0.834272  0  0  0.444028  0  0.823018  0  0  0.340016  0.426423  0  0.842629  0
H  H26  1  0.07328071  0.01275562  0.85862953  1  0  0.451197  0  0.782387  0  0  0.43391  0  0.833898  0  0  0.4441  0  0.822646  0  0  0.339897  0.426464  0  0.842311  0
H  H27  1  0.15360874  0.71468452  0.64007086  1  0  0.451014  0  0.782969  0  0  0.433856  0  0.834265  0  0  0.444043  0  0.823012  0  0  0.340029  0.426437  0  0.842621  0
C  C28  1  0.69724485  0.47351795  0.21925217  1  0  0.383764  0  3.574364  0  0  0.338039  0  3.843921  0  0  0.35766  0  3.85062  0  0  0.221547  0.324783  0  3.839663  0
C  C29  1  0.25490894  0.97769982  0.28078460  1  0  0.381106  0  3.578208  0  0  0.336738  0  3.846295  0  0  0.356342  0  3.85304  0  0  0.22103  0.323466  0  3.842039  0
C  C30  1  0.30275847  0.52648221  0.78075668  1  0  0.383591  0  3.574621  0  0  0.3378  0  3.844143  0  0  0.35741  0  3.850863  0  0  0.221452  0.324548  0  3.839859  0
C  C31  1  0.74508880  0.02229321  0.71920556  1  0  0.381251  0  3.578084  0  0  0.3368  0  3.846316  0  0  0.356394  0  3.853086  0  0  0.221039  0.323545  0  3.842016  0
C  C32  1  0.46251181  0.41766099  0.19237544  1  0  0.155309  0  3.713739  0  0  0.154677  0  3.961171  0  0  0.162324  0  3.977512  0  0  0.138886  0.149333  0  3.95053  0
C  C33  1  0.22572958  0.76965424  0.30733735  1  0  0.155011  0  3.712555  0  0  0.154363  0  3.960286  0  0  0.162068  0  3.97658  0  0  0.139226  0.149017  0  3.949619  0
C  C34  1  0.53749290  0.58234039  0.80763833  1  0  0.155222  0  3.713963  0  0  0.154592  0  3.961402  0  0  0.162246  0  3.977739  0  0  0.138839  0.149247  0  3.950752  0
C  C35  1  0.77426488  0.23033766  0.69264744  1  0  0.154836  0  3.712768  0  0  0.154154  0  3.960613  0  0  0.161857  0  3.976909  0  0  0.139039  0.148802  0  3.949953  0
C  C36  1  0.46294644  0.52932498  0.15963216  1  0  -0.163835  0  3.678423  0  0  -0.193924  0  3.931237  0  0  -0.202638  0  3.948309  0  0  -0.066092  -0.188564  0  3.920616  0
C  C37  1  0.37015008  0.80271993  0.34002707  1  0  -0.16553  0  3.682472  0  0  -0.195672  0  3.934253  0  0  -0.204268  0  3.9514  0  0  -0.066174  -0.190406  0  3.923561  0
C  C38  1  0.53706313  0.47069013  0.84039301  1  0  -0.163768  0  3.678518  0  0  -0.193827  0  3.931317  0  0  -0.202545  0  3.948387  0  0  -0.066038  -0.18847  0  3.920698  0
C  C39  1  0.62985451  0.19727938  0.65996095  1  0  -0.165304  0  3.681959  0  0  -0.195464  0  3.933723  0  0  -0.204065  0  3.950842  0  0  -0.066072  -0.190207  0  3.923051  0
C  C40  1  0.58984628  0.61287896  0.16157509  1  0  0.165703  0  3.720347  0  0  0.163982  0  3.967481  0  0  0.171962  0  3.983868  0  0  0.14148  0.158096  0  3.957097  0
C  C41  1  0.45190778  0.92788307  0.33844647  1  0  0.167028  0  3.721203  0  0  0.165571  0  3.968147  0  0  0.173399  0  3.984797  0  0  0.142823  0.159775  0  3.957585  0
C  C42  1  0.41015893  0.38713304  0.83845051  1  0  0.165854  0  3.719997  0  0  0.163954  0  3.967408  0  0  0.171938  0  3.983792  0  0  0.141579  0.158058  0  3.957022  0
C  C43  1  0.54809469  0.07210975  0.66154649  1  0  0.167085  0  3.720818  0  0  0.165767  0  3.967574  0  0  0.173638  0  3.984157  0  0  0.14283  0.159968  0  3.957023  0
C  C44  1  0.60424211  0.73735793  0.12725779  1  0  0.615905  0  3.951269  0  0  0.570511  0  4.254521  0  0  0.603137  0  4.248796  0  0  0.209813  0.548209  0  4.257559  0
C  C45  1  0.61076516  0.97678762  0.37297581  1  0  0.61613  0  3.951436  0  0  0.56966  0  4.256566  0  0  0.602349  0  4.250857  0  0  0.209366  0.547338  0  4.259556  0
C  C46  1  0.39575694  0.26265079  0.87276020  1  0  0.615901  0  3.951345  0  0  0.570411  0  4.254827  0  0  0.603036  0  4.249106  0  0  0.2098  0.548112  0  4.257869  0
C  C47  1  0.38924544  0.02321296  0.62702666  1  0  0.616198  0  3.951464  0  0  0.569627  0  4.256654  0  0  0.602306  0  4.250946  0  0  0.209376  0.547294  0  4.259659  0
C  C48  1  0.33465336  0.31826694  0.19766292  1  0  0.643347  0  3.887223  0  0  0.588926  0  4.192728  0  0  0.624056  0  4.182265  0  0  0.232159  0.564911  0  4.199311  0
C  C49  1  0.12092707  0.63646565  0.30191315  1  0  0.643868  0  3.883969  0  0  0.588967  0  4.190327  0  0  0.624043  0  4.179895  0  0  0.231573  0.564981  0  4.196891  0
C  C50  1  0.66533154  0.68172798  0.80232542  1  0  0.643614  0  3.886816  0  0  0.589143  0  4.192439  0  0  0.62426  0  4.181995  0  0  0.232244  0.565131  0  4.199007  0
C  C51  1  0.87907679  0.36352601  0.69808147  1  0  0.644033  0  3.883858  0  0  0.589064  0  4.190363  0  0  0.624149  0  4.179918  0  0  0.231579  0.565066  0  4.196944  0
C  C52  1  0.01768830  0.06287995  0.48274573  1  0  0.575241  0  3.915507  0  0  0.528804  0  4.227446  0  0  0.562396  0  4.218475  0  0  0.223823  0.505301  0  4.233872  0
C  C53  1  0.58014906  0.03484390  0.01727606  1  0  0.574249  0  3.917527  0  0  0.52762  0  4.230069  0  0  0.561204  0  4.221118  0  0  0.224258  0.504123  0  4.236459  0
C  C54  1  0.98231822  0.93713347  0.51725892  1  0  0.574999  0  3.915487  0  0  0.528686  0  4.227304  0  0  0.562191  0  4.218435  0  0  0.223817  0.505195  0  4.23372  0
C  C55  1  0.41983514  0.96513613  0.98270741  1  0  0.574651  0  3.917041  0  0  0.527885  0  4.229754  0  0  0.561469  0  4.220799  0  0  0.224258  0.504381  0  4.236158  0
N  N56  1  0.70661851  0.58536534  0.19150387  1  0  -0.399534  0  3.155484  0  0  -0.354703  0  3.418788  0  0  -0.379421  0  3.435925  0  0  -0.32701  -0.337839  0  3.407415  0
N  N57  1  0.39454224  0.01482375  0.30864915  1  0  -0.397941  0  3.156886  0  0  -0.353289  0  3.418982  0  0  -0.378002  0  3.436268  0  0  -0.327193  -0.336411  0  3.407504  0
N  N58  1  0.29338582  0.41464178  0.80851077  1  0  -0.399651  0  3.155661  0  0  -0.354711  0  3.418954  0  0  -0.379433  0  3.436089  0  0  -0.327132  -0.337849  0  3.407568  0
N  N59  1  0.60546320  0.98517340  0.69134342  1  0  -0.398079  0  3.157098  0  0  -0.353367  0  3.419107  0  0  -0.378095  0  3.436383  0  0  -0.327139  -0.336499  0  3.407622  0
N  N60  1  0.57998564  0.39037854  0.22232739  1  0  -0.409134  0  3.169184  0  0  -0.363905  0  3.431397  0  0  -0.391271  0  3.451784  0  0  -0.338292  -0.345136  0  3.417473  0
N  N61  1  0.16861448  0.85735111  0.27761347  1  0  -0.407625  0  3.168129  0  0  -0.362653  0  3.429845  0  0  -0.390034  0  3.45023  0  0  -0.338167  -0.343892  0  3.415929  0
N  N62  1  0.42001870  0.60962377  0.77767989  1  0  -0.409021  0  3.169191  0  0  -0.363794  0  3.431411  0  0  -0.391163  0  3.4518  0  0  -0.338203  -0.345021  0  3.417461  0
N  N63  1  0.83138723  0.14264843  0.72237557  1  0  -0.407692  0  3.16799  0  0  -0.362693  0  3.429741  0  0  -0.390081  0  3.45013  0  0  -0.338188  -0.343931  0  3.415799  0
O  O64  1  0.73229910  0.80855435  0.14317012  1  0  -0.692221  0  2.03769  0  0  -0.655619  0  2.298169  0  0  -0.692672  0  2.291543  0  0  -0.378015  -0.628885  0  2.30211  0
O  O65  1  0.66596883  0.08896568  0.35707245  1  0  -0.692354  0  2.036767  0  0  -0.655421  0  2.297402  0  0  -0.692438  0  2.290732  0  0  -0.378166  -0.628728  0  2.301375  0
O  O66  1  0.26769998  0.19145427  0.85684534  1  0  -0.692103  0  2.037811  0  0  -0.655531  0  2.298442  0  0  -0.692594  0  2.291817  0  0  -0.378001  -0.628768  0  2.302299  0
O  O67  1  0.33404508  0.91103597  0.64293370  1  0  -0.692398  0  2.03675  0  0  -0.655455  0  2.297459  0  0  -0.692478  0  2.290793  0  0  -0.378202  -0.628757  0  2.301433  0
O  O68  1  0.49628775  0.75869664  0.08605375  1  0  -0.548831  0  1.883284  0  0  -0.512101  0  2.097258  0  0  -0.534339  0  2.09247  0  0  -0.297503  -0.495772  0  2.10016  0
O  O69  1  0.67339558  0.91019864  0.41430746  1  0  -0.549228  0  1.885592  0  0  -0.512105  0  2.100342  0  0  -0.534288  0  2.095362  0  0  -0.297084  -0.495794  0  2.103301  0
O  O70  1  0.50371274  0.24130601  0.91395601  1  0  -0.548917  0  1.883257  0  0  -0.51211  0  2.097301  0  0  -0.534355  0  2.09252  0  0  -0.297513  -0.49579  0  2.100199  0
O  O71  1  0.32661684  0.08980443  0.58570378  1  0  -0.549253  0  1.88563  0  0  -0.512092  0  2.100382  0  0  -0.534281  0  2.095417  0  0  -0.297056  -0.495789  0  2.103362  0
O  O72  1  0.36195396  0.24406808  0.25452359  1  0  -0.635675  0  2.063909  0  0  -0.592259  0  2.315181  0  0  -0.625955  0  2.306389  0  0  -0.332648  -0.568398  0  2.320648  0
O  O73  1  0.98988508  0.60728306  0.24546644  1  0  -0.63672  0  2.062809  0  0  -0.592848  0  2.314287  0  0  -0.626566  0  2.305498  0  0  -0.332869  -0.568974  0  2.319753  0
O  O74  1  0.63803774  0.75591420  0.74547252  1  0  -0.635689  0  2.064303  0  0  -0.592208  0  2.31558  0  0  -0.625896  0  2.306789  0  0  -0.332647  -0.568348  0  2.321036  0
O  O75  1  0.01011500  0.39271350  0.75453127  1  0  -0.636782  0  2.062976  0  0  -0.59289  0  2.314493  0  0  -0.626621  0  2.305696  0  0  -0.332883  -0.569008  0  2.31996  0
O  O76  1  0.21281429  0.31479538  0.14729489  1  0  -0.585684  0  1.999139  0  0  -0.532037  0  2.213293  0  0  -0.555224  0  2.199247  0  0  -0.294649  -0.515639  0  2.222718  0
O  O77  1  0.16770426  0.56460066  0.35182503  1  0  -0.584839  0  1.996514  0  0  -0.531621  0  2.211151  0  0  -0.554758  0  2.197107  0  0  -0.294204  -0.515276  0  2.220577  0
O  O78  1  0.78718661  0.68518715  0.85269360  1  0  -0.585904  0  1.998362  0  0  -0.532306  0  2.21263  0  0  -0.555486  0  2.198589  0  0  -0.294714  -0.515909  0  2.222052  0
O  O79  1  0.83229931  0.43539650  0.64816456  1  0  -0.5849  0  1.996272  0  0  -0.531662  0  2.210958  0  0  -0.554805  0  2.19691  0  0  -0.294156  -0.515311  0  2.220385  0
O  O80  1  0.00152787  0.02397335  0.36388429  1  0  -0.612112  0  2.017374  0  0  -0.574867  0  2.26226  0  0  -0.608174  0  2.252269  0  0  -0.337533  -0.551413  0  2.269252  0
O  O81  1  0.66019474  0.13729002  0.13625121  1  0  -0.611779  0  2.019341  0  0  -0.574243  0  2.264  0  0  -0.607564  0  2.254044  0  0  -0.337688  -0.550786  0  2.270981  0
O  O82  1  0.99847764  0.97602836  0.63610890  1  0  -0.611913  0  2.01753  0  0  -0.574707  0  2.262338  0  0  -0.607993  0  2.252387  0  0  -0.33748  -0.551256  0  2.269316  0
O  O83  1  0.33978936  0.86269741  0.86374794  1  0  -0.611824  0  2.019634  0  0  -0.574242  0  2.264376  0  0  -0.607561  0  2.254414  0  0  -0.337571  -0.550778  0  2.271351  0
O  O84  1  0.05934734  0.19431452  0.57669690  1  0  -0.60981  0  2.032117  0  0  -0.575105  0  2.277184  0  0  -0.60881  0  2.269651  0  0  -0.338001  -0.551338  0  2.282033  0
O  O85  1  0.61755006  0.98274450  0.92325849  1  0  -0.609216  0  2.033567  0  0  -0.574466  0  2.27863  0  0  -0.608134  0  2.271119  0  0  -0.338143  -0.55071  0  2.283462  0
O  O86  1  0.94065101  0.80568648  0.42329508  1  0  -0.609881  0  2.03193  0  0  -0.575205  0  2.276975  0  0  -0.608888  0  2.269495  0  0  -0.338076  -0.55144  0  2.28182  0
O  O87  1  0.38243325  0.01724735  0.07673600  1  0  -0.60947  0  2.032905  0  0  -0.574694  0  2.278047  0  0  -0.608362  0  2.270533  0  0  -0.338218  -0.550942  0  2.282897  0
O  O88  1  0.88796983  0.61486021  0.02608018  1  0  -0.888847  0  1.889354  0  0  -0.845963  0  2.089485  0  0  -0.874753  0  2.059486  0  0  -0.60883  -0.825538  0  2.110439  0
O  O89  1  0.58874159  0.36178140  0.47391740  1  0  -0.889799  0  1.889364  0  0  -0.84702  0  2.089718  0  0  -0.875805  0  2.059814  0  0  -0.609194  -0.826615  0  2.110676  0
O  O90  1  0.11202188  0.38514824  0.97391749  1  0  -0.888596  0  1.889454  0  0  -0.84572  0  2.089531  0  0  -0.874517  0  2.05962  0  0  -0.608829  -0.825302  0  2.110481  0
O  O91  1  0.41125488  0.63822203  0.52607571  1  0  -0.889806  0  1.889445  0  0  -0.847008  0  2.089784  0  0  -0.875798  0  2.05982  0  0  -0.609112  -0.826603  0  2.110749  0
O  O92  1  0.96773770  0.91521988  0.11158221  1  0  -0.816071  0  1.847288  0  0  -0.772522  0  2.027372  0  0  -0.797759  0  1.998259  0  0  -0.571567  -0.754346  0  2.047608  0
O  O93  1  0.80400091  0.35615274  0.38906064  1  0  -0.815172  0  1.847985  0  0  -0.77184  0  2.028002  0  0  -0.797127  0  1.99878  0  0  -0.571368  -0.753649  0  2.048322  0
O  O94  1  0.03225494  0.08478619  0.88841411  1  0  -0.816061  0  1.847067  0  0  -0.772534  0  2.027222  0  0  -0.797782  0  1.998118  0  0  -0.571651  -0.754362  0  2.047465  0
O  O95  1  0.19600060  0.64384730  0.61094187  1  0  -0.815184  0  1.848019  0  0  -0.771857  0  2.028069  0  0  -0.797148  0  1.998846  0  0  -0.571399  -0.753664  0  2.048397  0
