# generated using pymatgen
data_ZnH18C13NO5
_symmetry_space_group_name_H-M   'P 1'
_cell_length_a   8.20197396
_cell_length_b   9.41250799
_cell_length_c   10.68396433
_cell_angle_alpha   75.21388902
_cell_angle_beta   89.99119393
_cell_angle_gamma   69.74172192
_symmetry_Int_Tables_number   1
_chemical_formula_structural   ZnH18C13NO5
_chemical_formula_sum   'Zn2 H36 C26 N2 O10'
_cell_volume   744.62204567
_cell_formula_units_Z   2
loop_
 _symmetry_equiv_pos_site_id
 _symmetry_equiv_pos_as_xyz
  1  'x, y, z'
loop_
 _atom_site_type_symbol
 _atom_site_label
 _atom_site_symmetry_multiplicity
 _atom_site_fract_x
 _atom_site_fract_y
 _atom_site_fract_z
 _atom_site_occupancy
 _atom_site_hle17_bader_spin_density
 _atom_site_hle17_ddec_charge
 _atom_site_hle17_ddec_spin_density
 _atom_site_hle17_ddec_sum_bond_order
 _atom_site_hle17_magmom
 _atom_site_hse06_10hf_bader_spin_density
 _atom_site_hse06_10hf_ddec_charge
 _atom_site_hse06_10hf_ddec_spin_density
 _atom_site_hse06_10hf_ddec_sum_bond_order
 _atom_site_hse06_10hf_magmom
 _atom_site_hse06_bader_spin_density
 _atom_site_hse06_ddec_charge
 _atom_site_hse06_ddec_spin_density
 _atom_site_hse06_ddec_sum_bond_order
 _atom_site_hse06_magmom
 _atom_site_pbe_bader_spin_density
 _atom_site_pbe_cm5_charge
 _atom_site_pbe_ddec_charge
 _atom_site_pbe_ddec_spin_density
 _atom_site_pbe_ddec_sum_bond_order
 _atom_site_pbe_magmom
Zn  Zn0  1  0.63828136  0.14844619  0.66428792  1  0  1.082167  0  1.772792  0  0  0.893281  0  2.248629  0  0  0.942063  0  2.189319  0  0  0.685863  0.858892  0  2.289787  0
Zn  Zn1  1  0.36171749  0.85155445  0.33571232  1  0  1.082224  0  1.772688  0  0  0.89335  0  2.248515  0  0  0.942128  0  2.189206  0  0  0.685877  0.858959  0  2.289671  0
H  H2  1  0.54665684  0.34067502  0.42846426  1  0  0.428362  0  0.880698  0  0  0.396195  0  0.945878  0  0  0.407863  0  0.929392  0  0  0.287847  0.387858  0  0.957649  0
H  H3  1  0.45334458  0.65932208  0.57153582  1  0  0.42834  0  0.880723  0  0  0.396169  0  0.945908  0  0  0.407837  0  0.929423  0  0  0.287842  0.387832  0  0.957679  0
H  H4  1  0.48445938  0.19095146  0.44392612  1  0  0.430907  0  0.878207  0  0  0.396159  0  0.94876  0  0  0.407594  0  0.932197  0  0  0.290947  0.38797  0  0.960622  0
H  H5  1  0.51553950  0.80904917  0.55607599  1  0  0.430913  0  0.878198  0  0  0.396163  0  0.948759  0  0  0.407598  0  0.932194  0  0  0.290961  0.387973  0  0.960621  0
H  H6  1  0.79317557  0.60793887  0.55531340  1  0  0.070054  0  0.941932  0  0  0.086513  0  1.005586  0  0  0.087786  0  1.005313  0  0  0.092688  0.085346  0  1.006062  0
H  H7  1  0.20682496  0.39206057  0.44468710  1  0  0.070011  0  0.941948  0  0  0.086468  0  1.005614  0  0  0.087741  0  1.005341  0  0  0.092681  0.085302  0  1.006089  0
H  H8  1  0.97590968  0.45443965  0.65003490  1  0  0.074609  0  0.93035  0  0  0.093852  0  0.989145  0  0  0.094523  0  0.99052  0  0  0.093141  0.093644  0  0.987836  0
H  H9  1  0.02409254  0.54555861  0.34996679  1  0  0.07458  0  0.930301  0  0  0.093823  0  0.989106  0  0  0.094493  0  0.990482  0  0  0.093113  0.093615  0  0.987796  0
H  H10  1  0.89158642  0.17480992  0.94582132  1  0  0.094684  0  0.950323  0  0  0.109854  0  1.013384  0  0  0.11131  0  1.012912  0  0  0.097083  0.10887  0  1.013614  0
H  H11  1  0.10841241  0.82519072  0.05417799  1  0  0.094667  0  0.950358  0  0  0.109849  0  1.013408  0  0  0.111305  0  1.012933  0  0  0.097081  0.108865  0  1.013639  0
H  H12  1  0.03926215  0.09184180  0.08977211  1  0  0.088892  0  0.980291  0  0  0.10172  0  1.04789  0  0  0.103665  0  1.047198  0  0  0.094415  0.1002  0  1.048626  0
H  H13  1  0.96073791  0.90815883  0.91022720  1  0  0.088864  0  0.980298  0  0  0.101719  0  1.047866  0  0  0.103648  0  1.047192  0  0  0.094417  0.100199  0  1.048603  0
H  H14  1  0.50046693  0.22572667  0.90312613  1  0  0.078297  0  0.929768  0  0  0.088819  0  0.987959  0  0  0.091112  0  0.98628  0  0  0.118938  0.087154  0  0.989066  0
H  H15  1  0.49953234  0.77427280  0.09687250  1  0  0.078285  0  0.929733  0  0  0.088782  0  0.987961  0  0  0.091073  0  0.986284  0  0  0.118936  0.087117  0  0.989066  0
H  H16  1  0.26414512  0.19296860  0.04281751  1  0  0.112529  0  0.946257  0  0  0.124687  0  1.002484  0  0  0.12751  0  1.002634  0  0  0.109509  0.122672  0  1.00258  0
H  H17  1  0.73585324  0.80703322  0.95718060  1  0  0.11254  0  0.946252  0  0  0.124695  0  1.00248  0  0  0.12752  0  1.00263  0  0  0.109516  0.122681  0  1.002576  0
H  H18  1  0.34078953  0.04042644  0.63402470  1  0  0.095281  0  0.954873  0  0  0.102267  0  1.019352  0  0  0.105129  0  1.016801  0  0  0.119868  0.10004  0  1.021394  0
H  H19  1  0.65921067  0.95957067  0.36597539  1  0  0.09528  0  0.95487  0  0  0.102246  0  1.019364  0  0  0.105104  0  1.016821  0  0  0.119876  0.100023  0  1.021408  0
H  H20  1  0.09187729  0.00912361  0.75755975  1  0  0.127542  0  0.952586  0  0  0.136234  0  1.012376  0  0  0.140123  0  1.01073  0  0  0.114032  0.133482  0  1.013673  0
H  H21  1  0.90812601  0.99087815  0.24244115  1  0  0.127586  0  0.952533  0  0  0.136256  0  1.012348  0  0  0.140146  0  1.010702  0  0  0.114033  0.133504  0  1.013646  0
H  H22  1  0.82557377  0.45126737  0.84862906  1  0  0.095374  0  0.937111  0  0  0.113121  0  0.993298  0  0  0.114973  0  0.99307  0  0  0.095891  0.111745  0  0.993554  0
H  H23  1  0.17442552  0.54873209  0.15137051  1  0  0.095374  0  0.937109  0  0  0.11312  0  0.993298  0  0  0.114973  0  0.99307  0  0  0.095892  0.111744  0  0.993555  0
H  H24  1  0.64691933  0.62461135  0.76664639  1  0  0.096608  0  0.940082  0  0  0.112445  0  0.995972  0  0  0.114701  0  0.995179  0  0  0.096478  0.11146  0  0.995796  0
H  H25  1  0.35308168  0.37538691  0.23335624  1  0  0.096597  0  0.940089  0  0  0.112438  0  0.995977  0  0  0.114694  0  0.995185  0  0  0.096476  0.111453  0  0.995802  0
H  H26  1  0.12022178  0.70390225  0.81369566  1  0  0.107274  0  0.952879  0  0  0.127907  0  1.01375  0  0  0.129708  0  1.013262  0  0  0.089535  0.12671  0  1.013983  0
H  H27  1  0.87978029  0.29609952  0.18630430  1  0  0.107276  0  0.952911  0  0  0.127929  0  1.01376  0  0  0.129729  0  1.013272  0  0  0.089542  0.126732  0  1.013993  0
H  H28  1  0.16011398  0.50803307  0.80675407  1  0  0.100077  0  0.960501  0  0  0.120615  0  1.023693  0  0  0.121917  0  1.024454  0  0  0.084226  0.119693  0  1.023166  0
H  H29  1  0.83988729  0.49196755  0.19324429  1  0  0.10011  0  0.960447  0  0  0.120627  0  1.023662  0  0  0.121929  0  1.024424  0  0  0.084231  0.119705  0  1.023136  0
H  H30  1  0.98160814  0.60368645  0.88711438  1  0  0.086878  0  0.966873  0  0  0.106643  0  1.034581  0  0  0.107745  0  1.034679  0  0  0.08045  0.105684  0  1.034881  0
H  H31  1  0.01839408  0.39631181  0.11288731  1  0  0.086886  0  0.966857  0  0  0.10664  0  1.034577  0  0  0.107741  0  1.034677  0  0  0.080446  0.105681  0  1.034878  0
H  H32  1  0.98081252  0.75390147  0.46668211  1  0  0.094894  0  0.970939  0  0  0.112165  0  1.042278  0  0  0.113156  0  1.043298  0  0  0.083104  0.111429  0  1.041664  0
H  H33  1  0.01918511  0.24609918  0.53331814  1  0  0.094881  0  0.970949  0  0  0.11215  0  1.0423  0  0  0.113141  0  1.04332  0  0  0.083097  0.111414  0  1.041688  0
H  H34  1  0.16770844  0.60628118  0.56606458  1  0  0.116811  0  0.941499  0  0  0.141176  0  0.99649  0  0  0.142658  0  0.996888  0  0  0.092926  0.140063  0  0.996413  0
H  H35  1  0.83229256  0.39371708  0.43393712  1  0  0.116782  0  0.941553  0  0  0.141152  0  0.996534  0  0  0.142635  0  0.996931  0  0  0.092924  0.14004  0  0.996457  0
H  H36  1  0.10835977  0.80465166  0.57068442  1  0  0.115839  0  0.948032  0  0  0.137399  0  1.005327  0  0  0.139353  0  1.004681  0  0  0.089933  0.136061  0  1.00576  0
H  H37  1  0.89163862  0.19535016  0.42931557  1  0  0.115821  0  0.948058  0  0  0.137381  0  1.005353  0  0  0.139336  0  1.004707  0  0  0.089931  0.136045  0  1.005787  0
C  C38  1  0.79872459  0.84262270  0.66331818  1  0  0.638031  0  3.796978  0  0  0.58887  0  4.089801  0  0  0.621234  0  4.084933  0  0  0.215333  0.566911  0  4.091785  0
C  C39  1  0.20127642  0.15737557  0.33668445  1  0  0.638149  0  3.796745  0  0  0.588971  0  4.089607  0  0  0.621334  0  4.084741  0  0  0.215378  0.567011  0  4.091592  0
C  C40  1  0.86670055  0.56197086  0.65202846  1  0  -0.125332  0  3.647776  0  0  -0.168364  0  3.896209  0  0  -0.16929  0  3.910909  0  0  -0.159509  -0.167371  0  3.885372  0
C  C41  1  0.13330044  0.43802741  0.34797230  1  0  -0.125204  0  3.647643  0  0  -0.16825  0  3.896107  0  0  -0.169174  0  3.910806  0  0  -0.159472  -0.167256  0  3.885268  0
C  C42  1  0.94316952  0.68283700  0.67342586  1  0  0.071244  0  3.606042  0  0  0.104024  0  3.839318  0  0  0.099416  0  3.858435  0  0  -0.018734  0.107121  0  3.825828  0
C  C43  1  0.05683102  0.31716245  0.32657558  1  0  0.071159  0  3.60599  0  0  0.103946  0  3.839281  0  0  0.099338  0  3.858396  0  0  -0.018739  0.107041  0  3.825794  0
C  C44  1  0.01303668  0.07839956  0.99367395  1  0  -0.169977  0  3.684325  0  0  -0.212947  0  3.931118  0  0  -0.215412  0  3.942458  0  0  -0.162306  -0.21101  0  3.923174  0
C  C45  1  0.98696429  0.92159872  0.00632588  1  0  -0.169988  0  3.684316  0  0  -0.212985  0  3.931106  0  0  -0.215439  0  3.942454  0  0  -0.162347  -0.211049  0  3.923161  0
C  C46  1  0.15744903  0.09721604  0.91268342  1  0  0.18397  0  3.680069  0  0  0.197998  0  3.918083  0  0  0.204644  0  3.939585  0  0  0.024344  0.193705  0  3.903586  0
C  C47  1  0.84255103  0.90278458  0.08731588  1  0  0.184029  0  3.680048  0  0  0.198076  0  3.91803  0  0  0.204723  0  3.939528  0  0  0.024435  0.193784  0  3.903531  0
C  C48  1  0.40714436  0.17750986  0.87525690  1  0  0.131286  0  3.747571  0  0  0.099006  0  4.003317  0  0  0.107017  0  4.021936  0  0  0.045684  0.093907  0  3.990495  0
C  C49  1  0.59285570  0.82249077  0.12474240  1  0  0.131315  0  3.747486  0  0  0.099059  0  4.003249  0  0  0.107069  0  4.021867  0  0  0.045695  0.093959  0  3.990426  0
C  C50  1  0.66005646  0.41770060  0.71213272  1  0  0.693451  0  3.84459  0  0  0.647248  0  4.142575  0  0  0.68032  0  4.136169  0  0  0.210787  0.625014  0  4.145842  0
C  C51  1  0.33993902  0.58230241  0.28786607  1  0  0.693559  0  3.844376  0  0  0.647256  0  4.14251  0  0  0.680329  0  4.136105  0  0  0.210812  0.625021  0  4.145778  0
C  C52  1  0.27454892  0.16021684  0.95152728  1  0  -0.185052  0  3.71598  0  0  -0.202052  0  3.963103  0  0  -0.211657  0  3.985705  0  0  -0.085919  -0.196027  0  3.948186  0
C  C53  1  0.72545112  0.83978380  0.04847015  1  0  -0.185089  0  3.715984  0  0  -0.202092  0  3.963094  0  0  -0.211698  0  3.985696  0  0  -0.085989  -0.196067  0  3.948178  0
C  C54  1  0.31751712  0.07413830  0.72455353  1  0  0.131714  0  3.698916  0  0  0.099998  0  3.949832  0  0  0.10786  0  3.967378  0  0  0.047186  0.094709  0  3.93843  0
C  C55  1  0.68248047  0.92586237  0.27544391  1  0  0.131763  0  3.69905  0  0  0.100086  0  3.949956  0  0  0.107947  0  3.967499  0  0  0.047216  0.09479  0  3.938559  0
C  C56  1  0.18042833  0.05569008  0.79495628  1  0  -0.166416  0  3.668486  0  0  -0.182776  0  3.913002  0  0  -0.191605  0  3.933528  0  0  -0.079689  -0.177396  0  3.899688  0
C  C57  1  0.81957081  0.94431290  0.20504156  1  0  -0.166494  0  3.668458  0  0  -0.182856  0  3.912994  0  0  -0.191686  0  3.933518  0  0  -0.079724  -0.177477  0  3.899682  0
C  C58  1  0.74818597  0.51772730  0.75465073  1  0  -0.266873  0  3.683478  0  0  -0.305876  0  3.933164  0  0  -0.311694  0  3.941297  0  0  -0.170693  -0.301856  0  3.926613  0
C  C59  1  0.25181455  0.48227215  0.24534977  1  0  -0.26689  0  3.683423  0  0  -0.305858  0  3.933133  0  0  -0.311678  0  3.94127  0  0  -0.170675  -0.301836  0  3.92658  0
C  C60  1  0.05737588  0.62137132  0.80344044  1  0  -0.322349  0  3.681697  0  0  -0.40448  0  3.921744  0  0  -0.406434  0  3.931564  0  0  -0.24613  -0.40301  0  3.915116  0
C  C61  1  0.94262542  0.37862929  0.19655979  1  0  -0.322389  0  3.681681  0  0  -0.404508  0  3.92173  0  0  -0.406461  0  3.931549  0  0  -0.246146  -0.403038  0  3.915103  0
C  C62  1  0.05636203  0.71450376  0.56194080  1  0  -0.326241  0  3.633676  0  0  -0.406715  0  3.868932  0  0  -0.409682  0  3.879712  0  0  -0.24343  -0.404665  0  3.86159  0
C  C63  1  0.94363681  0.28549688  0.43805850  1  0  -0.326166  0  3.633704  0  0  -0.406636  0  3.868947  0  0  -0.409603  0  3.879727  0  0  -0.243412  -0.404591  0  3.861611  0
N  N64  1  0.43027953  0.13352000  0.76405436  1  0  -0.36161  0  3.342059  0  0  -0.279903  0  3.630198  0  0  -0.300112  0  3.643435  0  0  -0.337513  -0.266241  0  3.621173  0
N  N65  1  0.56972343  0.86647943  0.23594519  1  0  -0.361686  0  3.342197  0  0  -0.279998  0  3.630341  0  0  -0.300199  0  3.643565  0  0  -0.337547  -0.266337  0  3.621319  0
O  O66  1  0.83986923  0.94132285  0.70927316  1  0  -0.646353  0  2.037539  0  0  -0.56849  0  2.301598  0  0  -0.597393  0  2.288209  0  0  -0.322172  -0.548714  0  2.310382  0
O  O67  1  0.16013205  0.05867777  0.29072519  1  0  -0.646381  0  2.037452  0  0  -0.568517  0  2.301524  0  0  -0.597425  0  2.288146  0  0  -0.322173  -0.548738  0  2.310306  0
O  O68  1  0.57834184  0.22402965  0.47378654  1  0  -0.852623  0  1.943816  0  0  -0.780595  0  2.178117  0  0  -0.804011  0  2.138032  0  0  -0.579172  -0.764094  0  2.205964  0
O  O69  1  0.42165914  0.77596862  0.52621422  1  0  -0.85263  0  1.94384  0  0  -0.780596  0  2.178139  0  0  -0.804008  0  2.138045  0  0  -0.57918  -0.764094  0  2.205984  0
O  O70  1  0.64882618  0.87937507  0.60699742  1  0  -0.640255  0  2.035565  0  0  -0.578331  0  2.269458  0  0  -0.60435  0  2.260807  0  0  -0.310693  -0.559767  0  2.274085  0
O  O71  1  0.35117363  0.12062320  0.39300709  1  0  -0.64033  0  2.035483  0  0  -0.578398  0  2.269394  0  0  -0.604415  0  2.260746  0  0  -0.310744  -0.559832  0  2.274017  0
O  O72  1  0.74785116  0.26815814  0.74148934  1  0  -0.655368  0  2.028312  0  0  -0.571734  0  2.289556  0  0  -0.601125  0  2.276011  0  0  -0.326808  -0.551555  0  2.298202  0
O  O73  1  0.25214771  0.73184249  0.25851184  1  0  -0.655409  0  2.028324  0  0  -0.571746  0  2.289618  0  0  -0.601135  0  2.276073  0  0  -0.326809  -0.551567  0  2.298263  0
O  O74  1  0.51138395  0.47952432  0.64903459  1  0  -0.628304  0  1.967615  0  0  -0.575911  0  2.189124  0  0  -0.600593  0  2.179803  0  0  -0.317436  -0.558611  0  2.194951  0
O  O75  1  0.48861368  0.52047633  0.35096566  1  0  -0.628356  0  1.967401  0  0  -0.575933  0  2.188965  0  0  -0.600615  0  2.179644  0  0  -0.317456  -0.55863  0  2.194789  0
