# generated using pymatgen
data_PrH7C8O9
_symmetry_space_group_name_H-M   'P 1'
_cell_length_a   8.41439252
_cell_length_b   8.78007121
_cell_length_c   14.48001226
_cell_angle_alpha   90.00000438
_cell_angle_beta   89.99996055
_cell_angle_gamma   103.62954982
_symmetry_Int_Tables_number   1
_chemical_formula_structural   PrH7C8O9
_chemical_formula_sum   'Pr4 H28 C32 O36'
_cell_volume   1039.64322139
_cell_formula_units_Z   4
loop_
 _symmetry_equiv_pos_site_id
 _symmetry_equiv_pos_as_xyz
  1  'x, y, z'
loop_
 _atom_site_type_symbol
 _atom_site_label
 _atom_site_symmetry_multiplicity
 _atom_site_fract_x
 _atom_site_fract_y
 _atom_site_fract_z
 _atom_site_occupancy
 _atom_site_hle17_bader_spin_density
 _atom_site_hle17_ddec_charge
 _atom_site_hle17_ddec_spin_density
 _atom_site_hle17_ddec_sum_bond_order
 _atom_site_hle17_magmom
 _atom_site_hse06_10hf_bader_spin_density
 _atom_site_hse06_10hf_ddec_charge
 _atom_site_hse06_10hf_ddec_spin_density
 _atom_site_hse06_10hf_ddec_sum_bond_order
 _atom_site_hse06_10hf_magmom
 _atom_site_hse06_bader_spin_density
 _atom_site_hse06_ddec_charge
 _atom_site_hse06_ddec_spin_density
 _atom_site_hse06_ddec_sum_bond_order
 _atom_site_hse06_magmom
 _atom_site_pbe_bader_spin_density
 _atom_site_pbe_cm5_charge
 _atom_site_pbe_ddec_charge
 _atom_site_pbe_ddec_spin_density
 _atom_site_pbe_ddec_sum_bond_order
 _atom_site_pbe_magmom
Pr  Pr0  1  0.36745118  0.90480879  0.81203862  1  0  2.344001  0  1.59805  0  0  2.228068  0  1.972104  0  0  2.267266  0  1.927996  0  0  1.48975  2.152177  0  2.091975  0
Pr  Pr1  1  0.63254822  0.59519032  0.31203899  1  0  2.344005  0  1.598051  0  0  2.228075  0  1.972109  0  0  2.26727  0  1.928001  0  0  1.489738  2.152165  0  2.092  0
Pr  Pr2  1  0.63254908  0.09519016  0.18796173  1  0  2.344019  0  1.598069  0  0  2.228085  0  1.97213  0  0  2.267289  0  1.928018  0  0  1.489757  2.152177  0  2.092018  0
Pr  Pr3  1  0.36745084  0.40480862  0.68796068  1  0  2.343989  0  1.598082  0  0  2.228044  0  1.972143  0  0  2.267242  0  1.928036  0  0  1.489726  2.152125  0  2.092046  0
H  H4  1  0.92158235  0.88602883  0.70450960  1  0  0.129518  0  0.946458  0  0  0.136933  0  1.006726  0  0  0.14054  0  1.00559  0  0  0.114439  0.134039  0  1.008585  0
H  H5  1  0.07841747  0.61397147  0.20451018  1  0  0.129536  0  0.946427  0  0  0.136949  0  1.006697  0  0  0.140556  0  1.005562  0  0  0.114458  0.134056  0  1.008554  0
H  H6  1  0.07841672  0.11397011  0.29549076  1  0  0.129517  0  0.946467  0  0  0.136932  0  1.006743  0  0  0.140538  0  1.005608  0  0  0.114443  0.134039  0  1.008602  0
H  H7  1  0.92158307  0.38602865  0.79548948  1  0  0.129521  0  0.946402  0  0  0.136942  0  1.006675  0  0  0.140548  0  1.005541  0  0  0.114442  0.134047  0  1.008536  0
H  H8  1  0.82168897  0.53674380  0.65171338  1  0  0.126528  0  0.950614  0  0  0.132732  0  1.014003  0  0  0.137737  0  1.010589  0  0  0.117134  0.129109  0  1.01703  0
H  H9  1  0.17830972  0.96325650  0.15171395  1  0  0.126546  0  0.95061  0  0  0.132749  0  1.014003  0  0  0.137754  0  1.010587  0  0  0.117134  0.129127  0  1.01703  0
H  H10  1  0.17831157  0.46325632  0.34828628  1  0  0.126509  0  0.950662  0  0  0.132707  0  1.014067  0  0  0.137713  0  1.010651  0  0  0.117126  0.129084  0  1.017093  0
H  H11  1  0.82168963  0.03674361  0.84828710  1  0  0.126539  0  0.950594  0  0  0.132733  0  1.013994  0  0  0.137739  0  1.010577  0  0  0.117132  0.12911  0  1.01702  0
H  H12  1  0.43899597  0.37436467  0.92512207  1  0  0.133373  0  0.948985  0  0  0.1369  0  1.015402  0  0  0.141928  0  1.01196  0  0  0.121192  0.133243  0  1.017967  0
H  H13  1  0.56100366  0.12563407  0.42512246  1  0  0.133376  0  0.948978  0  0  0.136898  0  1.015403  0  0  0.141926  0  1.011959  0  0  0.121203  0.133243  0  1.017968  0
H  H14  1  0.56100428  0.62563428  0.07487760  1  0  0.133375  0  0.948982  0  0  0.13691  0  1.015402  0  0  0.141938  0  1.011959  0  0  0.121208  0.133253  0  1.017968  0
H  H15  1  0.43899541  0.87436487  0.57487859  1  0  0.133332  0  0.949023  0  0  0.136856  0  1.015473  0  0  0.141883  0  1.01203  0  0  0.121198  0.133212  0  1.018023  0
H  H16  1  0.00519470  0.89729668  0.90051928  1  0  0.403424  0  0.87814  0  0  0.372274  0  0.957017  0  0  0.384862  0  0.944206  0  0  0.311922  0.363494  0  0.965744  0
H  H17  1  0.99480607  0.60270360  0.40051950  1  0  0.403397  0  0.878147  0  0  0.372254  0  0.957021  0  0  0.384841  0  0.944211  0  0  0.31192  0.363472  0  0.965751  0
H  H18  1  0.99480494  0.10270461  0.09948038  1  0  0.403413  0  0.878131  0  0  0.372262  0  0.957014  0  0  0.384849  0  0.944203  0  0  0.311927  0.363482  0  0.965742  0
H  H19  1  0.00519419  0.39729535  0.59948016  1  0  0.403405  0  0.878142  0  0  0.372254  0  0.957026  0  0  0.384841  0  0.944215  0  0  0.311926  0.363474  0  0.965754  0
H  H20  1  0.86430996  0.56504686  0.04717867  1  0  0.143879  0  0.940944  0  0  0.149381  0  1.001742  0  0  0.153334  0  1.000537  0  0  0.121105  0.146193  0  1.003341  0
H  H21  1  0.13569005  0.93495347  0.54717840  1  0  0.143894  0  0.940947  0  0  0.149397  0  1.001738  0  0  0.153355  0  1.000525  0  0  0.121118  0.146211  0  1.003336  0
H  H22  1  0.13569058  0.43495326  0.95282169  1  0  0.143855  0  0.940955  0  0  0.14935  0  1.001757  0  0  0.15331  0  1.000544  0  0  0.1211  0.146161  0  1.003356  0
H  H23  1  0.86430902  0.06504548  0.45282127  1  0  0.143835  0  0.940974  0  0  0.149337  0  1.00177  0  0  0.15329  0  1.000563  0  0  0.121085  0.14615  0  1.003367  0
H  H24  1  0.35631162  0.91678477  0.03096332  1  0  0.426518  0  0.873545  0  0  0.398701  0  0.936133  0  0  0.408453  0  0.921898  0  0  0.303109  0.391934  0  0.945737  0
H  H25  1  0.64368693  0.58321438  0.53096352  1  0  0.426538  0  0.873519  0  0  0.398723  0  0.936102  0  0  0.408476  0  0.921864  0  0  0.303114  0.391956  0  0.945706  0
H  H26  1  0.64368744  0.08321417  0.96903635  1  0  0.426526  0  0.873535  0  0  0.39871  0  0.936123  0  0  0.408462  0  0.921885  0  0  0.30311  0.391942  0  0.945727  0
H  H27  1  0.35631242  0.41678574  0.46903614  1  0  0.426525  0  0.873537  0  0  0.39871  0  0.936122  0  0  0.408462  0  0.921884  0  0  0.303109  0.391943  0  0.945724  0
H  H28  1  0.35527831  0.08468229  0.99840931  1  0  0.447173  0  0.837026  0  0  0.420951  0  0.894913  0  0  0.431168  0  0.879578  0  0  0.312363  0.413685  0  0.905645  0
H  H29  1  0.64472270  0.41531762  0.49840899  1  0  0.447185  0  0.83701  0  0  0.42096  0  0.894902  0  0  0.431177  0  0.879566  0  0  0.312363  0.413695  0  0.905632  0
H  H30  1  0.64472223  0.91531783  0.00159105  1  0  0.447155  0  0.837046  0  0  0.420934  0  0.894937  0  0  0.431151  0  0.879601  0  0  0.312354  0.413667  0  0.905669  0
H  H31  1  0.35527784  0.58468250  0.50159068  1  0  0.44717  0  0.83703  0  0  0.42095  0  0.894916  0  0  0.431167  0  0.87958  0  0  0.312359  0.413686  0  0.905646  0
C  C32  1  0.66239888  0.76265411  0.68325897  1  0  0.749224  0  3.841471  0  0  0.708996  0  4.125169  0  0  0.743964  0  4.113237  0  0  0.236402  0.685443  0  4.129514  0
C  C33  1  0.33760096  0.73734619  0.18325946  1  0  0.749274  0  3.841404  0  0  0.708983  0  4.125201  0  0  0.74395  0  4.11327  0  0  0.236387  0.685437  0  4.129534  0
C  C34  1  0.33760166  0.23734601  0.31674069  1  0  0.749243  0  3.841449  0  0  0.709019  0  4.125148  0  0  0.743986  0  4.113217  0  0  0.236391  0.685467  0  4.129486  0
C  C35  1  0.66239839  0.26265392  0.81674089  1  0  0.749104  0  3.841562  0  0  0.708816  0  4.125372  0  0  0.743783  0  4.113446  0  0  0.23632  0.685278  0  4.129685  0
C  C36  1  0.84212250  0.77397438  0.68472234  1  0  -0.15199  0  3.597985  0  0  -0.168708  0  3.841352  0  0  -0.173781  0  3.856566  0  0  -0.072663  -0.166099  0  3.832965  0
C  C37  1  0.15787854  0.72602593  0.18472289  1  0  -0.152024  0  3.597974  0  0  -0.168715  0  3.841357  0  0  -0.173788  0  3.856571  0  0  -0.072695  -0.16611  0  3.83297  0
C  C38  1  0.15787805  0.22602574  0.31527802  1  0  -0.151989  0  3.598027  0  0  -0.16871  0  3.841397  0  0  -0.173782  0  3.85661  0  0  -0.072661  -0.1661  0  3.833009  0
C  C39  1  0.84212319  0.27397420  0.81527815  1  0  -0.151935  0  3.59795  0  0  -0.168656  0  3.841325  0  0  -0.173729  0  3.85654  0  0  -0.072665  -0.166052  0  3.832935  0
C  C40  1  0.90396505  0.64902778  0.66830452  1  0  -0.167737  0  3.624512  0  0  -0.187366  0  3.876524  0  0  -0.194119  0  3.890704  0  0  -0.075532  -0.183255  0  3.868548  0
C  C41  1  0.09603481  0.85097253  0.16830442  1  0  -0.167809  0  3.624477  0  0  -0.187439  0  3.876493  0  0  -0.194191  0  3.890673  0  0  -0.075541  -0.183328  0  3.86852  0
C  C42  1  0.09603668  0.35097235  0.33169584  1  0  -0.167731  0  3.624552  0  0  -0.187356  0  3.876575  0  0  -0.194109  0  3.890754  0  0  -0.075523  -0.183247  0  3.868601  0
C  C43  1  0.90396601  0.14902876  0.83169525  1  0  -0.167797  0  3.624538  0  0  -0.187396  0  3.876531  0  0  -0.194147  0  3.890708  0  0  -0.075531  -0.183286  0  3.868557  0
C  C44  1  0.08062130  0.65103729  0.67538617  1  0  0.755019  0  3.835722  0  0  0.708938  0  4.130617  0  0  0.744926  0  4.117053  0  0  0.24038  0.684546  0  4.13542  0
C  C45  1  0.91937826  0.84896184  0.17538643  1  0  0.755124  0  3.835515  0  0  0.70902  0  4.130452  0  0  0.745007  0  4.116887  0  0  0.240364  0.684626  0  4.135259  0
C  C46  1  0.91937895  0.34896166  0.32461350  1  0  0.755043  0  3.835548  0  0  0.708939  0  4.130498  0  0  0.744928  0  4.116935  0  0  0.240376  0.684544  0  4.135301  0
C  C47  1  0.08062228  0.15103827  0.82461393  1  0  0.755001  0  3.835608  0  0  0.708905  0  4.130528  0  0  0.744893  0  4.116964  0  0  0.240331  0.684515  0  4.135332  0
C  C48  1  0.46918085  0.62571428  0.89574502  1  0  0.72478  0  3.865712  0  0  0.682102  0  4.153552  0  0  0.717479  0  4.141564  0  0  0.217776  0.658856  0  4.155368  0
C  C49  1  0.53081754  0.87428598  0.39574474  1  0  0.724854  0  3.865432  0  0  0.682174  0  4.153276  0  0  0.717552  0  4.141283  0  0  0.217807  0.658927  0  4.15509  0
C  C50  1  0.53081850  0.37428583  0.10425534  1  0  0.724838  0  3.8656  0  0  0.682153  0  4.153464  0  0  0.717531  0  4.141473  0  0  0.217808  0.658906  0  4.155278  0
C  C51  1  0.46918209  0.12571530  0.60425423  1  0  0.724933  0  3.865457  0  0  0.68223  0  4.153338  0  0  0.717608  0  4.141346  0  0  0.217834  0.658985  0  4.155154  0
C  C52  1  0.47713415  0.49080543  0.95559096  1  0  -0.145209  0  3.599471  0  0  -0.162954  0  3.848637  0  0  -0.168971  0  3.863179  0  0  -0.066872  -0.159267  0  3.839709  0
C  C53  1  0.52286545  0.00919331  0.45559136  1  0  -0.145241  0  3.599408  0  0  -0.162978  0  3.84856  0  0  -0.168996  0  3.8631  0  0  -0.066919  -0.159299  0  3.839645  0
C  C54  1  0.52286611  0.50919352  0.04440871  1  0  -0.145137  0  3.599414  0  0  -0.162917  0  3.848597  0  0  -0.168933  0  3.863137  0  0  -0.066911  -0.159236  0  3.839678  0
C  C55  1  0.47713243  0.99080563  0.54440900  1  0  -0.145096  0  3.599344  0  0  -0.16288  0  3.848534  0  0  -0.168897  0  3.863075  0  0  -0.066882  -0.159211  0  3.839606  0
C  C56  1  0.02505269  0.69559696  0.93851579  1  0  0.717229  0  3.78431  0  0  0.674901  0  4.070921  0  0  0.709123  0  4.061004  0  0  0.250072  0.651892  0  4.075432  0
C  C57  1  0.97494774  0.80440213  0.43851465  1  0  0.717283  0  3.784322  0  0  0.674907  0  4.071018  0  0  0.709124  0  4.061112  0  0  0.250059  0.651899  0  4.075527  0
C  C58  1  0.97494785  0.30440315  0.06148526  1  0  0.717152  0  3.784462  0  0  0.674844  0  4.071041  0  0  0.70906  0  4.061135  0  0  0.250035  0.651832  0  4.075551  0
C  C59  1  0.02505132  0.19559681  0.56148502  1  0  0.717197  0  3.784464  0  0  0.674865  0  4.071079  0  0  0.709081  0  4.061172  0  0  0.250054  0.651857  0  4.075587  0
C  C60  1  0.96467386  0.56104416  0.00040313  1  0  -0.149385  0  3.605226  0  0  -0.170963  0  3.856421  0  0  -0.177624  0  3.872475  0  0  -0.062693  -0.166651  0  3.846123  0
C  C61  1  0.03532620  0.93895617  0.50040291  1  0  -0.149435  0  3.605179  0  0  -0.170995  0  3.856392  0  0  -0.177659  0  3.872444  0  0  -0.062713  -0.166687  0  3.846094  0
C  C62  1  0.03532668  0.43895596  0.99959791  1  0  -0.149252  0  3.605164  0  0  -0.170809  0  3.856326  0  0  -0.177471  0  3.872377  0  0  -0.06262  -0.166497  0  3.846028  0
C  C63  1  0.96467168  0.06104276  0.49959814  1  0  -0.149245  0  3.60519  0  0  -0.170791  0  3.856343  0  0  -0.177451  0  3.872401  0  0  -0.062623  -0.166482  0  3.846044  0
O  O64  1  0.14290204  0.69980871  0.88584799  1  0  -0.647688  0  2.059344  0  0  -0.602052  0  2.296318  0  0  -0.625142  0  2.289156  0  0  -0.342371  -0.581805  0  2.302442  0
O  O65  1  0.85709874  0.80019156  0.38584759  1  0  -0.647715  0  2.059398  0  0  -0.602062  0  2.296399  0  0  -0.625145  0  2.289227  0  0  -0.342368  -0.581814  0  2.302522  0
O  O66  1  0.85709878  0.30019258  0.11415236  1  0  -0.647664  0  2.059434  0  0  -0.60205  0  2.29641  0  0  -0.625137  0  2.289247  0  0  -0.34237  -0.581803  0  2.302533  0
O  O67  1  0.14290032  0.19980738  0.61415208  1  0  -0.647678  0  2.05942  0  0  -0.602052  0  2.296408  0  0  -0.625141  0  2.28925  0  0  -0.34236  -0.581803  0  2.30253  0
O  O68  1  0.94606457  0.80841655  0.94418826  1  0  -0.512483  0  2.041341  0  0  -0.45774  0  2.2424  0  0  -0.480337  0  2.229311  0  0  -0.305348  -0.442113  0  2.251227  0
O  O69  1  0.05393523  0.69158489  0.44418816  1  0  -0.512435  0  2.041384  0  0  -0.457697  0  2.242481  0  0  -0.480293  0  2.229397  0  0  -0.305319  -0.442069  0  2.25131  0
O  O70  1  0.05393478  0.19158357  0.05581210  1  0  -0.512436  0  2.041375  0  0  -0.457699  0  2.242429  0  0  -0.480295  0  2.229346  0  0  -0.305321  -0.442071  0  2.251256  0
O  O71  1  0.94606559  0.30841640  0.55581219  1  0  -0.51244  0  2.041434  0  0  -0.457702  0  2.242503  0  0  -0.480297  0  2.229418  0  0  -0.30533  -0.442074  0  2.251329  0
O  O72  1  0.40619008  0.59918651  0.81501789  1  0  -0.786837  0  2.10058  0  0  -0.742526  0  2.364131  0  0  -0.765957  0  2.349887  0  0  -0.403043  -0.715511  0  2.371235  0
O  O73  1  0.59381108  0.90081494  0.31501690  1  0  -0.786883  0  2.100533  0  0  -0.742551  0  2.364046  0  0  -0.765983  0  2.349799  0  0  -0.403068  -0.715535  0  2.37115  0
O  O74  1  0.59381046  0.40081360  0.18498247  1  0  -0.786879  0  2.100567  0  0  -0.74255  0  2.364097  0  0  -0.76598  0  2.34985  0  0  -0.40306  -0.715535  0  2.371202  0
O  O75  1  0.40618765  0.09918751  0.68498346  1  0  -0.786961  0  2.100589  0  0  -0.742607  0  2.364073  0  0  -0.76604  0  2.349828  0  0  -0.403068  -0.715587  0  2.371176  0
O  O76  1  0.51600234  0.76579484  0.92550258  1  0  -0.707096  0  2.003823  0  0  -0.651844  0  2.234602  0  0  -0.676492  0  2.223633  0  0  -0.364301  -0.63119  0  2.242857  0
O  O77  1  0.48399754  0.73420191  0.42550232  1  0  -0.707115  0  2.00368  0  0  -0.651873  0  2.234464  0  0  -0.67652  0  2.223492  0  0  -0.364298  -0.631215  0  2.24272  0
O  O78  1  0.48399701  0.23420527  0.07449708  1  0  -0.707114  0  2.003792  0  0  -0.651855  0  2.234577  0  0  -0.676504  0  2.223607  0  0  -0.364294  -0.631198  0  2.24283  0
O  O79  1  0.51600243  0.26579586  0.57449596  1  0  -0.707166  0  2.003786  0  0  -0.651883  0  2.234555  0  0  -0.67653  0  2.223584  0  0  -0.364296  -0.631225  0  2.242809  0
O  O80  1  0.61206267  0.86922582  0.72494404  1  0  -0.714717  0  1.995951  0  0  -0.673057  0  2.243638  0  0  -0.697521  0  2.233142  0  0  -0.372767  -0.650308  0  2.252075  0
O  O81  1  0.38793713  0.63077448  0.22494450  1  0  -0.714735  0  1.995913  0  0  -0.673046  0  2.243609  0  0  -0.697511  0  2.233115  0  0  -0.372765  -0.650296  0  2.252041  0
O  O82  1  0.38793759  0.13077313  0.27505563  1  0  -0.71473  0  1.995948  0  0  -0.673063  0  2.243621  0  0  -0.697528  0  2.233126  0  0  -0.372765  -0.650313  0  2.252055  0
O  O83  1  0.61206370  0.36922681  0.77505517  1  0  -0.714661  0  1.996053  0  0  -0.672961  0  2.243737  0  0  -0.697423  0  2.233238  0  0  -0.372716  -0.650215  0  2.252163  0
O  O84  1  0.56957506  0.64647782  0.64083016  1  0  -0.762122  0  2.040825  0  0  -0.708371  0  2.289664  0  0  -0.731748  0  2.27393  0  0  -0.386118  -0.685606  0  2.300531  0
O  O85  1  0.43042574  0.85352133  0.14083062  1  0  -0.76213  0  2.040814  0  0  -0.708361  0  2.289686  0  0  -0.731736  0  2.273949  0  0  -0.386097  -0.6856  0  2.300549  0
O  O86  1  0.43042548  0.35352230  0.35917020  1  0  -0.762134  0  2.040805  0  0  -0.708389  0  2.289652  0  0  -0.731764  0  2.273916  0  0  -0.386122  -0.685627  0  2.300516  0
O  O87  1  0.56957423  0.14647645  0.85917043  1  0  -0.762073  0  2.040803  0  0  -0.708308  0  2.289663  0  0  -0.731684  0  2.273932  0  0  -0.38609  -0.685552  0  2.300519  0
O  O88  1  0.18578806  0.77744952  0.69054636  1  0  -0.730515  0  2.024453  0  0  -0.692454  0  2.29253  0  0  -0.714343  0  2.276577  0  0  -0.391437  -0.669578  0  2.303077  0
O  O89  1  0.81421205  0.72255196  0.19054596  1  0  -0.730603  0  2.02447  0  0  -0.692537  0  2.292571  0  0  -0.714426  0  2.276615  0  0  -0.391482  -0.66966  0  2.30312  0
O  O90  1  0.81421072  0.22254825  0.30945331  1  0  -0.730547  0  2.024438  0  0  -0.69249  0  2.292558  0  0  -0.714381  0  2.276607  0  0  -0.39147  -0.669606  0  2.303101  0
O  O91  1  0.18578877  0.27744933  0.80945370  1  0  -0.730513  0  2.024435  0  0  -0.692457  0  2.292539  0  0  -0.714347  0  2.276588  0  0  -0.391446  -0.669577  0  2.303084  0
O  O92  1  0.11656331  0.51750859  0.66553396  1  0  -0.722579  0  2.067054  0  0  -0.667564  0  2.313206  0  0  -0.692161  0  2.299121  0  0  -0.357645  -0.645316  0  2.323578  0
O  O93  1  0.88343803  0.98249289  0.16553355  1  0  -0.722567  0  2.066932  0  0  -0.66754  0  2.313088  0  0  -0.692138  0  2.299004  0  0  -0.357572  -0.645291  0  2.323458  0
O  O94  1  0.88343808  0.48249504  0.33446709  1  0  -0.722569  0  2.066924  0  0  -0.667541  0  2.313076  0  0  -0.69214  0  2.298993  0  0  -0.357598  -0.645292  0  2.323446  0
O  O95  1  0.11656104  0.01750605  0.83446612  1  0  -0.722525  0  2.066921  0  0  -0.667509  0  2.313073  0  0  -0.692107  0  2.29899  0  0  -0.357573  -0.645264  0  2.323444  0
O  O96  1  0.31777315  0.97400229  0.97989692  1  0  -0.902377  0  1.89213  0  0  -0.865352  0  2.082382  0  0  -0.882654  0  2.052745  0  0  -0.634886  -0.847971  0  2.104997  0
O  O97  1  0.68222751  0.52599797  0.47989657  1  0  -0.902403  0  1.892101  0  0  -0.865378  0  2.082346  0  0  -0.882683  0  2.052711  0  0  -0.634888  -0.847994  0  2.10496  0
O  O98  1  0.68222710  0.02599666  0.02010275  1  0  -0.902388  0  1.892158  0  0  -0.865347  0  2.08238  0  0  -0.88266  0  2.052762  0  0  -0.634884  -0.847965  0  2.104996  0
O  O99  1  0.31777303  0.47400215  0.52010310  1  0  -0.902387  0  1.892144  0  0  -0.865354  0  2.082378  0  0  -0.882663  0  2.052753  0  0  -0.634882  -0.84797  0  2.104992  0
