# generated using pymatgen
data_CdH7C9NO7
_symmetry_space_group_name_H-M   'P 1'
_cell_length_a   7.23166514
_cell_length_b   11.58035546
_cell_length_c   12.97645953
_cell_angle_alpha   102.57632636
_cell_angle_beta   90.00121141
_cell_angle_gamma   90.00054481
_symmetry_Int_Tables_number   1
_chemical_formula_structural   CdH7C9NO7
_chemical_formula_sum   'Cd4 H28 C36 N4 O28'
_cell_volume   1060.64308124
_cell_formula_units_Z   4
loop_
 _symmetry_equiv_pos_site_id
 _symmetry_equiv_pos_as_xyz
  1  'x, y, z'
loop_
 _atom_site_type_symbol
 _atom_site_label
 _atom_site_symmetry_multiplicity
 _atom_site_fract_x
 _atom_site_fract_y
 _atom_site_fract_z
 _atom_site_occupancy
 _atom_site_hle17_bader_spin_density
 _atom_site_hle17_ddec_charge
 _atom_site_hle17_ddec_spin_density
 _atom_site_hle17_ddec_sum_bond_order
 _atom_site_hle17_magmom
 _atom_site_hse06_10hf_bader_spin_density
 _atom_site_hse06_10hf_ddec_charge
 _atom_site_hse06_10hf_ddec_spin_density
 _atom_site_hse06_10hf_ddec_sum_bond_order
 _atom_site_hse06_10hf_magmom
 _atom_site_hse06_bader_spin_density
 _atom_site_hse06_ddec_charge
 _atom_site_hse06_ddec_spin_density
 _atom_site_hse06_ddec_sum_bond_order
 _atom_site_hse06_magmom
 _atom_site_pbe_bader_spin_density
 _atom_site_pbe_cm5_charge
 _atom_site_pbe_ddec_charge
 _atom_site_pbe_ddec_spin_density
 _atom_site_pbe_ddec_sum_bond_order
 _atom_site_pbe_magmom
Cd  Cd0  1  0.90976331  0.83610781  0.78617061  1  0  1.24208  0  1.597915  0  0  1.059309  0  2.038892  0  0  1.117331  0  1.983164  0  0  0.795202  1.01773  0  2.077324  0
Cd  Cd1  1  0.40976098  0.66389836  0.71382907  1  0  1.242081  0  1.597974  0  0  1.059283  0  2.038968  0  0  1.117308  0  1.983234  0  0  0.795191  1.017703  0  2.077402  0
Cd  Cd2  1  0.09022656  0.16389453  0.21383264  1  0  1.242044  0  1.597978  0  0  1.059275  0  2.038959  0  0  1.117298  0  1.983227  0  0  0.795195  1.017695  0  2.077392  0
Cd  Cd3  1  0.59024548  0.33609778  0.28617150  1  0  1.242117  0  1.597966  0  0  1.059351  0  2.038949  0  0  1.117373  0  1.983215  0  0  0.795226  1.017771  0  2.077385  0
H  H4  1  0.34706612  0.36743919  0.70000383  1  0  0.410794  0  0.880806  0  0  0.377064  0  0.962535  0  0  0.390782  0  0.945819  0  0  0.300855  0.367432  0  0.972665  0
H  H5  1  0.84706586  0.13256187  0.80001230  1  0  0.410784  0  0.880822  0  0  0.377144  0  0.962408  0  0  0.390865  0  0.945707  0  0  0.300837  0.367505  0  0.972542  0
H  H6  1  0.65293481  0.63255783  0.29999690  1  0  0.410849  0  0.880693  0  0  0.377096  0  0.962482  0  0  0.390814  0  0.945768  0  0  0.300845  0.367466  0  0.972607  0
H  H7  1  0.15292401  0.86742986  0.19998898  1  0  0.410782  0  0.880946  0  0  0.377149  0  0.962521  0  0  0.390868  0  0.945731  0  0  0.30082  0.367509  0  0.972664  0
H  H8  1  0.82727919  0.93797628  0.61693211  1  0  0.430749  0  0.869954  0  0  0.398984  0  0.933922  0  0  0.409831  0  0.918213  0  0  0.293291  0.391311  0  0.945023  0
H  H9  1  0.32729000  0.56202918  0.88307108  1  0  0.430867  0  0.869795  0  0  0.399078  0  0.933817  0  0  0.409928  0  0.918103  0  0  0.293301  0.391401  0  0.944927  0
H  H10  1  0.17271759  0.06202252  0.38306972  1  0  0.430748  0  0.869949  0  0  0.398983  0  0.933924  0  0  0.40983  0  0.918214  0  0  0.293293  0.391309  0  0.945028  0
H  H11  1  0.67271369  0.43797139  0.11693108  1  0  0.430803  0  0.869877  0  0  0.399031  0  0.933865  0  0  0.409883  0  0.918148  0  0  0.293311  0.391356  0  0.944971  0
H  H12  1  0.85749984  0.79848398  0.56800147  1  0  0.445919  0  0.841119  0  0  0.41662  0  0.900784  0  0  0.426832  0  0.886017  0  0  0.301172  0.409375  0  0.911237  0
H  H13  1  0.35750910  0.70152257  0.93199611  1  0  0.445891  0  0.841151  0  0  0.416583  0  0.900833  0  0  0.426794  0  0.886067  0  0  0.301097  0.409338  0  0.911285  0
H  H14  1  0.14249970  0.20151566  0.43199743  1  0  0.445919  0  0.841128  0  0  0.41662  0  0.900794  0  0  0.426832  0  0.886027  0  0  0.301183  0.409375  0  0.911247  0
H  H15  1  0.64249598  0.29847620  0.06800340  1  0  0.445913  0  0.841108  0  0  0.416598  0  0.900813  0  0  0.426807  0  0.886053  0  0  0.301143  0.409354  0  0.911263  0
H  H16  1  0.37558564  0.10424479  0.75967384  1  0  0.120607  0  0.922776  0  0  0.131238  0  0.980759  0  0  0.134426  0  0.978072  0  0  0.121124  0.128855  0  0.982792  0
H  H17  1  0.87558438  0.39575822  0.74033528  1  0  0.120672  0  0.922719  0  0  0.131402  0  0.980578  0  0  0.134606  0  0.977885  0  0  0.121157  0.129019  0  0.982612  0
H  H18  1  0.62439455  0.89575125  0.24031822  1  0  0.120771  0  0.922527  0  0  0.131243  0  0.980676  0  0  0.134431  0  0.977991  0  0  0.121129  0.12886  0  0.982709  0
H  H19  1  0.12441240  0.60423877  0.25966236  1  0  0.120679  0  0.922787  0  0  0.131403  0  0.980653  0  0  0.134605  0  0.97796  0  0  0.121148  0.129019  0  0.982687  0
H  H20  1  0.01683779  0.34241612  0.11982430  1  0  0.109588  0  0.992896  0  0  0.127191  0  1.06312  0  0  0.129404  0  1.061513  0  0  0.090222  0.12554  0  1.064326  0
H  H21  1  0.51684233  0.15759760  0.38018063  1  0  0.10953  0  0.992948  0  0  0.127166  0  1.063131  0  0  0.129382  0  1.061533  0  0  0.090234  0.125517  0  1.064337  0
H  H22  1  0.98318664  0.65759595  0.88018000  1  0  0.109604  0  0.992887  0  0  0.127225  0  1.063107  0  0  0.12944  0  1.061502  0  0  0.090243  0.125574  0  1.064314  0
H  H23  1  0.48315860  0.84240649  0.61982141  1  0  0.109542  0  0.992806  0  0  0.12713  0  1.063059  0  0  0.129342  0  1.061459  0  0  0.09021  0.12548  0  1.064266  0
H  H24  1  0.19859098  0.42305722  0.07408625  1  0  0.142283  0  0.918202  0  0  0.163896  0  0.974408  0  0  0.166001  0  0.973074  0  0  0.104297  0.162348  0  0.975411  0
H  H25  1  0.69858357  0.07694316  0.42591991  1  0  0.142349  0  0.918141  0  0  0.163956  0  0.974335  0  0  0.166063  0  0.973002  0  0  0.104332  0.162409  0  0.975341  0
H  H26  1  0.80144590  0.57694068  0.92591464  1  0  0.142435  0  0.918112  0  0  0.164076  0  0.974277  0  0  0.166177  0  0.972949  0  0  0.104395  0.16253  0  0.975276  0
H  H27  1  0.30141459  0.92305828  0.57408086  1  0  0.142306  0  0.918172  0  0  0.163917  0  0.974369  0  0  0.166024  0  0.973034  0  0  0.104314  0.16237  0  0.975372  0
H  H28  1  0.99482042  0.39184972  0.99937585  1  0  0.141497  0  0.936338  0  0  0.161692  0  0.993045  0  0  0.163959  0  0.991728  0  0  0.104262  0.160063  0  0.993999  0
H  H29  1  0.49482578  0.10815783  0.50062783  1  0  0.141467  0  0.936353  0  0  0.161675  0  0.993041  0  0  0.163942  0  0.991724  0  0  0.104254  0.160046  0  0.993994  0
H  H30  1  0.00519848  0.60816411  0.00062877  1  0  0.141478  0  0.936291  0  0  0.16169  0  0.992996  0  0  0.163956  0  0.991679  0  0  0.104249  0.160062  0  0.99395  0
H  H31  1  0.50517653  0.89184541  0.49937636  1  0  0.141487  0  0.936305  0  0  0.161689  0  0.993001  0  0  0.163956  0  0.991685  0  0  0.10427  0.16006  0  0.993955  0
C  C32  1  0.35834523  0.90212591  0.82627863  1  0  0.6803  0  3.917218  0  0  0.623087  0  4.212436  0  0  0.660134  0  4.203333  0  0  0.209624  0.597706  0  4.217937  0
C  C33  1  0.85834382  0.59788161  0.67372608  1  0  0.680106  0  3.91748  0  0  0.622904  0  4.212699  0  0  0.659949  0  4.2036  0  0  0.209521  0.597524  0  4.218198  0
C  C34  1  0.64164740  0.09787198  0.17372149  1  0  0.680237  0  3.917392  0  0  0.622979  0  4.212683  0  0  0.660027  0  4.20358  0  0  0.209543  0.597599  0  4.218182  0
C  C35  1  0.14166402  0.40211713  0.32627111  1  0  0.679959  0  3.91781  0  0  0.622776  0  4.212968  0  0  0.659821  0  4.203877  0  0  0.209416  0.5974  0  4.218459  0
C  C36  1  0.30290569  0.02166211  0.88776484  1  0  -0.089547  0  3.708748  0  0  -0.074123  0  3.95603  0  0  -0.083722  0  3.974007  0  0  -0.000277  -0.068298  0  3.944465  0
C  C37  1  0.80290085  0.47834194  0.61223899  1  0  -0.08959  0  3.709078  0  0  -0.074184  0  3.956392  0  0  -0.083783  0  3.974369  0  0  -0.000293  -0.068362  0  3.944817  0
C  C38  1  0.69709109  0.97833755  0.11223484  1  0  -0.089567  0  3.70895  0  0  -0.074113  0  3.956179  0  0  -0.083712  0  3.974157  0  0  -0.000247  -0.068291  0  3.944609  0
C  C39  1  0.19710285  0.52165944  0.38775638  1  0  -0.089679  0  3.709176  0  0  -0.074247  0  3.956385  0  0  -0.083846  0  3.974364  0  0  -0.000285  -0.068423  0  3.944818  0
C  C40  1  0.31658836  0.11691458  0.83854785  1  0  0.017901  0  3.621492  0  0  -0.027309  0  3.876923  0  0  -0.018603  0  3.888912  0  0  -0.047129  -0.032725  0  3.868855  0
C  C41  1  0.81658116  0.38309759  0.66146073  1  0  0.018032  0  3.621456  0  0  -0.027247  0  3.876858  0  0  -0.018559  0  3.888863  0  0  -0.047046  -0.032659  0  3.868777  0
C  C42  1  0.68340565  0.88308416  0.16144934  1  0  0.017739  0  3.621492  0  0  -0.027294  0  3.876898  0  0  -0.018589  0  3.888887  0  0  -0.047119  -0.03271  0  3.868826  0
C  C43  1  0.18341700  0.61690381  0.33853696  1  0  0.018087  0  3.621375  0  0  -0.027216  0  3.876759  0  0  -0.018528  0  3.888766  0  0  -0.047  -0.032634  0  3.86869  0
C  C44  1  0.25333088  0.22852859  0.88907195  1  0  -0.148728  0  3.648835  0  0  -0.130593  0  3.889587  0  0  -0.142904  0  3.908519  0  0  0.000104  -0.122945  0  3.877224  0
C  C45  1  0.75332145  0.27147512  0.61094202  1  0  -0.149139  0  3.649041  0  0  -0.131079  0  3.889886  0  0  -0.143402  0  3.908817  0  0  -0.000128  -0.12343  0  3.877524  0
C  C46  1  0.74667143  0.77147196  0.11092866  1  0  -0.148634  0  3.648763  0  0  -0.130562  0  3.889612  0  0  -0.142874  0  3.908541  0  0  0.000123  -0.122915  0  3.877249  0
C  C47  1  0.24667671  0.72852720  0.38905892  1  0  -0.149109  0  3.648923  0  0  -0.13101  0  3.889728  0  0  -0.143334  0  3.908662  0  0  -9.1e-05  -0.123362  0  3.877366  0
C  C48  1  0.17395147  0.24297165  0.99093507  1  0  0.36289  0  3.619972  0  0  0.352667  0  3.872409  0  0  0.366456  0  3.888592  0  0  0.151546  0.343451  0  3.861307  0
C  C49  1  0.67395042  0.25703126  0.50907241  1  0  0.362934  0  3.619925  0  0  0.352707  0  3.8724  0  0  0.3665  0  3.888579  0  0  0.151514  0.343489  0  3.861298  0
C  C50  1  0.82605360  0.75703068  0.00906742  1  0  0.362891  0  3.619661  0  0  0.352567  0  3.87232  0  0  0.366355  0  3.888503  0  0  0.151512  0.343349  0  3.861222  0
C  C51  1  0.32604774  0.74296576  0.49092832  1  0  0.362915  0  3.619944  0  0  0.352683  0  3.872389  0  0  0.366474  0  3.888572  0  0  0.151513  0.343466  0  3.861285  0
C  C52  1  0.23337885  0.04281225  0.99055879  1  0  0.112209  0  3.710368  0  0  0.096508  0  3.965623  0  0  0.102455  0  3.982225  0  0  0.120128  0.092401  0  3.954701  0
C  C53  1  0.73338502  0.45719116  0.50944409  1  0  0.112248  0  3.710326  0  0  0.096591  0  3.965541  0  0  0.102544  0  3.982131  0  0  0.120082  0.0925  0  3.954593  0
C  C54  1  0.76660825  0.95719005  0.00944061  1  0  0.11231  0  3.710405  0  0  0.096583  0  3.965647  0  0  0.102532  0  3.982246  0  0  0.120073  0.092486  0  3.954709  0
C  C55  1  0.26661868  0.54280492  0.49055183  1  0  0.112318  0  3.710232  0  0  0.096715  0  3.965315  0  0  0.102671  0  3.981903  0  0  0.120073  0.092607  0  3.954391  0
C  C56  1  0.27078993  0.32864227  0.83389375  1  0  0.680227  0  3.800194  0  0  0.628364  0  4.094308  0  0  0.662632  0  4.085551  0  0  0.24319  0.605136  0  4.099847  0
C  C57  1  0.77079073  0.17137140  0.66612767  1  0  0.680506  0  3.799756  0  0  0.628765  0  4.093677  0  0  0.663055  0  4.084888  0  0  0.243493  0.605537  0  4.099217  0
C  C58  1  0.72920547  0.67135649  0.16610422  1  0  0.680226  0  3.800193  0  0  0.628414  0  4.094269  0  0  0.66269  0  4.085502  0  0  0.243194  0.605188  0  4.099808  0
C  C59  1  0.22920466  0.82863628  0.33387889  1  0  0.680361  0  3.799929  0  0  0.628596  0  4.093884  0  0  0.662884  0  4.085095  0  0  0.243338  0.605369  0  4.099423  0
C  C60  1  0.09054574  0.35593028  0.04972490  1  0  -0.383831  0  3.696178  0  0  -0.472064  0  3.942277  0  0  -0.475491  0  3.947709  0  0  -0.243122  -0.469419  0  3.938417  0
C  C61  1  0.59054857  0.14407351  0.45027906  1  0  -0.383782  0  3.696176  0  0  -0.472027  0  3.942236  0  0  -0.475464  0  3.947674  0  0  -0.24314  -0.469387  0  3.938381  0
C  C62  1  0.90947732  0.64407645  0.95027532  1  0  -0.384008  0  3.695995  0  0  -0.47228  0  3.9421  0  0  -0.475706  0  3.947534  0  0  -0.243205  -0.469637  0  3.938245  0
C  C63  1  0.40944821  0.85592615  0.54972138  1  0  -0.383731  0  3.696037  0  0  -0.47195  0  3.942135  0  0  -0.475381  0  3.947573  0  0  -0.243093  -0.469309  0  3.938278  0
C  C64  1  0.22643872  0.94354245  0.05033512  1  0  0.62597  0  3.898112  0  0  0.568787  0  4.209425  0  0  0.601616  0  4.201924  0  0  0.211888  0.546494  0  4.213791  0
C  C65  1  0.72644572  0.55645752  0.44966239  1  0  0.625924  0  3.89811  0  0  0.568751  0  4.209382  0  0  0.60158  0  4.201879  0  0  0.211945  0.546455  0  4.213747  0
C  C66  1  0.77354423  0.05646251  0.94966476  1  0  0.625828  0  3.898207  0  0  0.56869  0  4.209469  0  0  0.601516  0  4.201975  0  0  0.211911  0.546395  0  4.213833  0
C  C67  1  0.27355244  0.44353681  0.55033475  1  0  0.625863  0  3.898167  0  0  0.568648  0  4.209472  0  0  0.601472  0  4.201972  0  0  0.211893  0.546358  0  4.213832  0
N  N68  1  0.17035822  0.15050590  0.03846225  1  0  -0.398091  0  3.217732  0  0  -0.329046  0  3.480203  0  0  -0.350905  0  3.497046  0  0  -0.318949  -0.314135  0  3.468572  0
N  N69  1  0.67035908  0.34949066  0.46154132  1  0  -0.398084  0  3.217428  0  0  -0.329076  0  3.479933  0  0  -0.350935  0  3.496767  0  0  -0.318927  -0.31417  0  3.468296  0
N  N70  1  0.82963995  0.84949819  0.96153979  1  0  -0.398159  0  3.217703  0  0  -0.329047  0  3.480203  0  0  -0.350906  0  3.497044  0  0  -0.318959  -0.314139  0  3.468568  0
N  N71  1  0.32963770  0.65050632  0.53845632  1  0  -0.39814  0  3.217429  0  0  -0.329126  0  3.479873  0  0  -0.350984  0  3.496707  0  0  -0.318942  -0.314215  0  3.468241  0
O  O72  1  0.22777368  0.83120166  0.78377161  1  0  -0.700418  0  2.125433  0  0  -0.616413  0  2.398671  0  0  -0.652077  0  2.386235  0  0  -0.331873  -0.591152  0  2.406218  0
O  O73  1  0.72777496  0.66880108  0.71622680  1  0  -0.700348  0  2.125616  0  0  -0.61636  0  2.39889  0  0  -0.65202  0  2.386449  0  0  -0.331868  -0.591105  0  2.406441  0
O  O74  1  0.77222310  0.16879447  0.21622818  1  0  -0.700398  0  2.125569  0  0  -0.616383  0  2.398818  0  0  -0.652046  0  2.386382  0  0  -0.331868  -0.591123  0  2.406365  0
O  O75  1  0.27223288  0.33119420  0.28377591  1  0  -0.700356  0  2.12578  0  0  -0.616356  0  2.398977  0  0  -0.652013  0  2.386536  0  0  -0.331844  -0.591099  0  2.406526  0
O  O76  1  0.52533253  0.87698168  0.80915467  1  0  -0.613883  0  1.997235  0  0  -0.557919  0  2.240394  0  0  -0.586171  0  2.232032  0  0  -0.303757  -0.537886  0  2.245486  0
O  O77  1  0.02533148  0.62302555  0.69085758  1  0  -0.613712  0  1.997186  0  0  -0.557783  0  2.240392  0  0  -0.586032  0  2.232031  0  0  -0.303635  -0.537751  0  2.245483  0
O  O78  1  0.47466010  0.12301627  0.19085008  1  0  -0.61382  0  1.997243  0  0  -0.55785  0  2.240448  0  0  -0.586102  0  2.232088  0  0  -0.303647  -0.537818  0  2.245538  0
O  O79  1  0.97467498  0.37697408  0.30913978  1  0  -0.613621  0  1.997263  0  0  -0.557693  0  2.240418  0  0  -0.585944  0  2.23206  0  0  -0.303575  -0.537661  0  2.245505  0
O  O80  1  0.34557427  0.29727299  0.73896034  1  0  -0.551835  0  2.086728  0  0  -0.5044  0  2.306302  0  0  -0.527437  0  2.289569  0  0  -0.326163  -0.488361  0  2.316191  0
O  O81  1  0.84559020  0.20273160  0.76105720  1  0  -0.551741  0  2.086748  0  0  -0.504452  0  2.306248  0  0  -0.527487  0  2.289485  0  0  -0.326126  -0.488403  0  2.316133  0
O  O82  1  0.65442113  0.70272402  0.26103884  1  0  -0.551888  0  2.086675  0  0  -0.504443  0  2.306273  0  0  -0.52748  0  2.289525  0  0  -0.326143  -0.488396  0  2.316136  0
O  O83  1  0.15439828  0.79726724  0.23894849  1  0  -0.551752  0  2.086823  0  0  -0.50445  0  2.306314  0  0  -0.527484  0  2.289484  0  0  -0.326088  -0.4884  0  2.316196  0
O  O84  1  0.21983779  0.43072226  0.87452323  1  0  -0.571066  0  1.986171  0  0  -0.514961  0  2.198153  0  0  -0.537718  0  2.189186  0  0  -0.278868  -0.499387  0  2.204016  0
O  O85  1  0.71982444  0.06928556  0.62549110  1  0  -0.571344  0  1.985666  0  0  -0.515234  0  2.197532  0  0  -0.537991  0  2.188538  0  0  -0.279088  -0.499662  0  2.203393  0
O  O86  1  0.78016037  0.56927734  0.12547181  1  0  -0.571088  0  1.986152  0  0  -0.514994  0  2.198123  0  0  -0.537753  0  2.189143  0  0  -0.278884  -0.499423  0  2.203983  0
O  O87  1  0.28017511  0.93071671  0.37450520  1  0  -0.571156  0  1.985884  0  0  -0.515075  0  2.197793  0  0  -0.537828  0  2.188795  0  0  -0.279  -0.499505  0  2.203655  0
O  O88  1  0.14157769  0.96475082  0.14017031  1  0  -0.654285  0  2.113834  0  0  -0.583359  0  2.365112  0  0  -0.614278  0  2.355473  0  0  -0.317077  -0.561616  0  2.370665  0
O  O89  1  0.64158373  0.53524480  0.35982385  1  0  -0.654393  0  2.113844  0  0  -0.583403  0  2.365165  0  0  -0.614324  0  2.355546  0  0  -0.317143  -0.561669  0  2.370717  0
O  O90  1  0.85841633  0.03524707  0.85982981  1  0  -0.654274  0  2.113889  0  0  -0.583336  0  2.365147  0  0  -0.614251  0  2.355516  0  0  -0.317106  -0.561594  0  2.3707  0
O  O91  1  0.35840890  0.46475484  0.64017505  1  0  -0.654333  0  2.113941  0  0  -0.583304  0  2.36519  0  0  -0.614237  0  2.355607  0  0  -0.317092  -0.561571  0  2.370744  0
O  O92  1  0.30074927  0.84752426  0.00875572  1  0  -0.577295  0  1.967346  0  0  -0.529494  0  2.19221  0  0  -0.553081  0  2.186013  0  0  -0.297335  -0.51298  0  2.196013  0
O  O93  1  0.80075239  0.65247904  0.49124253  1  0  -0.577205  0  1.967287  0  0  -0.529463  0  2.192202  0  0  -0.55305  0  2.186005  0  0  -0.297335  -0.51295  0  2.196006  0
O  O94  1  0.69923645  0.15247796  0.99123595  1  0  -0.577165  0  1.967356  0  0  -0.529434  0  2.192267  0  0  -0.553017  0  2.186072  0  0  -0.297328  -0.512923  0  2.19607  0
O  O95  1  0.19924577  0.34751446  0.50875909  1  0  -0.577185  0  1.967358  0  0  -0.52942  0  2.19224  0  0  -0.553001  0  2.186045  0  0  -0.297322  -0.512906  0  2.196038  0
O  O96  1  0.90653844  0.86813591  0.61846611  1  0  -0.834025  0  1.81882  0  0  -0.765728  0  1.996192  0  0  -0.789484  0  1.963635  0  0  -0.582356  -0.748932  0  2.018814  0
O  O97  1  0.40653920  0.63187549  0.88152988  1  0  -0.834104  0  1.818721  0  0  -0.765755  0  1.996058  0  0  -0.789511  0  1.963497  0  0  -0.582261  -0.748959  0  2.018681  0
O  O98  1  0.09346249  0.13186375  0.38153357  1  0  -0.834013  0  1.818827  0  0  -0.765725  0  1.996209  0  0  -0.789483  0  1.963649  0  0  -0.582354  -0.74893  0  2.018832  0
O  O99  1  0.59346865  0.36812419  0.11847211  1  0  -0.834092  0  1.818712  0  0  -0.765762  0  1.996038  0  0  -0.789522  0  1.963468  0  0  -0.582333  -0.748967  0  2.018666  0
