# generated using pymatgen
data_ZnPH9C9O4
_symmetry_space_group_name_H-M   'P 1'
_cell_length_a   7.96189167
_cell_length_b   15.38630315
_cell_length_c   15.38545327
_cell_angle_alpha   117.07414542
_cell_angle_beta   99.94528108
_cell_angle_gamma   99.93263788
_symmetry_Int_Tables_number   1
_chemical_formula_structural   ZnPH9C9O4
_chemical_formula_sum   'Zn6 P6 H54 C54 O24'
_cell_volume   1583.82846591
_cell_formula_units_Z   6
loop_
 _symmetry_equiv_pos_site_id
 _symmetry_equiv_pos_as_xyz
  1  'x, y, z'
loop_
 _atom_site_type_symbol
 _atom_site_label
 _atom_site_symmetry_multiplicity
 _atom_site_fract_x
 _atom_site_fract_y
 _atom_site_fract_z
 _atom_site_occupancy
 _atom_site_hle17_bader_spin_density
 _atom_site_hle17_ddec_charge
 _atom_site_hle17_ddec_spin_density
 _atom_site_hle17_ddec_sum_bond_order
 _atom_site_hle17_magmom
 _atom_site_hse06_10hf_bader_spin_density
 _atom_site_hse06_10hf_ddec_charge
 _atom_site_hse06_10hf_ddec_spin_density
 _atom_site_hse06_10hf_ddec_sum_bond_order
 _atom_site_hse06_10hf_magmom
 _atom_site_hse06_bader_spin_density
 _atom_site_hse06_ddec_charge
 _atom_site_hse06_ddec_spin_density
 _atom_site_hse06_ddec_sum_bond_order
 _atom_site_hse06_magmom
 _atom_site_pbe_bader_spin_density
 _atom_site_pbe_cm5_charge
 _atom_site_pbe_ddec_charge
 _atom_site_pbe_ddec_spin_density
 _atom_site_pbe_ddec_sum_bond_order
 _atom_site_pbe_magmom
Zn  Zn0  1  0.18690852  0.15032126  0.60325108  1  0  1.20887  0  1.764915  0  0  1.038928  0  2.255468  0  0  1.085966  0  2.189702  0  0  0.711432  1.005567  0  2.301043  0
Zn  Zn1  1  0.03672880  0.45288070  0.84964864  1  0  1.208851  0  1.76538  0  0  1.038995  0  2.255996  0  0  1.086037  0  2.190206  0  0  0.711306  1.005635  0  2.301592  0
Zn  Zn2  1  0.58408932  0.39681555  0.54721364  1  0  1.209048  0  1.76427  0  0  1.03957  0  2.254502  0  0  1.086608  0  2.188757  0  0  0.711437  1.006207  0  2.300071  0
Zn  Zn3  1  0.81309775  0.84968009  0.39674768  1  0  1.208863  0  1.764975  0  0  1.038906  0  2.255532  0  0  1.085944  0  2.189763  0  0  0.711442  1.005547  0  2.301105  0
Zn  Zn4  1  0.96326678  0.54711456  0.15034835  1  0  1.208797  0  1.765454  0  0  1.038894  0  2.256088  0  0  1.08594  0  2.190295  0  0  0.711261  1.005537  0  2.301683  0
Zn  Zn5  1  0.41590195  0.60318123  0.45278951  1  0  1.209  0  1.764307  0  0  1.039519  0  2.254543  0  0  1.086562  0  2.188799  0  0  0.71137  1.006162  0  2.300114  0
P  P6  1  0.77790263  0.34603686  0.94693823  1  0  1.258194  0  4.670793  0  0  1.131323  0  5.138747  0  0  1.171642  0  5.115717  0  0  0.299041  1.103179  0  5.154221  0
P  P7  1  0.43220092  0.60105865  0.65397539  1  0  1.257258  0  4.672533  0  0  1.130925  0  5.140555  0  0  1.171266  0  5.117601  0  0  0.299076  1.102796  0  5.155963  0
P  P8  1  0.83068152  0.05316372  0.39915802  1  0  1.257542  0  4.671934  0  0  1.130459  0  5.1397  0  0  1.170796  0  5.116659  0  0  0.298906  1.102318  0  5.155137  0
P  P9  1  0.22209321  0.65396144  0.05306212  1  0  1.258281  0  4.670846  0  0  1.131478  0  5.138803  0  0  1.171801  0  5.115765  0  0  0.299163  1.103338  0  5.15426  0
P  P10  1  0.56779520  0.39894270  0.34603288  1  0  1.257116  0  4.672485  0  0  1.130874  0  5.140486  0  0  1.171212  0  5.117532  0  0  0.299069  1.102756  0  5.155891  0
P  P11  1  0.16933034  0.94683611  0.60083664  1  0  1.257597  0  4.671855  0  0  1.130574  0  5.139632  0  0  1.170915  0  5.116581  0  0  0.299015  1.10243  0  5.155072  0
H  H12  1  0.67555522  0.18937087  0.00180759  1  0  0.086772  0  0.957992  0  0  0.098188  0  1.02021  0  0  0.100623  0  1.019806  0  0  0.100345  0.096427  0  1.020564  0
H  H13  1  0.48709938  0.81264583  0.81027149  1  0  0.086827  0  0.95594  0  0  0.097807  0  1.01882  0  0  0.100198  0  1.018445  0  0  0.099845  0.096081  0  1.01915  0
H  H14  1  0.67392038  0.99793658  0.18769703  1  0  0.086487  0  0.957961  0  0  0.097646  0  1.020454  0  0  0.100004  0  1.02017  0  0  0.099764  0.095928  0  1.020756  0
H  H15  1  0.32443754  0.81062896  0.99818993  1  0  0.086722  0  0.957964  0  0  0.09815  0  1.020182  0  0  0.100589  0  1.019769  0  0  0.100329  0.096389  0  1.020535  0
H  H16  1  0.51290993  0.18736162  0.18972901  1  0  0.086804  0  0.956018  0  0  0.097836  0  1.018849  0  0  0.100227  0  1.018474  0  0  0.09985  0.096112  0  1.01918  0
H  H17  1  0.32608176  0.00206173  0.81228957  1  0  0.086534  0  0.957928  0  0  0.097684  0  1.020443  0  0  0.100035  0  1.020162  0  0  0.099787  0.095964  0  1.020744  0
H  H18  1  0.67281307  0.00708345  0.92128377  1  0  0.072427  0  0.987271  0  0  0.0839  0  1.050141  0  0  0.086294  0  1.049209  0  0  0.093418  0.082173  0  1.050905  0
H  H19  1  0.66637062  0.91450200  0.99268660  1  0  0.07328  0  0.987032  0  0  0.084427  0  1.050218  0  0  0.086867  0  1.049216  0  0  0.093347  0.082688  0  1.051009  0
H  H20  1  0.75091093  0.07835725  0.08567610  1  0  0.07257  0  0.987348  0  0  0.08416  0  1.050112  0  0  0.086579  0  1.049145  0  0  0.093386  0.082424  0  1.050896  0
H  H21  1  0.32719411  0.99291715  0.07871797  1  0  0.072296  0  0.9873  0  0  0.083787  0  1.050163  0  0  0.086182  0  1.049227  0  0  0.093371  0.082059  0  1.050926  0
H  H22  1  0.33363652  0.08550621  0.00731471  1  0  0.073323  0  0.987006  0  0  0.084456  0  1.050191  0  0  0.086892  0  1.0492  0  0  0.093403  0.082718  0  1.05098  0
H  H23  1  0.24909402  0.92164411  0.91431344  1  0  0.072491  0  0.987385  0  0  0.084079  0  1.05015  0  0  0.086493  0  1.049196  0  0  0.09336  0.082343  0  1.050934  0
H  H24  1  0.77596508  0.92942649  0.76730491  1  0  0.092261  0  0.956923  0  0  0.102884  0  1.016606  0  0  0.104832  0  1.017366  0  0  0.100923  0.101481  0  1.016131  0
H  H25  1  0.84639501  0.83813704  0.07071628  1  0  0.091028  0  0.957524  0  0  0.102047  0  1.016794  0  0  0.103982  0  1.017576  0  0  0.100725  0.100656  0  1.016297  0
H  H26  1  0.00730491  0.23269807  0.16187839  1  0  0.091886  0  0.957442  0  0  0.10308  0  1.016414  0  0  0.104955  0  1.017249  0  0  0.101142  0.101676  0  1.015937  0
H  H27  1  0.22405513  0.07057715  0.23270392  1  0  0.092186  0  0.956994  0  0  0.102815  0  1.016673  0  0  0.10476  0  1.017439  0  0  0.100874  0.101413  0  1.016193  0
H  H28  1  0.15360858  0.16187422  0.92929066  1  0  0.091056  0  0.957516  0  0  0.102093  0  1.016758  0  0  0.104022  0  1.017534  0  0  0.100714  0.1007  0  1.016265  0
H  H29  1  0.99269685  0.76730710  0.83811586  1  0  0.09176  0  0.957667  0  0  0.102987  0  1.016602  0  0  0.104858  0  1.017461  0  0  0.101128  0.101635  0  1.016073  0
H  H30  1  0.87672876  0.03366568  0.69016302  1  0  0.099229  0  0.958202  0  0  0.109103  0  1.018153  0  0  0.112177  0  1.016752  0  0  0.102625  0.106847  0  1.019321  0
H  H31  1  0.84266261  0.65671113  0.96676853  1  0  0.099498  0  0.956127  0  0  0.109713  0  1.015758  0  0  0.112813  0  1.014332  0  0  0.102548  0.107452  0  1.016945  0
H  H32  1  0.18521256  0.31027112  0.34326906  1  0  0.098888  0  0.956658  0  0  0.108652  0  1.016872  0  0  0.111754  0  1.015442  0  0  0.102264  0.106397  0  1.01804  0
H  H33  1  0.12328366  0.96633263  0.30984009  1  0  0.099238  0  0.958263  0  0  0.109137  0  1.018182  0  0  0.112212  0  1.016779  0  0  0.102623  0.106884  0  1.019353  0
H  H34  1  0.15733856  0.34329784  0.03323845  1  0  0.0996  0  0.956185  0  0  0.109768  0  1.015875  0  0  0.112866  0  1.01445  0  0  0.102544  0.107504  0  1.017062  0
H  H35  1  0.81477737  0.68973329  0.65672769  1  0  0.098787  0  0.956724  0  0  0.108625  0  1.016868  0  0  0.111729  0  1.015436  0  0  0.102272  0.106371  0  1.018034  0
H  H36  1  0.87303568  0.21377954  0.76718627  1  0  0.098897  0  0.952599  0  0  0.110378  0  1.011248  0  0  0.11355  0  1.009473  0  0  0.104465  0.108038  0  1.012669  0
H  H37  1  0.65930525  0.55358540  0.78652920  1  0  0.09896  0  0.952655  0  0  0.110135  0  1.011344  0  0  0.113376  0  1.009487  0  0  0.104727  0.107787  0  1.012737  0
H  H38  1  0.10540613  0.23333534  0.44662823  1  0  0.099003  0  0.952678  0  0  0.110585  0  1.011079  0  0  0.113749  0  1.009322  0  0  0.104618  0.108234  0  1.0125  0
H  H39  1  0.12696818  0.78621952  0.23281383  1  0  0.09885  0  0.952636  0  0  0.110375  0  1.011231  0  0  0.113548  0  1.009455  0  0  0.10445  0.108025  0  1.012665  0
H  H40  1  0.34068614  0.44641672  0.21347769  1  0  0.098957  0  0.952761  0  0  0.110092  0  1.01149  0  0  0.113334  0  1.009632  0  0  0.104713  0.107744  0  1.012883  0
H  H41  1  0.89458520  0.76666678  0.55336631  1  0  0.098951  0  0.95273  0  0  0.110556  0  1.011098  0  0  0.113719  0  1.009341  0  0  0.104629  0.108191  0  1.012532  0
H  H42  1  0.48469321  0.31831533  0.96912752  1  0  0.120814  0  0.956847  0  0  0.135437  0  1.014324  0  0  0.136531  0  1.016514  0  0  0.100393  0.134625  0  1.012884  0
H  H43  1  0.16646358  0.65061028  0.68177086  1  0  0.120812  0  0.958081  0  0  0.13558  0  1.015533  0  0  0.136666  0  1.01774  0  0  0.100561  0.134801  0  1.014072  0
H  H44  1  0.51530310  0.03119767  0.34912156  1  0  0.121345  0  0.95652  0  0  0.135823  0  1.013999  0  0  0.136914  0  1.016202  0  0  0.100357  0.135026  0  1.012533  0
H  H45  1  0.51529560  0.68167917  0.03086658  1  0  0.120768  0  0.957005  0  0  0.135403  0  1.014452  0  0  0.136494  0  1.016644  0  0  0.100406  0.134596  0  1.013007  0
H  H46  1  0.83352652  0.34938422  0.31822660  1  0  0.120817  0  0.95812  0  0  0.135614  0  1.01555  0  0  0.136699  0  1.017758  0  0  0.10057  0.134835  0  1.014095  0
H  H47  1  0.48470077  0.96880140  0.65087984  1  0  0.121274  0  0.956558  0  0  0.135799  0  1.014012  0  0  0.136889  0  1.016216  0  0  0.100358  0.135  0  1.012544  0
H  H48  1  0.56362003  0.43510875  0.97303577  1  0  0.139983  0  0.944373  0  0  0.154652  0  1.000524  0  0  0.157648  0  0.99901  0  0  0.110677  0.152445  0  1.001779  0
H  H49  1  0.12885146  0.53794450  0.56486952  1  0  0.140512  0  0.943373  0  0  0.15476  0  1.00026  0  0  0.157769  0  0.998738  0  0  0.110674  0.152544  0  1.001541  0
H  H50  1  0.58997559  0.02699674  0.46189330  1  0  0.140933  0  0.943084  0  0  0.15501  0  0.999617  0  0  0.157993  0  0.998144  0  0  0.110974  0.152808  0  1.000863  0
H  H51  1  0.43636918  0.56488651  0.02696196  1  0  0.139976  0  0.944481  0  0  0.154641  0  1.000618  0  0  0.157635  0  0.999107  0  0  0.11067  0.152437  0  1.001865  0
H  H52  1  0.87115103  0.46204923  0.43513063  1  0  0.140519  0  0.943371  0  0  0.154763  0  1.000274  0  0  0.157772  0  0.998753  0  0  0.110674  0.15255  0  1.001557  0
H  H53  1  0.41004177  0.97300385  0.53810739  1  0  0.140891  0  0.94307  0  0  0.154987  0  0.999605  0  0  0.157966  0  0.998142  0  0  0.110982  0.152784  0  1.00085  0
H  H54  1  0.53281224  0.33023326  0.77967007  1  0  0.123797  0  0.912418  0  0  0.142467  0  0.963695  0  0  0.144687  0  0.963252  0  0  0.112588  0.140865  0  0.964086  0
H  H55  1  0.20284080  0.44899743  0.66921319  1  0  0.125111  0  0.911853  0  0  0.143394  0  0.963269  0  0  0.145633  0  0.962727  0  0  0.112939  0.141772  0  0.963698  0
H  H56  1  0.75315802  0.22036319  0.55062317  1  0  0.124696  0  0.912661  0  0  0.143394  0  0.963785  0  0  0.145632  0  0.963369  0  0  0.112926  0.141788  0  0.964177  0
H  H57  1  0.46718206  0.66976961  0.22033093  1  0  0.123812  0  0.912333  0  0  0.142492  0  0.963642  0  0  0.144715  0  0.963192  0  0  0.112573  0.140892  0  0.964034  0
H  H58  1  0.79714804  0.55099707  0.33078611  1  0  0.125091  0  0.91187  0  0  0.143392  0  0.963254  0  0  0.145637  0  0.962713  0  0  0.112928  0.141772  0  0.96368  0
H  H59  1  0.24684929  0.77963512  0.44937624  1  0  0.124682  0  0.912533  0  0  0.143387  0  0.963683  0  0  0.145622  0  0.963265  0  0  0.112914  0.141781  0  0.964076  0
H  H60  1  0.41896814  0.22178538  0.78065987  1  0  0.1035  0  0.950131  0  0  0.119298  0  1.011288  0  0  0.121385  0  1.010628  0  0  0.101632  0.117736  0  1.011911  0
H  H61  1  0.19789837  0.55827910  0.77797767  1  0  0.103403  0  0.949849  0  0  0.118986  0  1.011218  0  0  0.121054  0  1.010547  0  0  0.101423  0.117438  0  1.011836  0
H  H62  1  0.63825729  0.21960203  0.44129427  1  0  0.103994  0  0.949645  0  0  0.119711  0  1.011022  0  0  0.121847  0  1.010339  0  0  0.101665  0.118154  0  1.011629  0
H  H63  1  0.58103582  0.77821140  0.21933335  1  0  0.103509  0  0.950134  0  0  0.119359  0  1.011268  0  0  0.121439  0  1.010618  0  0  0.101622  0.117798  0  1.011892  0
H  H64  1  0.80209289  0.44171768  0.22202288  1  0  0.103265  0  0.949845  0  0  0.118867  0  1.011208  0  0  0.120925  0  1.010551  0  0  0.101394  0.11732  0  1.011826  0
H  H65  1  0.36174900  0.78039933  0.55870839  1  0  0.103906  0  0.949687  0  0  0.119628  0  1.011083  0  0  0.12176  0  1.010401  0  0  0.101664  0.118075  0  1.011683  0
C  C66  1  0.77451199  0.21349302  0.88957189  1  0  -0.227378  0  3.770432  0  0  -0.184508  0  4.00688  0  0  -0.194439  0  4.032601  0  0  -0.028598  -0.177843  0  3.989519  0
C  C67  1  0.56149581  0.67627892  0.78652225  1  0  -0.227275  0  3.771944  0  0  -0.184445  0  4.008004  0  0  -0.194397  0  4.033756  0  0  -0.028432  -0.177775  0  3.990651  0
C  C68  1  0.88478628  0.11057790  0.32400026  1  0  -0.226667  0  3.770577  0  0  -0.183376  0  4.006186  0  0  -0.193315  0  4.031932  0  0  -0.02818  -0.176706  0  3.988808  0
C  C69  1  0.22548816  0.78650376  0.11042295  1  0  -0.22736  0  3.770165  0  0  -0.184689  0  4.0069  0  0  -0.19463  0  4.032622  0  0  -0.028607  -0.178019  0  3.989528  0
C  C70  1  0.43850016  0.32372472  0.21348379  1  0  -0.227067  0  3.771592  0  0  -0.1844  0  4.007863  0  0  -0.19435  0  4.033617  0  0  -0.028486  -0.177727  0  3.990513  0
C  C71  1  0.11521293  0.88941964  0.67598704  1  0  -0.226534  0  3.770497  0  0  -0.183342  0  4.006227  0  0  -0.193282  0  4.031973  0  0  -0.028151  -0.17667  0  3.988842  0
C  C72  1  0.71787527  0.15487655  0.93289036  1  0  -0.054401  0  3.765225  0  0  -0.076222  0  4.007493  0  0  -0.076534  0  4.030152  0  0  -0.085491  -0.075839  0  3.992061  0
C  C73  1  0.56364056  0.77824372  0.84496508  1  0  -0.052879  0  3.763875  0  0  -0.074294  0  4.005949  0  0  -0.074534  0  4.028631  0  0  -0.084942  -0.073964  0  3.990503  0
C  C74  1  0.78483427  0.06701424  0.22202747  1  0  -0.053759  0  3.76439  0  0  -0.075444  0  4.006552  0  0  -0.075711  0  4.029236  0  0  -0.085059  -0.075095  0  3.991109  0
C  C75  1  0.28211825  0.84512481  0.06710858  1  0  -0.054381  0  3.765217  0  0  -0.076169  0  4.007547  0  0  -0.076474  0  4.030203  0  0  -0.085516  -0.075786  0  3.992113  0
C  C76  1  0.43635397  0.22176220  0.15503538  1  0  -0.052857  0  3.764024  0  0  -0.074272  0  4.006146  0  0  -0.074513  0  4.028832  0  0  -0.084876  -0.07394  0  3.990696  0
C  C77  1  0.21516584  0.93298254  0.77796021  1  0  -0.053939  0  3.764552  0  0  -0.075604  0  4.006793  0  0  -0.075861  0  4.029469  0  0  -0.085147  -0.075254  0  3.991345  0
C  C78  1  0.71710667  0.05293184  0.88808989  1  0  -0.087436  0  3.793037  0  0  -0.098172  0  4.041694  0  0  -0.10185  0  4.064086  0  0  -0.094458  -0.095671  0  4.026442  0
C  C79  1  0.66464178  0.83542351  0.94695976  1  0  -0.089947  0  3.792383  0  0  -0.100557  0  4.041316  0  0  -0.104275  0  4.063685  0  0  -0.094806  -0.09805  0  4.026081  0
C  C80  1  0.82847233  0.11172139  0.16473847  1  0  -0.087576  0  3.792301  0  0  -0.098539  0  4.041244  0  0  -0.102224  0  4.063582  0  0  -0.094072  -0.096041  0  4.026005  0
C  C81  1  0.28289490  0.94707028  0.11191270  1  0  -0.087259  0  3.793024  0  0  -0.098002  0  4.041674  0  0  -0.101681  0  4.064066  0  0  -0.094379  -0.095501  0  4.026423  0
C  C82  1  0.33536028  0.16458470  0.05304370  1  0  -0.090065  0  3.792455  0  0  -0.100675  0  4.041419  0  0  -0.104392  0  4.063782  0  0  -0.094899  -0.098167  0  4.026188  0
C  C83  1  0.17153503  0.88828225  0.83525362  1  0  -0.087509  0  3.792126  0  0  -0.098442  0  4.041044  0  0  -0.102126  0  4.063376  0  0  -0.094066  -0.095947  0  4.025819  0
C  C84  1  0.77463776  0.00880974  0.80102397  1  0  -0.061007  0  3.753014  0  0  -0.074452  0  3.997921  0  0  -0.074832  0  4.018781  0  0  -0.085175  -0.074035  0  3.98368  0
C  C85  1  0.76585456  0.79246156  0.99130048  1  0  -0.059165  0  3.749931  0  0  -0.07282  0  3.994906  0  0  -0.073215  0  4.015815  0  0  -0.085286  -0.072392  0  3.980642  0
C  C86  1  0.97258799  0.19898830  0.20759252  1  0  -0.06106  0  3.752221  0  0  -0.074816  0  3.997214  0  0  -0.075149  0  4.018122  0  0  -0.085861  -0.074387  0  3.982966  0
C  C87  1  0.22537581  0.99119085  0.19898028  1  0  -0.060891  0  3.752928  0  0  -0.074333  0  3.997851  0  0  -0.074713  0  4.018711  0  0  -0.085111  -0.073915  0  3.983613  0
C  C88  1  0.23413960  0.20754360  0.00870090  1  0  -0.059146  0  3.749846  0  0  -0.072807  0  3.994797  0  0  -0.073191  0  4.015695  0  0  -0.085293  -0.072379  0  3.980531  0
C  C89  1  0.02740766  0.80101229  0.79239845  1  0  -0.060954  0  3.752156  0  0  -0.074741  0  3.997171  0  0  -0.075081  0  4.018101  0  0  -0.085865  -0.074358  0  3.982904  0
C  C90  1  0.83067261  0.06687540  0.75763736  1  0  -0.063578  0  3.740554  0  0  -0.074594  0  3.988188  0  0  -0.07731  0  4.008384  0  0  -0.086252  -0.072803  0  3.974515  0
C  C91  1  0.76367237  0.69097665  0.93340531  1  0  -0.064526  0  3.73888  0  0  -0.075948  0  3.986766  0  0  -0.078698  0  4.007015  0  0  -0.086159  -0.074157  0  3.973106  0
C  C92  1  0.07204743  0.24263373  0.30908294  1  0  -0.062464  0  3.738744  0  0  -0.07357  0  3.986545  0  0  -0.076314  0  4.006772  0  0  -0.085394  -0.071776  0  3.972857  0
C  C93  1  0.16933165  0.93312443  0.24236637  1  0  -0.063706  0  3.74068  0  0  -0.074749  0  3.988324  0  0  -0.077467  0  4.00852  0  0  -0.086275  -0.072961  0  3.974656  0
C  C94  1  0.23632293  0.30903079  0.06659722  1  0  -0.064766  0  3.738978  0  0  -0.076159  0  3.98684  0  0  -0.07891  0  4.007084  0  0  -0.086224  -0.074366  0  3.973175  0
C  C95  1  0.92794758  0.75737067  0.69091101  1  0  -0.062312  0  3.73859  0  0  -0.073501  0  3.986449  0  0  -0.076243  0  4.00667  0  0  -0.085375  -0.071709  0  3.97277  0
C  C96  1  0.82944733  0.16860912  0.80126023  1  0  -0.043906  0  3.729434  0  0  -0.063528  0  3.96411  0  0  -0.063744  0  3.98586  0  0  -0.077896  -0.063206  0  3.949324  0
C  C97  1  0.66100158  0.63284679  0.83158782  1  0  -0.043822  0  3.731427  0  0  -0.063081  0  3.966319  0  0  -0.063342  0  3.988038  0  0  -0.078017  -0.062738  0  3.951571  0
C  C98  1  0.02766968  0.19907301  0.36736583  1  0  -0.044658  0  3.731638  0  0  -0.064375  0  3.966109  0  0  -0.064596  0  3.987921  0  0  -0.078097  -0.064039  0  3.951322  0
C  C99  1  0.17055654  0.83138995  0.19874053  1  0  -0.043821  0  3.729155  0  0  -0.063402  0  3.963854  0  0  -0.06361  0  3.985596  0  0  -0.077861  -0.063073  0  3.949073  0
C  C100  1  0.33899591  0.36715990  0.16841910  1  0  -0.043799  0  3.731224  0  0  -0.062961  0  3.966099  0  0  -0.063223  0  3.987819  0  0  -0.077916  -0.062618  0  3.95135  0
C  C101  1  0.97232431  0.80092682  0.63262400  1  0  -0.044643  0  3.731469  0  0  -0.064335  0  3.965966  0  0  -0.064552  0  3.987777  0  0  -0.078083  -0.063987  0  3.951183  0
C  C102  1  0.55153889  0.35324350  0.93122976  1  0  -0.389228  0  3.688631  0  0  -0.410296  0  3.935456  0  0  -0.417927  0  3.944961  0  0  -0.172102  -0.404953  0  3.92902  0
C  C103  1  0.19863511  0.57787273  0.64674711  1  0  -0.389131  0  3.688198  0  0  -0.410253  0  3.93525  0  0  -0.41799  0  3.944852  0  0  -0.171906  -0.404918  0  3.928816  0
C  C104  1  0.61998681  0.06894697  0.42198585  1  0  -0.390601  0  3.687138  0  0  -0.410723  0  3.933522  0  0  -0.418365  0  3.943116  0  0  -0.172079  -0.405369  0  3.92706  0
C  C105  1  0.44845720  0.64675024  0.06876723  1  0  -0.38922  0  3.688681  0  0  -0.410222  0  3.935455  0  0  -0.417851  0  3.944956  0  0  -0.172081  -0.404882  0  3.929023  0
C  C106  1  0.80136125  0.42212405  0.35325389  1  0  -0.389175  0  3.688068  0  0  -0.410336  0  3.935122  0  0  -0.418069  0  3.944721  0  0  -0.171897  -0.405012  0  3.928706  0
C  C107  1  0.38002419  0.93105362  0.57801492  1  0  -0.390448  0  3.687038  0  0  -0.410675  0  3.933555  0  0  -0.418321  0  3.943142  0  0  -0.172085  -0.405317  0  3.927084  0
C  C108  1  0.44998823  0.30533984  0.81933990  1  0  -0.238344  0  3.704687  0  0  -0.276999  0  3.948625  0  0  -0.283053  0  3.958434  0  0  -0.159921  -0.272758  0  3.941861  0
C  C109  1  0.14509671  0.51362379  0.69441974  1  0  -0.239665  0  3.705079  0  0  -0.277813  0  3.948556  0  0  -0.283722  0  3.958114  0  0  -0.160559  -0.273614  0  3.94192  0
C  C110  1  0.63056737  0.18083280  0.48611331  1  0  -0.240957  0  3.705162  0  0  -0.279769  0  3.949386  0  0  -0.285944  0  3.959248  0  0  -0.161248  -0.27553  0  3.942672  0
C  C111  1  0.55001270  0.69465847  0.18065895  1  0  -0.238397  0  3.704444  0  0  -0.277198  0  3.948555  0  0  -0.28325  0  3.958363  0  0  -0.159948  -0.272967  0  3.941805  0
C  C112  1  0.85489786  0.48637452  0.30558050  1  0  -0.239415  0  3.705025  0  0  -0.277512  0  3.94852  0  0  -0.283411  0  3.95807  0  0  -0.160458  -0.273307  0  3.941882  0
C  C113  1  0.36944453  0.81916703  0.51388849  1  0  -0.240897  0  3.704892  0  0  -0.279686  0  3.949171  0  0  -0.285846  0  3.959014  0  0  -0.161231  -0.275449  0  3.942456  0
C  C114  1  0.27908800  0.33230083  0.79917998  1  0  0.727746  0  3.797382  0  0  0.68223  0  4.087614  0  0  0.71665  0  4.081398  0  0  0.227751  0.658752  0  4.091044  0
C  C115  1  0.94717652  0.46668715  0.66756101  1  0  0.727557  0  3.799819  0  0  0.683139  0  4.088451  0  0  0.717553  0  4.082164  0  0  0.228601  0.659662  0  4.091927  0
C  C116  1  0.47994561  0.20102013  0.53331021  1  0  0.729567  0  3.79614  0  0  0.684007  0  4.086427  0  0  0.718487  0  4.080156  0  0  0.229253  0.660509  0  4.089888  0
C  C117  1  0.72090927  0.66769519  0.20082335  1  0  0.727935  0  3.797188  0  0  0.682437  0  4.087432  0  0  0.71686  0  4.081212  0  0  0.227863  0.658961  0  4.090863  0
C  C118  1  0.05281205  0.53331192  0.33243969  1  0  0.727658  0  3.79978  0  0  0.683007  0  4.088724  0  0  0.717421  0  4.082436  0  0  0.228527  0.659528  0  4.092198  0
C  C119  1  0.52006975  0.79897894  0.46669611  1  0  0.729621  0  3.795693  0  0  0.684012  0  4.086089  0  0  0.718486  0  4.079816  0  0  0.229186  0.660514  0  4.08955  0
O  O120  1  0.87533372  0.39783477  0.06098383  1  0  -0.828578  0  2.009792  0  0  -0.742923  0  2.298239  0  0  -0.770056  0  2.276008  0  0  -0.373975  -0.723658  0  2.312967  0
O  O121  1  0.47727435  0.66334520  0.60214753  1  0  -0.827846  0  2.009238  0  0  -0.742719  0  2.297891  0  0  -0.769789  0  2.275574  0  0  -0.374432  -0.723501  0  2.312694  0
O  O122  1  0.81390204  0.93912326  0.33689628  1  0  -0.828347  0  2.010544  0  0  -0.742835  0  2.299307  0  0  -0.769944  0  2.277064  0  0  -0.374236  -0.723573  0  2.314033  0
O  O123  1  0.12465500  0.60216201  0.93901780  1  0  -0.828583  0  2.009892  0  0  -0.742978  0  2.298358  0  0  -0.770112  0  2.276127  0  0  -0.374054  -0.723714  0  2.313086  0
O  O124  1  0.52272103  0.33664701  0.39785650  1  0  -0.827834  0  2.009143  0  0  -0.742752  0  2.297816  0  0  -0.76983  0  2.275522  0  0  -0.37448  -0.723528  0  2.312606  0
O  O125  1  0.18609428  0.06087352  0.66309692  1  0  -0.828327  0  2.010547  0  0  -0.742837  0  2.299302  0  0  -0.769944  0  2.277056  0  0  -0.374256  -0.723575  0  2.314028  0
O  O126  1  0.85405325  0.38969499  0.88639243  1  0  -0.842433  0  2.098167  0  0  -0.751076  0  2.405141  0  0  -0.777834  0  2.378505  0  0  -0.379972  -0.732088  0  2.42299  0
O  O127  1  0.46500646  0.49695305  0.61027007  1  0  -0.842473  0  2.098946  0  0  -0.751173  0  2.405857  0  0  -0.777969  0  2.379227  0  0  -0.379673  -0.732177  0  2.423729  0
O  O128  1  0.96729208  0.11357935  0.50340102  1  0  -0.842202  0  2.098026  0  0  -0.750763  0  2.404949  0  0  -0.777514  0  2.378327  0  0  -0.380014  -0.731784  0  2.422803  0
O  O129  1  0.14594909  0.61030865  0.11361222  1  0  -0.842484  0  2.098191  0  0  -0.751108  0  2.405136  0  0  -0.777873  0  2.378515  0  0  -0.380012  -0.73212  0  2.422982  0
O  O130  1  0.53499111  0.50304602  0.38974507  1  0  -0.842402  0  2.099118  0  0  -0.751085  0  2.405973  0  0  -0.77789  0  2.379359  0  0  -0.379597  -0.732105  0  2.423856  0
O  O131  1  0.03272207  0.88641743  0.49658920  1  0  -0.842301  0  2.097937  0  0  -0.750842  0  2.404851  0  0  -0.777597  0  2.378233  0  0  -0.380098  -0.731861  0  2.4227  0
O  O132  1  0.25351942  0.40932656  0.87044173  1  0  -0.638909  0  2.042302  0  0  -0.563141  0  2.30655  0  0  -0.592872  0  2.291189  0  0  -0.304784  -0.542422  0  2.316493  0
O  O133  1  0.84454701  0.46086717  0.59045009  1  0  -0.639362  0  2.043648  0  0  -0.564211  0  2.307554  0  0  -0.594025  0  2.292294  0  0  -0.305306  -0.543432  0  2.317422  0
O  O134  1  0.38299985  0.12971445  0.53901990  1  0  -0.639437  0  2.043376  0  0  -0.563668  0  2.307671  0  0  -0.593413  0  2.292273  0  0  -0.305335  -0.542929  0  2.317621  0
O  O135  1  0.74647633  0.59066641  0.12956138  1  0  -0.638993  0  2.042277  0  0  -0.563171  0  2.306482  0  0  -0.592906  0  2.291121  0  0  -0.304824  -0.54245  0  2.316424  0
O  O136  1  0.15544016  0.53913418  0.40955284  1  0  -0.639401  0  2.043671  0  0  -0.564138  0  2.307654  0  0  -0.593949  0  2.29238  0  0  -0.305186  -0.543356  0  2.317522  0
O  O137  1  0.61702641  0.87028081  0.46099279  1  0  -0.639442  0  2.043467  0  0  -0.563621  0  2.307777  0  0  -0.593364  0  2.292375  0  0  -0.305266  -0.542886  0  2.317731  0
O  O138  1  0.16731129  0.27955241  0.71069267  1  0  -0.65745  0  2.040903  0  0  -0.593041  0  2.319917  0  0  -0.621707  0  2.302132  0  0  -0.316511  -0.573035  0  2.331503  0
O  O139  1  0.88801261  0.43107451  0.72034707  1  0  -0.657059  0  2.042456  0  0  -0.593121  0  2.321265  0  0  -0.621757  0  2.303385  0  0  -0.31649  -0.57312  0  2.332881  0
O  O140  1  0.45687578  0.28953534  0.56918903  1  0  -0.657996  0  2.039375  0  0  -0.593479  0  2.318087  0  0  -0.622103  0  2.300197  0  0  -0.317004  -0.573497  0  2.329731  0
O  O141  1  0.83268620  0.72044666  0.28930752  1  0  -0.657518  0  2.040895  0  0  -0.593133  0  2.319931  0  0  -0.621794  0  2.302136  0  0  -0.316575  -0.573127  0  2.331519  0
O  O142  1  0.11198068  0.56892380  0.27965370  1  0  -0.657156  0  2.042265  0  0  -0.59315  0  2.321182  0  0  -0.621796  0  2.30332  0  0  -0.316541  -0.573156  0  2.332815  0
O  O143  1  0.54311702  0.71045687  0.43081088  1  0  -0.657959  0  2.038912  0  0  -0.593495  0  2.31772  0  0  -0.622119  0  2.299833  0  0  -0.317014  -0.573517  0  2.329372  0
