# generated using pymatgen
data_Zn4H30C33O13
_symmetry_space_group_name_H-M   'P 1'
_cell_length_a   16.10865769
_cell_length_b   16.24468272
_cell_length_c   16.29428321
_cell_angle_alpha   118.33155559
_cell_angle_beta   118.57712046
_cell_angle_gamma   90.65485808
_symmetry_Int_Tables_number   1
_chemical_formula_structural   Zn4H30C33O13
_chemical_formula_sum   'Zn8 H60 C66 O26'
_cell_volume   3135.19187399
_cell_formula_units_Z   2
loop_
 _symmetry_equiv_pos_site_id
 _symmetry_equiv_pos_as_xyz
  1  'x, y, z'
loop_
 _atom_site_type_symbol
 _atom_site_label
 _atom_site_symmetry_multiplicity
 _atom_site_fract_x
 _atom_site_fract_y
 _atom_site_fract_z
 _atom_site_occupancy
 _atom_site_pbe_bader_charge
 _atom_site_pbe_bader_spin_density
 _atom_site_pbe_cm5_charge
 _atom_site_pbe_ddec_charge
 _atom_site_pbe_ddec_spin_density
 _atom_site_pbe_ddec_sum_bond_order
 _atom_site_pbe_magmom
Zn  Zn0  1  0.06241954  0.01035070  0.11760873  1  1.311815  0  0.673761  0.963393  0  2.319726  0
Zn  Zn1  1  0.00631246  0.18294509  0.08764995  1  1.31176  0  0.677359  0.96229  0  2.370899  0
Zn  Zn2  1  0.85389647  0.96989527  0.90334377  1  1.317967  0  0.673932  0.969856  0  2.376139  0
Zn  Zn3  1  0.06180227  0.02352823  0.92687528  1  1.314113  0  0.666173  0.970893  0  2.360327  0
Zn  Zn4  1  0.47075768  0.61256363  0.92003340  1  1.310466  0  0.664466  0.96037  0  2.378269  0
Zn  Zn5  1  0.42378396  0.40655827  0.89627222  1  1.32081  0  0.675546  0.97152  0  2.380404  0
Zn  Zn6  1  0.45591366  0.61052026  0.10917083  1  1.315901  0  0.675175  0.969453  0  2.327491  0
Zn  Zn7  1  0.63506197  0.56150467  0.08198630  1  1.310593  0  0.67593  0.959993  0  2.379692  0
H  H8  1  0.04343432  0.23323506  0.40467833  1  0.051363  0  0.102878  0.122304  0  0.973062  0
H  H9  1  0.08437722  0.33400207  0.40127404  1  0.066979  0  0.101537  0.119946  0  0.986708  0
H  H10  1  0.25869363  0.31450469  0.48617151  1  0.036614  0  0.101623  0.072446  0  0.951828  0
H  H11  1  0.20111030  0.44516741  0.58344339  1  0.063449  0  0.103384  0.122342  0  0.972043  0
H  H12  1  0.16074315  0.37252413  0.61850657  1  0.041512  0  0.10518  0.119451  0  0.972036  0
H  H13  1  0.13161021  0.22213585  0.58496015  1  0.020665  0  0.092255  0.083437  0  1.020881  0
H  H14  1  0.14966579  0.07574597  0.59447117  1  0.029096  0  0.097492  0.090458  0  0.998472  0
H  H15  1  0.24487824  0.97538931  0.52602552  1  0.036858  0  0.095369  0.087299  0  1.008665  0
H  H16  1  0.32237281  0.02429768  0.44876204  1  0.047217  0  0.093896  0.088387  0  1.034552  0
H  H17  1  0.30652423  0.17285058  0.44207603  1  0.045167  0  0.096513  0.093974  0  1.004435  0
H  H18  1  0.91870359  0.68794142  0.94158215  1  0.063591  0  0.100544  0.118744  0  0.986969  0
H  H19  1  0.80578888  0.68316816  0.83362951  1  0.041752  0  0.10338  0.121739  0  0.97021  0
H  H20  1  0.76018409  0.76464378  0.97970499  1  0.037921  0  0.104305  0.079627  0  0.95947  0
H  H21  1  0.67817128  0.59638260  0.81522619  1  0.060597  0  0.105829  0.125256  0  0.96695  0
H  H22  1  0.76348675  0.55149803  0.89082803  1  0.023503  0  0.101876  0.118888  0  0.981196  0
H  H23  1  0.88991590  0.59410695  0.05107163  1  0.078283  0  0.096444  0.093525  0  1.017628  0
H  H24  1  0.01088157  0.64362824  0.24408281  1  0.06591  0  0.0941  0.086096  0  1.037694  0
H  H25  1  0.07018480  0.81847541  0.40166214  1  0.057203  0  0.096485  0.088936  0  1.006961  0
H  H26  1  0.00490626  0.94233463  0.36205741  1  0.091716  0  0.096329  0.090414  0  1.023123  0
H  H27  1  0.87928048  0.89162570  0.16818108  1  0.05817  0  0.099875  0.100711  0  0.996994  0
H  H28  1  0.38113571  0.04155143  0.22747611  1  0.058873  0  0.103052  0.122735  0  0.971109  0
H  H29  1  0.36840829  0.01875278  0.10223950  1  0.043744  0  0.101463  0.119205  0  0.975512  0
H  H30  1  0.28004714  0.84042932  0.00682610  1  0.027445  0  0.101842  0.073796  0  0.9528  0
H  H31  1  0.45677984  0.91129543  0.08474044  1  0.034084  0  0.103075  0.121193  0  0.973214  0
H  H32  1  0.49232881  0.92689921  0.21415500  1  0.035196  0  0.103398  0.119143  0  0.979129  0
H  H33  1  0.44045122  0.90654290  0.30388062  1  0.04547  0  0.094867  0.088942  0  1.023711  0
H  H34  1  0.37591747  0.86016592  0.39034180  1  0.048585  0  0.092686  0.083782  0  1.04729  0
H  H35  1  0.19358960  0.78367869  0.29119635  1  0.030413  0  0.092301  0.083232  0  1.034738  0
H  H36  1  0.07905852  0.74695454  0.10070042  1  0.037441  0  0.091625  0.084784  0  1.043779  0
H  H37  1  0.14412845  0.78935395  0.01054193  1  0.02877  0  0.093029  0.088701  0  1.014251  0
H  H38  1  0.74349036  0.18281881  0.12636640  1  0.061613  0  0.105907  0.125433  0  0.96549  0
H  H39  1  0.64864456  0.10646660  0.98055665  1  0.075216  0  0.104833  0.124573  0  0.970253  0
H  H40  1  0.69069216  0.23868629  0.95628304  1  0.03593  0  0.102618  0.07248  0  0.950043  0
H  H41  1  0.55858767  0.21467966  0.99154698  1  0.060527  0  0.104903  0.124394  0  0.970763  0
H  H42  1  0.64244633  0.30994858  0.13480954  1  0.046993  0  0.103686  0.119188  0  0.981088  0
H  H43  1  0.80075127  0.37755816  0.26838934  1  0.033703  0  0.094413  0.086453  0  1.015869  0
H  H44  1  0.96674141  0.50159818  0.40816871  1  0.022282  0  0.095136  0.086948  0  1.004093  0
H  H45  1  0.07208305  0.53547126  0.34788484  1  0.003842  0  0.096007  0.088436  0  1.013905  0
H  H46  1  0.00717587  0.44635668  0.14577274  1  0.085697  0  0.094976  0.090114  0  1.032413  0
H  H47  1  0.83925746  0.32405416  0.00517662  1  0.045889  0  0.096298  0.092434  0  1.007168  0
H  H48  1  0.00871355  0.32578617  0.91573426  1  0.038617  0  0.101848  0.121502  0  0.97243  0
H  H49  1  0.03411297  0.23094903  0.82303289  1  0.048587  0  0.105166  0.124217  0  0.967479  0
H  H50  1  0.21326217  0.29831036  0.97547187  1  0.045526  0  0.10386  0.078667  0  0.957354  0
H  H51  1  0.13345204  0.33903097  0.82929694  1  0.037091  0  0.101893  0.119133  0  0.976811  0
H  H52  1  0.13503807  0.45313364  0.92963160  1  0.049225  0  0.101676  0.118142  0  0.987255  0
H  H53  1  0.12646664  0.52237920  0.07102639  1  0.046695  0  0.098339  0.092009  0  1.016556  0
H  H54  1  0.17722824  0.63301798  0.26547088  1  0.06866  0  0.096947  0.087132  0  1.033596  0
H  H55  1  0.28175124  0.59616382  0.40851354  1  0.014775  0  0.099142  0.091069  0  0.999799  0
H  H56  1  0.33538303  0.44591327  0.35285161  1  0.065975  0  0.099528  0.092703  0  0.994622  0
H  H57  1  0.28484529  0.33436755  0.15641685  1  0.040767  0  0.098503  0.096752  0  1.003057  0
H  H58  1  0.81347095  0.71353838  0.61037774  1  0.041945  0  0.104359  0.120524  0  0.96847  0
H  H59  1  0.89887779  0.75864283  0.59024112  1  0.050315  0  0.102482  0.1206  0  0.976855  0
H  H60  1  0.77671970  0.82617581  0.49620864  1  0.043581  0  0.102006  0.072846  0  0.949936  0
H  H61  1  0.79505805  0.65923103  0.40335187  1  0.043439  0  0.104506  0.123352  0  0.974215  0
H  H62  1  0.69606568  0.60844295  0.40267245  1  0.046548  0  0.102843  0.117137  0  0.982903  0
H  H63  1  0.61374072  0.64121350  0.48030371  1  0.049624  0  0.095394  0.087608  0  1.014601  0
H  H64  1  0.47723622  0.67318097  0.50789179  1  0.055479  0  0.095601  0.086873  0  1.017943  0
H  H65  1  0.44725567  0.83562494  0.55961920  1  0.043033  0  0.098227  0.090578  0  0.999583  0
H  H66  1  0.55422322  0.96462023  0.57918776  1  0.04521  0  0.099218  0.091589  0  0.995449  0
H  H67  1  0.69059125  0.93164662  0.54932079  1  0.049294  0  0.095009  0.08708  0  1.010031  0
C  C68  1  0.08778299  0.19764718  0.29039088  1  1.537898  0  0.225463  0.668627  0  4.091605  0
C  C69  1  0.09865767  0.26752402  0.39978348  1  -0.034218  0  -0.157508  -0.327455  0  3.876598  0
C  C70  1  0.20400246  0.29527290  0.50154612  1  0.036295  0  -0.07071  0.038331  0  3.838021  0
C  C71  1  0.21641058  0.38880920  0.60280129  1  -0.045854  0  -0.155887  -0.322081  0  3.897104  0
C  C72  1  0.31620800  0.43453799  0.71249604  1  1.580197  0  0.226286  0.662494  0  4.107135  0
C  C73  1  0.21833668  0.20841735  0.51324046  1  -0.00845  0  -0.012944  0.082876  0  3.943773  0
C  C74  1  0.17384260  0.17923677  0.55496477  1  -0.037416  0  -0.097556  -0.13254  0  3.996366  0
C  C75  1  0.18390732  0.09656409  0.56048945  1  0.030921  0  -0.09676  -0.086171  0  4.056721  0
C  C76  1  0.23782311  0.04067467  0.52283614  1  -0.082559  0  -0.098632  -0.096332  0  4.045204  0
C  C77  1  0.28184754  0.06846967  0.48035503  1  -0.0321  0  -0.094396  -0.071854  0  4.021738  0
C  C78  1  0.27236193  0.15200593  0.47619247  1  -0.045472  0  -0.094529  -0.132922  0  3.982414  0
C  C79  1  0.89927594  0.82814754  0.96916573  1  1.568236  0  0.226068  0.659832  0  4.117221  0
C  C80  1  0.85859684  0.72120100  0.92435309  1  -0.03376  0  -0.157334  -0.324351  0  3.87667  0
C  C81  1  0.80284771  0.71195912  0.97665025  1  0.051698  0  -0.071619  0.031987  0  3.836252  0
C  C82  1  0.72641905  0.60850538  0.89802525  1  -0.000966  0  -0.158046  -0.327434  0  3.898944  0
C  C83  1  0.66265186  0.60133138  0.94004096  1  1.528905  0  0.229983  0.671108  0  4.106519  0
C  C84  1  0.87584624  0.73950848  0.09512382  1  -0.020846  0  -0.016303  0.070183  0  3.937317  0
C  C85  1  0.91498087  0.67096208  0.11836769  1  -0.102971  0  -0.096201  -0.131229  0  3.985339  0
C  C86  1  0.98384665  0.69890736  0.22789483  1  -0.05684  0  -0.096456  -0.082948  0  4.03671  0
C  C87  1  0.01628748  0.79650068  0.31602981  1  -0.078172  0  -0.097971  -0.098085  0  4.045673  0
C  C88  1  0.97891438  0.86573447  0.29401223  1  -0.049339  0  -0.092729  -0.070367  0  4.027431  0
C  C89  1  0.90867647  0.83705390  0.18451742  1  -0.040569  0  -0.09472  -0.136419  0  3.980893  0
C  C90  1  0.23272492  0.00675989  0.09458498  1  1.547537  0  0.226944  0.665987  0  4.10851  0
C  C91  1  0.33538933  0.99503181  0.13585717  1  0.003304  0  -0.157114  -0.325054  0  3.877506  0
C  C92  1  0.33299169  0.88667749  0.09811713  1  0.038153  0  -0.069293  0.037656  0  3.826985  0
C  C93  1  0.43762279  0.88146100  0.12350680  1  0.003467  0  -0.157598  -0.325644  0  3.892204  0
C  C94  1  0.44565991  0.77824852  0.07990614  1  1.576373  0  0.228747  0.669135  0  4.105214  0
C  C95  1  0.29680123  0.85252958  0.15082949  1  -0.094275  0  -0.01712  0.069765  0  3.940139  0
C  C96  1  0.36078569  0.87211386  0.25827869  1  0.001017  0  -0.095632  -0.125207  0  3.981426  0
C  C97  1  0.32439634  0.84599380  0.30773135  1  -0.021021  0  -0.097137  -0.083371  0  4.037122  0
C  C98  1  0.22289519  0.80121007  0.25143904  1  0.0389  0  -0.095791  -0.087004  0  4.026414  0
C  C99  1  0.15850795  0.78027422  0.14415458  1  -0.097461  0  -0.097304  -0.072804  0  4.026314  0
C  C100  1  0.19551932  0.80500670  0.09413567  1  -0.015076  0  -0.099196  -0.137797  0  3.999084  0
C  C101  1  0.79738479  0.12670050  0.02027078  1  1.563239  0  0.22668  0.663545  0  4.10775  0
C  C102  1  0.72054178  0.16449437  0.04279395  1  -0.041825  0  -0.15538  -0.324859  0  3.876609  0
C  C103  1  0.71047297  0.25805649  0.03941339  1  0.047215  0  -0.068394  0.037559  0  3.829287  0
C  C104  1  0.62198077  0.28198553  0.04940796  1  -0.022765  0  -0.156727  -0.324799  0  3.895036  0
C  C105  1  0.58992747  0.35793679  0.02278215  1  1.569731  0  0.227704  0.666595  0  4.108047  0
C  C106  1  0.80772129  0.34159965  0.12615511  1  -0.060468  0  -0.01349  0.082111  0  3.939336  0
C  C107  1  0.84501297  0.39277723  0.24034518  1  0.001344  0  -0.096432  -0.12938  0  3.988779  0
C  C108  1  0.93894970  0.46271770  0.31963823  1  -0.046552  0  -0.098418  -0.087193  0  4.055437  0
C  C109  1  0.99779660  0.48236811  0.28608527  1  0.031448  0  -0.098204  -0.095153  0  4.037911  0
C  C110  1  0.96114321  0.43281466  0.17264747  1  -0.118893  0  -0.094693  -0.071265  0  4.015217  0
C  C111  1  0.86655998  0.36377252  0.09368596  1  -0.013017  0  -0.09547  -0.134374  0  3.984387  0
C  C112  1  0.05210683  0.21768794  0.95395225  1  1.561053  0  0.228381  0.66526  0  4.110418  0
C  C113  1  0.05820523  0.28038659  0.91063800  1  -0.008526  0  -0.156854  -0.324761  0  3.884902  0
C  C114  1  0.16618367  0.34693361  0.97815125  1  0.047974  0  -0.071551  0.030627  0  3.841901  0
C  C115  1  0.17157123  0.39569584  0.91871377  1  -0.014057  0  -0.159165  -0.326041  0  3.896691  0
C  C116  1  0.27800374  0.43938815  0.96100711  1  1.577036  0  0.226836  0.667502  0  4.108818  0
C  C117  1  0.20154220  0.41953024  0.09917257  1  -0.067625  0  -0.013217  0.07828  0  3.933257  0
C  C118  1  0.17182396  0.50416870  0.13173585  1  -0.009718  0  -0.090725  -0.125189  0  3.969963  0
C  C119  1  0.20060775  0.56727465  0.24215911  1  -0.030264  0  -0.090474  -0.076391  0  4.030199  0
C  C120  1  0.25938667  0.54668930  0.32220519  1  -0.027123  0  -0.095049  -0.093872  0  4.039543  0
C  C121  1  0.28966823  0.46281615  0.29106735  1  -0.05256  0  -0.092869  -0.074277  0  4.040855  0
C  C122  1  0.26109299  0.40002623  0.18045497  1  -0.053753  0  -0.095606  -0.141237  0  3.993127  0
C  C123  1  0.88275471  0.86725360  0.71739289  1  1.57389  0  0.226509  0.665799  0  4.108145  0
C  C124  1  0.83910564  0.77260389  0.60455784  1  -0.021325  0  -0.156055  -0.323764  0  3.884032  0
C  C125  1  0.75054249  0.76801714  0.50289626  1  0.025321  0  -0.069277  0.039304  0  3.832752  0
C  C126  1  0.72617947  0.66750671  0.39994076  1  -0.013982  0  -0.157821  -0.327317  0  3.892039  0
C  C127  1  0.65287049  0.65280807  0.28840311  1  1.5622  0  0.226438  0.668181  0  4.091826  0
C  C128  1  0.66285964  0.78458367  0.51373761  1  -0.008745  0  -0.012689  0.083107  0  3.936118  0
C  C129  1  0.60170022  0.71272226  0.50243492  1  -0.031655  0  -0.092928  -0.124287  0  3.979207  0
C  C130  1  0.52452631  0.73062903  0.51835081  1  -0.093339  0  -0.093839  -0.077279  0  4.037371  0
C  C131  1  0.50728422  0.82139275  0.54651287  1  -0.04777  0  -0.096112  -0.093232  0  4.040151  0
C  C132  1  0.56707508  0.89343981  0.55716068  1  -0.032282  0  -0.094553  -0.078459  0  4.040048  0
C  C133  1  0.64370298  0.87465435  0.54010115  1  -0.017908  0  -0.095077  -0.132746  0  3.996441  0
O  O134  1  0.99524736  0.04348387  0.00455310  1  -1.234261  0  -0.580686  -1.042849  0  2.560841  0
O  O135  1  0.10674171  0.23626321  0.24608779  1  -1.18354  0  -0.336422  -0.579655  0  2.2716  0
O  O136  1  0.06229803  0.10566178  0.25028519  1  -1.143663  0  -0.310706  -0.541356  0  2.276434  0
O  O137  1  0.35367515  0.37839074  0.74417912  1  -1.188835  0  -0.317383  -0.55639  0  2.338899  0
O  O138  1  0.35336373  0.52755135  0.76604362  1  -1.16952  0  -0.322735  -0.555588  0  2.287323  0
O  O139  1  0.83514559  0.86758999  0.93219470  1  -1.189654  0  -0.328437  -0.57209  0  2.299972  0
O  O140  1  0.99235085  0.87061667  0.04130692  1  -1.173711  0  -0.305745  -0.543425  0  2.333842  0
O  O141  1  0.69084053  0.56663822  0.00150540  1  -1.146071  0  -0.314809  -0.552164  0  2.334855  0
O  O142  1  0.58852698  0.63360716  0.91383055  1  -1.178076  0  -0.320246  -0.559607  0  2.292231  0
O  O143  1  0.18622633  0.99545756  0.99868645  1  -1.173978  0  -0.327509  -0.568213  0  2.280219  0
O  O144  1  0.20058919  0.02482162  0.15719018  1  -1.186989  0  -0.31382  -0.551166  0  2.319795  0
O  O145  1  0.45246696  0.74165822  0.13586322  1  -1.174968  0  -0.310604  -0.550539  0  2.34137  0
O  O146  1  0.44454488  0.73685357  0.99007497  1  -1.177958  0  -0.324632  -0.559203  0  2.287379  0
O  O147  1  0.76582675  0.04755625  0.92571408  1  -1.172237  0  -0.322096  -0.554408  0  2.270624  0
O  O148  1  0.88775154  0.17781463  0.09664035  1  -1.188272  0  -0.313451  -0.557975  0  2.35844  0
O  O149  1  0.64717542  0.44613218  0.09461889  1  -1.181987  0  -0.313141  -0.550259  0  2.320593  0
O  O150  1  0.50839384  0.32684640  0.92948670  1  -1.169704  0  -0.323168  -0.557974  0  2.284592  0
O  O151  1  0.08707670  0.14590811  0.93032131  1  -1.188869  0  -0.321234  -0.566004  0  2.296202  0
O  O152  1  0.01459532  0.24373768  0.01276202  1  -1.166143  0  -0.311767  -0.551953  0  2.335956  0
O  O153  1  0.32134935  0.52984493  0.03994739  1  -1.176465  0  -0.312564  -0.542952  0  2.290619  0
O  O154  1  0.31513901  0.37992033  0.91394700  1  -1.186585  0  -0.327763  -0.57199  0  2.301719  0
O  O155  1  0.97428201  0.91374690  0.76923640  1  -1.176709  0  -0.324749  -0.5612  0  2.281085  0
O  O156  1  0.82537565  0.89125839  0.75186314  1  -1.181592  0  -0.314517  -0.555003  0  2.359438  0
O  O157  1  0.56061069  0.62767145  0.25086782  1  -1.165568  0  -0.310781  -0.543514  0  2.283097  0
O  O158  1  0.68912551  0.66545191  0.23886182  1  -1.180332  0  -0.335081  -0.572748  0  2.262927  0
O  O159  1  0.49314204  0.54750447  0.99994390  1  -1.233245  0  -0.578734  -1.04191  0  2.561754  0
