# generated using pymatgen
data_ZnH12C22SNO7
_symmetry_space_group_name_H-M   'P 1'
_cell_length_a   13.33368427
_cell_length_b   16.55853052
_cell_length_c   17.71391943
_cell_angle_alpha   87.01094535
_cell_angle_beta   87.07501134
_cell_angle_gamma   68.03234515
_symmetry_Int_Tables_number   1
_chemical_formula_structural   ZnH12C22SNO7
_chemical_formula_sum   'Zn2 H24 C44 S2 N2 O14'
_cell_volume   3619.99947223
_cell_formula_units_Z   2
loop_
 _symmetry_equiv_pos_site_id
 _symmetry_equiv_pos_as_xyz
  1  'x, y, z'
loop_
 _atom_site_type_symbol
 _atom_site_label
 _atom_site_symmetry_multiplicity
 _atom_site_fract_x
 _atom_site_fract_y
 _atom_site_fract_z
 _atom_site_occupancy
 _atom_site_pbe_bader_charge
 _atom_site_pbe_bader_spin_density
 _atom_site_pbe_cm5_charge
 _atom_site_pbe_ddec_charge
 _atom_site_pbe_ddec_spin_density
 _atom_site_pbe_ddec_sum_bond_order
 _atom_site_pbe_magmom
Zn  Zn0  1  0.49987277  0.58557726  0.49213334  1  1.299118  0  0.67097  0.840427  0  2.383909  0
Zn  Zn1  1  0.51982848  0.40995417  0.50761694  1  1.295081  0  0.676274  0.824799  0  2.425369  0
H  H2  1  0.86692086  0.29573778  0.42960218  1  0.097953  0  0.104907  0.112299  0  0.997968  0
H  H3  1  0.36952334  0.62296629  0.27851591  1  0.110507  0  0.115722  0.125222  0  0.974296  0
H  H4  1  0.55350859  0.37942621  0.10729574  1  0.088849  0  0.108376  0.114758  0  1.009665  0
H  H5  1  0.39860669  0.65705480  0.87419682  1  0.036942  0  0.104156  0.106509  0  0.991874  0
H  H6  1  0.43181170  0.65123099  0.73398158  1  0.093536  0  0.101243  0.10217  0  1.007447  0
H  H7  1  0.48271565  0.37958105  0.74312427  1  0.112539  0  0.10483  0.109416  0  1.001042  0
H  H8  1  0.44818049  0.38405683  0.88340743  1  0.0848  0  0.10396  0.105938  0  0.991665  0
H  H9  1  0.38934363  0.87887195  0.60398158  1  0.111405  0  0.124148  0.134384  0  0.968306  0
H  H10  1  0.41421373  0.72366889  0.58468572  1  0.158559  0  0.131514  0.113351  0  0.998318  0
H  H11  1  0.21180197  0.32338946  0.39306943  1  0.034935  0  0.099783  0.101323  0  0.996707  0
H  H12  1  0.58077138  0.86887986  0.39749520  1  0.127199  0  0.123151  0.145608  0  0.981672  0
H  H13  1  0.33800344  0.19166640  0.58204450  1  0.093293  0  0.121139  0.131898  0  0.973603  0
H  H14  1  0.36393276  0.33464702  0.58030078  1  0.133686  0  0.133339  0.10996  0  0.964217  0
H  H15  1  0.63877134  0.24208065  0.44109248  1  0.146377  0  0.134699  0.115414  0  0.967436  0
H  H16  1  0.62518921  0.09532225  0.43565252  1  0.104616  0  0.120882  0.130412  0  0.971834  0
H  H17  1  0.06077338  0.27169187  0.39754495  1  0.065946  0  0.098115  0.096784  0  1.001764  0
H  H18  1  0.81561651  0.54597384  0.51226530  1  0.060019  0  0.100358  0.104473  0  1.034115  0
H  H19  1  0.14557518  0.71421109  0.53093342  1  0.076276  0  0.102087  0.106442  0  0.999794  0
H  H20  1  0.87011985  0.63994977  0.52057541  1  0.025515  0  0.097208  0.095814  0  1.023323  0
H  H21  1  0.94541388  0.75049635  0.54549876  1  0.058869  0  0.096487  0.09301  0  1.000159  0
H  H22  1  0.28741361  0.43090846  0.42460598  1  0.10315  0  0.102369  0.118548  0  1.024301  0
H  H23  1  0.32269816  0.63917691  0.14241897  1  0.088481  0  0.112182  0.114279  0  0.980057  0
H  H24  1  0.68476187  0.23622465  0.16565468  1  0.642194  0  0.350082  0.397987  0  0.845441  0
H  H25  1  0.77337241  0.71435803  0.34999243  1  0.653524  0  0.356585  0.407355  0  0.835632  0
C  C26  1  0.48488375  0.50970495  0.64681157  1  1.565258  0  0.21462  0.597087  0  4.1637  0
C  C27  1  0.02354584  0.54192570  0.48486835  1  -0.010496  0  -0.004527  0.032106  0  3.952296  0
C  C28  1  0.13676175  0.52312887  0.47266684  1  -0.039002  0  -0.001519  0.062542  0  3.945357  0
C  C29  1  0.98050028  0.47563448  0.47033428  1  -0.076191  0  -0.008302  0.025153  0  3.960533  0
C  C30  1  0.04976670  0.39576129  0.43809845  1  0.01474  0  -0.008636  0.077846  0  4.030264  0
C  C31  1  0.16041813  0.38296822  0.42074221  1  -0.084349  0  -0.095233  -0.139984  0  4.033088  0
C  C32  1  0.20264022  0.44298445  0.43806855  1  -0.023174  0  -0.095426  -0.131572  0  4.00062  0
C  C33  1  0.87223511  0.48667285  0.48759449  1  0.026458  0  -0.081921  -0.126172  0  3.946793  0
C  C34  1  0.90054596  0.34418552  0.44154373  1  -0.005501  0  -0.082335  -0.081948  0  3.982775  0
C  C35  1  0.17927901  0.58616766  0.49294935  1  -0.044851  0  -0.014194  -0.070374  0  3.923405  0
C  C36  1  0.38170136  0.57837523  0.16477903  1  -0.013111  0  -0.071578  -0.111098  0  3.929787  0
C  C37  1  0.29861150  0.56514797  0.49555401  1  1.572456  0  0.213239  0.597481  0  4.163413  0
C  C38  1  0.40738395  0.56934657  0.24055801  1  -0.029751  0  -0.072133  -0.077862  0  3.953945  0
C  C39  1  0.48294983  0.49182615  0.27069276  1  0.015008  0  0.002575  -0.010724  0  3.90928  0
C  C40  1  0.53421468  0.42274818  0.22183410  1  -0.153254  0  -0.007467  -0.096105  0  3.938401  0
C  C41  1  0.51044026  0.43135871  0.14558918  1  0.002378  0  -0.077045  -0.133276  0  3.927735  0
C  C42  1  0.43373681  0.50948062  0.11583042  1  0.125531  0  0.004564  0.149905  0  4.109288  0
C  C43  1  0.41700998  0.51761681  0.03707024  1  -0.072361  0  -0.047978  -0.116986  0  4.119815  0
C  C44  1  0.41409064  0.52075827  0.96816909  1  -0.352552  0  -0.041561  -0.100675  0  4.121645  0
C  C45  1  0.41595530  0.59658632  0.84519341  1  0.000296  0  -0.084957  -0.130219  0  3.958424  0
C  C46  1  0.43475861  0.59325617  0.76732562  1  -0.039959  0  -0.085436  -0.091495  0  4.003022  0
C  C47  1  0.46021806  0.51481066  0.73039444  1  0.001787  0  -0.015515  -0.028249  0  3.954083  0
C  C48  1  0.50090429  0.48672826  0.35406353  1  1.618816  0  0.216274  0.59031  0  4.193891  0
C  C49  1  0.46352304  0.43989412  0.77267471  1  -0.068835  0  -0.083468  -0.087217  0  3.994244  0
C  C50  1  0.44452659  0.44248262  0.85043228  1  -0.042095  0  -0.084701  -0.130078  0  3.958818  0
C  C51  1  0.42232708  0.52068802  0.88817076  1  0.134242  0  -0.000276  0.139985  0  4.118815  0
C  C52  1  0.43550215  0.84510291  0.55493217  1  0.003651  0  -0.063021  -0.161646  0  3.887589  0
C  C53  1  0.44869332  0.75917010  0.54441510  1  0.475838  0  0.066512  0.116526  0  3.880894  0
C  C54  1  0.55181406  0.75329765  0.43476243  1  0.396157  0  0.127256  0.074629  0  3.936454  0
C  C55  1  0.54259146  0.83918151  0.44014323  1  0.04236  0  -0.066865  -0.178619  0  3.88978  0
C  C56  1  0.48304734  0.88723159  0.50175388  1  0.104382  0  0.028063  0.194376  0  4.093438  0
C  C57  1  0.47507650  0.97417750  0.50804884  1  -0.101479  0  -0.029869  -0.101314  0  4.069911  0
C  C58  1  0.47454549  0.04785738  0.50965042  1  -0.223659  0  -0.016511  -0.067702  0  4.063193  0
C  C59  1  0.71551208  0.44054319  0.49248335  1  1.551073  0  0.218258  0.604575  0  4.138005  0
C  C60  1  0.40626491  0.19989011  0.55089586  1  0.031619  0  -0.067752  -0.170512  0  3.910193  0
C  C61  1  0.42042260  0.27883171  0.55050812  1  0.465713  0  0.065936  0.107136  0  3.921933  0
C  C62  1  0.57481141  0.22699328  0.47209855  1  0.468684  0  0.069908  0.120917  0  3.890988  0
C  C63  1  0.56659685  0.14617873  0.46914703  1  0.055897  0  -0.063534  -0.155748  0  3.886253  0
C  C64  1  0.48148613  0.13107627  0.51009667  1  0.071184  0  0.021568  0.167175  0  4.106916  0
C  C65  1  0.00729323  0.33163471  0.42365565  1  -0.064995  0  -0.095461  -0.145183  0  4.007979  0
C  C66  1  0.83230107  0.42257213  0.47432869  1  0.020019  0  -0.016212  -0.022973  0  3.962155  0
C  C67  1  0.11038662  0.66729513  0.51713335  1  0.042027  0  -0.090617  -0.098884  0  4.010654  0
C  C68  1  0.99868358  0.68691635  0.52566474  1  -0.108566  0  -0.103923  -0.099424  0  4.091892  0
C  C69  1  0.95659159  0.62467279  0.51121375  1  -0.002289  0  -0.096718  -0.139689  0  4.023937  0
S  S70  1  0.63642116  0.32386479  0.25611253  1  3.015985  0  0.540662  1.162283  0  5.950752  0
S  S71  1  0.62396195  0.69513262  0.35212441  1  3.080518  0  0.554372  1.113444  0  5.969373  0
N  N72  1  0.50584871  0.71300242  0.48527623  1  -1.205718  0  -0.294781  -0.201136  0  3.438091  0
N  N73  1  0.50383187  0.29148016  0.51281813  1  -1.237935  0  -0.313642  -0.192707  0  3.506046  0
O  O74  1  0.46919855  0.58110882  0.60938304  1  -1.176183  0  -0.319942  -0.56161  0  2.329661  0
O  O75  1  0.51952176  0.43385095  0.61990901  1  -1.168778  0  -0.321068  -0.548515  0  2.317829  0
O  O76  1  0.33346032  0.62664636  0.48229672  1  -1.162519  0  -0.325202  -0.549604  0  2.272687  0
O  O77  1  0.35656115  0.48671375  0.51417838  1  -1.18143  0  -0.314597  -0.562179  0  2.388474  0
O  O78  1  0.50943476  0.55321525  0.38115164  1  -1.153935  0  -0.307805  -0.536574  0  2.373917  0
O  O79  1  0.50099137  0.41852225  0.39010971  1  -1.160111  0  -0.307516  -0.540122  0  2.337666  0
O  O80  1  0.65730534  0.51786879  0.51139265  1  -1.176985  0  -0.325222  -0.561984  0  2.384728  0
O  O81  1  0.68104621  0.37880632  0.48764371  1  -1.155717  0  -0.315175  -0.536645  0  2.29906  0
O  O82  1  0.70968334  0.34514184  0.30015764  1  -1.269349  0  -0.293495  -0.492646  0  2.133886  0
O  O83  1  0.58965431  0.26141992  0.28327409  1  -1.292911  0  -0.331615  -0.566595  0  2.112134  0
O  O84  1  0.70307032  0.28594329  0.17767748  1  -1.188534  0  -0.369506  -0.5428  0  2.120775  0
O  O85  1  0.69232079  0.60805682  0.37340612  1  -1.27164  0  -0.273629  -0.478581  0  2.22182  0
O  O86  1  0.54719107  0.71696494  0.29356406  1  -1.245058  0  -0.28907  -0.474912  0  2.101303  0
O  O87  1  0.70206023  0.74879188  0.33006897  1  -1.202176  0  -0.361417  -0.539723  0  2.133484  0
