# generated using pymatgen
data_CoH30C28(NO3)4
_symmetry_space_group_name_H-M   'P 1'
_cell_length_a   7.07882954
_cell_length_b   9.23426141
_cell_length_c   11.52838063
_cell_angle_alpha   87.65893633
_cell_angle_beta   89.24050250
_cell_angle_gamma   66.19982755
_symmetry_Int_Tables_number   1
_chemical_formula_structural   CoH30C28(NO3)4
_chemical_formula_sum   'Co1 H30 C28 N4 O12'
_cell_volume   688.91869045
_cell_formula_units_Z   1
loop_
 _symmetry_equiv_pos_site_id
 _symmetry_equiv_pos_as_xyz
  1  'x, y, z'
loop_
 _atom_site_type_symbol
 _atom_site_label
 _atom_site_symmetry_multiplicity
 _atom_site_fract_x
 _atom_site_fract_y
 _atom_site_fract_z
 _atom_site_occupancy
 _atom_site_hse06_10hf_ddec_charge
 _atom_site_hse06_10hf_ddec_spin_density
 _atom_site_hse06_10hf_ddec_sum_bond_order
 _atom_site_hse06_10hf_magmom
 _atom_site_hse06_ddec_charge
 _atom_site_hse06_ddec_spin_density
 _atom_site_hse06_ddec_sum_bond_order
 _atom_site_hse06_magmom
 _atom_site_pbe_cm5_charge
 _atom_site_pbe_ddec_charge
 _atom_site_pbe_ddec_spin_density
 _atom_site_pbe_ddec_sum_bond_order
 _atom_site_pbe_magmom
Co  Co0  1  0.99999834  0.50000120  0.00000030  1  0.733958  1.02483  2.741426  0.963  0.821062  1.021165  2.657712  0.964  0.618275  0.694792  1.028249  2.786965  0.959
H  H1  1  0.57175804  0.43236353  0.71725928  1  0.377916  -3.1e-05  0.961166  0.0  0.391378  -2.7e-05  0.944055  0.0  0.305027  0.368524  -3.3e-05  0.971317  0.0
H  H2  1  0.42824575  0.56762607  0.28274670  1  0.377898  -3.1e-05  0.961182  0.0  0.391362  -2.7e-05  0.944075  0.0  0.305016  0.368505  -3.3e-05  0.971339  0.0
H  H3  1  0.39058029  0.39028393  0.03620837  1  0.397488  -3.5e-05  0.934295  0.0  0.408084  -9e-06  0.919385  0.0  0.300648  0.390321  2e-05  0.944444  0.0
H  H4  1  0.60941573  0.60971516  0.96378868  1  0.397453  -3.5e-05  0.934345  0.0  0.40805  -9e-06  0.919434  0.0  0.300643  0.390286  2e-05  0.944494  0.0
H  H5  1  0.26939626  0.55646276  0.08317742  1  0.378401  5.8e-05  0.95519  0.0  0.389375  0.000241  0.944192  0.0  0.297401  0.370724  -2.9e-05  0.962971  0.0
H  H6  1  0.73060107  0.44353399  0.91682492  1  0.378424  5.8e-05  0.955209  0.0  0.389399  0.000241  0.944208  0.0  0.297365  0.370751  -2.9e-05  0.962977  0.0
H  H7  1  0.31982547  0.08442944  0.74077315  1  0.271716  4e-06  1.012102  0.0  0.279053  9e-06  1.006551  0.0  0.302524  0.26692  -4e-06  1.015564  0.0
H  H8  1  0.68017609  0.91557305  0.25922799  1  0.271732  4e-06  1.01206  0.0  0.279069  9e-06  1.00651  0.0  0.302546  0.266937  -4e-06  1.015522  0.0
H  H9  1  0.65074543  0.52266249  0.55700835  1  0.111521  -1e-06  1.058252  0.0  0.11526  1e-06  1.055967  0.0  0.109717  0.108833  -3e-06  1.060039  0.0
H  H10  1  0.34925656  0.47733065  0.44299578  1  0.111446  -1e-06  1.058362  0.0  0.115184  1e-06  1.056079  0.0  0.109686  0.108753  -3e-06  1.060144  0.0
H  H11  1  0.12838353  0.99866274  0.23845914  1  0.122747  -3.9e-05  1.000363  0.0  0.125597  -4.3e-05  1.000089  0.0  0.111415  0.12058  -4.7e-05  1.000765  0.0
H  H12  1  0.87160552  0.00133884  0.76153535  1  0.122745  -3.9e-05  1.000336  0.0  0.125595  -4.3e-05  1.000062  0.0  0.111398  0.120583  -4.7e-05  1.000721  0.0
H  H13  1  0.98535428  0.29279525  0.19577174  1  0.106047  -0.0002  1.017389  0.0  0.10846  -9.4e-05  1.014282  0.0  0.12456  0.103759  -0.000301  1.020375  0.0
H  H14  1  0.01463398  0.70720520  0.80422456  1  0.106123  -0.0002  1.017313  0.0  0.108539  -9.4e-05  1.014205  0.0  0.124579  0.103832  -0.000301  1.020303  0.0
H  H15  1  0.22846025  0.23084086  0.86526005  1  0.09926  -0.00026  1.063768  0.0  0.101227  -0.000154  1.061326  0.0  0.12442  0.097418  -0.000359  1.065969  0.0
H  H16  1  0.77154211  0.76916277  0.13473929  1  0.099275  -0.00026  1.063783  0.0  0.101243  -0.000154  1.06134  0.0  0.124414  0.097436  -0.00036  1.065986  0.0
H  H17  1  0.30686979  0.81562425  0.07928273  1  0.125526  -6.7e-05  0.992563  0.0  0.129974  -2.1e-05  0.987623  0.0  0.115029  0.121467  -0.000172  0.997822  0.0
H  H18  1  0.69312242  0.18437960  0.92071246  1  0.125503  -6.7e-05  0.99258  0.0  0.129953  -2.1e-05  0.987637  0.0  0.115018  0.121448  -0.000172  0.997835  0.0
H  H19  1  0.53755555  0.75546342  0.67792565  1  0.08079  -1e-05  1.012634  0.0  0.081352  -6e-06  1.012315  0.0  0.104645  0.080244  -1.8e-05  1.012812  0.0
H  H20  1  0.46244667  0.24453790  0.32207812  1  0.080751  -1e-05  1.012694  0.0  0.081312  -6e-06  1.012377  0.0  0.104637  0.080211  -1.8e-05  1.012872  0.0
H  H21  1  0.50429460  0.93090478  0.59431539  1  0.073679  4e-06  0.988838  0.0  0.073767  3e-06  0.988676  0.0  0.102225  0.073209  4e-06  0.989483  0.0
H  H22  1  0.49571560  0.06909751  0.40568731  1  0.07364  4e-06  0.988882  0.0  0.07373  3e-06  0.988715  0.0  0.102229  0.073166  4e-06  0.989536  0.0
H  H23  1  0.18007102  0.79215543  0.63617854  1  0.089852  8e-06  1.001731  0.0  0.090204  9e-06  1.002669  0.0  0.089972  0.089524  8e-06  1.0008  0.0
H  H24  1  0.81993087  0.20785168  0.36381545  1  0.089864  8e-06  1.001669  0.0  0.090217  9e-06  1.002604  0.0  0.089991  0.089535  8e-06  1.000739  0.0
H  H25  1  0.32219770  0.77848135  0.50799974  1  0.088475  -1e-06  0.998011  0.0  0.087868  -1e-06  1.000057  0.0  0.088759  0.088471  -2e-06  0.997114  0.0
H  H26  1  0.67781549  0.22152317  0.49199846  1  0.088515  -1e-06  0.997952  0.0  0.087908  -0.0  0.999998  0.0  0.088785  0.088509  -2e-06  0.997058  0.0
H  H27  1  0.01739661  0.09305900  0.60385467  1  0.075778  2e-06  1.007048  0.0  0.076447  -1e-06  1.00762  0.0  0.083268  0.075119  3e-06  1.006947  0.0
H  H28  1  0.98261606  0.90694900  0.39613645  1  0.075797  2e-06  1.006924  0.0  0.076472  -1e-06  1.00748  0.0  0.083265  0.075131  3e-06  1.006836  0.0
H  H29  1  0.15827696  0.07229012  0.47412728  1  0.075682  -1e-06  0.992234  0.0  0.075979  -1e-06  0.993227  0.0  0.083981  0.075495  -1e-06  0.991118  0.0
H  H30  1  0.84174409  0.92770949  0.52586489  1  0.075361  -1e-06  0.992345  0.0  0.075654  -1e-06  0.993342  0.0  0.083854  0.075196  -1e-06  0.991203  0.0
C  C31  1  0.80494527  0.51102883  0.53230895  1  -0.124041  -3.2e-05  3.968661  0.0  -0.123874  -6.7e-05  3.986866  0.0  -0.078807  -0.123536  1.9e-05  3.955378  0.0
C  C32  1  0.19505766  0.48895962  0.46769709  1  -0.123984  -3.1e-05  3.968695  0.0  -0.123819  -6.7e-05  3.986896  0.0  -0.078787  -0.123462  1.9e-05  3.955385  0.0
C  C33  1  0.96280355  0.46049785  0.61513640  1  -0.049721  0.001653  3.971274  0.002  -0.05362  0.00132  3.98946  0.002  -0.007757  -0.046873  0.002087  3.958024  0.003
C  C34  1  0.03719844  0.53949529  0.38486773  1  -0.049895  0.001653  3.971418  0.002  -0.053789  0.001321  3.989604  0.002  -0.007843  -0.047044  0.002088  3.958162  0.003
C  C35  1  0.15998091  0.44838303  0.58147554  1  -0.045818  -4.6e-05  3.969305  0.0  -0.049225  -7e-05  3.987367  0.0  -0.004455  -0.043142  -5e-06  3.955568  0.0
C  C36  1  0.84002026  0.55160897  0.41852952  1  -0.045965  -4.5e-05  3.969477  0.0  -0.049386  -7.1e-05  3.987559  0.0  -0.004487  -0.04329  -5e-06  3.955739  0.0
C  C37  1  0.34273961  0.38256014  0.66150361  1  0.626844  0.000398  4.129648  0.0  0.661341  0.000185  4.117064  0.0  0.238929  0.602826  0.000693  4.138061  0.001
C  C38  1  0.65726277  0.61742950  0.33850326  1  0.626996  0.000399  4.129574  0.0  0.661498  0.000186  4.116987  0.0  0.239019  0.60298  0.000693  4.137987  0.001
C  C39  1  0.92196672  0.43625491  0.74142486  1  0.589597  -0.000158  4.186119  0.001  0.625038  -0.000388  4.176854  0.0  0.218719  0.566019  -2e-06  4.190695  0.001
C  C40  1  0.07803353  0.56374178  0.25857915  1  0.58953  -0.000157  4.185971  0.001  0.62497  -0.000388  4.176706  0.0  0.218715  0.565958  -1e-06  4.190537  0.001
C  C41  1  0.14954612  0.04545151  0.15339583  1  -0.121569  0.000471  3.977971  0.001  -0.129844  0.00057  3.996425  0.001  -0.079933  -0.116445  9.1e-05  3.967604  0.001
C  C42  1  0.85044825  0.95454529  0.84660309  1  -0.121506  0.000471  3.978033  0.001  -0.12978  0.000571  3.996487  0.001  -0.079931  -0.116383  9.1e-05  3.967655  0.001
C  C43  1  0.07242269  0.20834724  0.13163085  1  0.105356  -0.005708  3.865349  -0.004  0.117987  -0.003778  3.880339  -0.002  0.053547  0.095715  -0.008108  3.858697  -0.005
C  C44  1  0.92756570  0.79165323  0.86836978  1  0.105215  -0.005709  3.865324  -0.004  0.11784  -0.003779  3.880314  -0.002  0.053516  0.095573  -0.008109  3.858672  -0.005
C  C45  1  0.20390396  0.17298370  0.94444849  1  0.058044  -0.006685  3.886393  -0.004  0.071756  -0.00462  3.900774  -0.003  0.048766  0.048729  -0.00797  3.879556  -0.005
C  C46  1  0.79609416  0.82702005  0.05555266  1  0.057932  -0.006686  3.886409  -0.004  0.071645  -0.004621  3.90079  -0.003  0.048728  0.048604  -0.007971  3.879587  -0.005
C  C47  1  0.27357442  0.00867186  0.95752945  1  -0.088651  0.000291  4.023249  0.001  -0.102299  0.000405  4.048078  0.001  -0.012221  -0.079762  -2.2e-05  4.007581  0.001
C  C48  1  0.72642362  0.99133187  0.04246910  1  -0.088459  0.00029  4.02306  0.001  -0.102105  0.000406  4.047889  0.001  -0.01216  -0.079566  -2.2e-05  4.007395  0.001
C  C49  1  0.24989138  0.94354702  0.06556268  1  -0.042037  -0.005931  3.934904  -0.003  -0.032737  -0.003443  3.947457  -0.002  -0.061797  -0.05055  -0.009602  3.929912  -0.005
C  C50  1  0.75010205  0.05645447  0.93443433  1  -0.04209  -0.005931  3.934978  -0.003  -0.032791  -0.003443  3.94753  -0.002  -0.061799  -0.050611  -0.009605  3.929991  -0.005
C  C51  1  0.36422781  0.89990511  0.85934633  1  0.4857  -0.000154  4.159422  0.0  0.514097  -0.000124  4.162905  0.0  0.240732  0.467511  -0.000224  4.155495  0.0
C  C52  1  0.63577015  0.10009860  0.14064962  1  0.485673  -0.000154  4.159391  0.0  0.514068  -0.000125  4.162878  0.0  0.24071  0.467487  -0.000224  4.155454  0.0
C  C53  1  0.42457975  0.87292503  0.64922779  1  0.001224  -1.7e-05  3.913251  0.0  0.007301  -6e-06  3.924351  0.0  -0.061415  -0.00272  -2.5e-05  3.906012  0.0
C  C54  1  0.57542459  0.12707737  0.35077069  1  0.001378  -1.7e-05  3.913254  0.0  0.007456  -5e-06  3.924357  0.0  -0.061381  -0.002576  -2.5e-05  3.906033  0.0
C  C55  1  0.25098100  0.85603574  0.58054987  1  -0.174903  5e-06  3.945134  0.0  -0.176507  6e-06  3.96008  0.0  -0.167497  -0.173631  2e-06  3.934998  0.0
C  C56  1  0.74902351  0.14396898  0.41944504  1  -0.175024  6e-06  3.945051  0.0  -0.176633  5e-06  3.96  0.0  -0.167493  -0.173742  2e-06  3.934909  0.0
C  C57  1  0.08595230  0.01178371  0.53267549  1  -0.14361  -0.0  3.961241  0.0  -0.144525  -2e-06  3.976251  0.0  -0.168872  -0.142969  -2e-06  3.951115  0.0
C  C58  1  0.91406013  0.98822196  0.46731660  1  -0.14317  -1e-06  3.961055  0.0  -0.144069  -2e-06  3.976057  0.0  -0.168809  -0.142541  -2e-06  3.950918  0.0
N  N59  1  0.35133930  0.96642895  0.75191278  1  -0.368359  5.9e-05  3.574887  0.0  -0.392366  6.2e-05  3.587373  0.0  -0.420776  -0.352536  7e-06  3.565832  0.0
N  N60  1  0.64865993  0.03357242  0.24808671  1  -0.368364  5.9e-05  3.574721  0.0  -0.392367  6.2e-05  3.587198  0.0  -0.42078  -0.35254  7e-06  3.565663  0.0
N  N61  1  0.10276748  0.27225786  0.02879444  1  -0.195946  -0.010507  3.61498  -0.007  -0.227675  -0.008634  3.634202  -0.005  -0.334706  -0.179893  -0.012053  3.605836  -0.008
N  N62  1  0.89722380  0.72774255  0.97120700  1  -0.195926  -0.010506  3.61501  -0.007  -0.227654  -0.008632  3.634237  -0.005  -0.334677  -0.179867  -0.012053  3.605865  -0.008
O  O63  1  0.78163011  0.38814371  0.77259286  1  -0.570205  -0.000573  2.22487  0.0  -0.594254  -0.000618  2.212045  0.0  -0.311111  -0.552843  -0.000552  2.232201  0.0
O  O64  1  0.21836985  0.61185651  0.22741187  1  -0.570109  -0.000574  2.22477  0.0  -0.594158  -0.000618  2.211949  0.0  -0.311096  -0.552752  -0.000551  2.232109  0.0
O  O65  1  0.03492720  0.46822134  0.81105647  1  -0.547702  0.02023  2.392155  0.034  -0.579145  0.017139  2.381126  0.029  -0.283283  -0.525749  0.023916  2.397556  0.04
O  O66  1  0.96506583  0.53178138  0.18894657  1  -0.547689  0.020229  2.392085  0.034  -0.579131  0.017138  2.381057  0.029  -0.283307  -0.52574  0.023916  2.397487  0.04
O  O67  1  0.41240751  0.24452138  0.70140023  1  -0.524585  0.000216  2.16767  0.0  -0.544856  0.000127  2.158366  0.0  -0.292158  -0.509957  0.000356  2.173475  0.001
O  O68  1  0.58758776  0.75547430  0.29860914  1  -0.524643  0.000216  2.167582  0.0  -0.544917  0.000126  2.158278  0.0  -0.292196  -0.510013  0.000357  2.173388  0.001
O  O69  1  0.43063780  0.48266008  0.67447064  1  -0.487045  5.3e-05  2.353014  0.0  -0.509606  0.0  2.335838  0.0  -0.316512  -0.471161  0.000119  2.362697  0.0
O  O70  1  0.56936480  0.51733189  0.32553439  1  -0.487051  5.2e-05  2.353007  0.0  -0.509612  1e-06  2.335836  0.0  -0.31653  -0.471165  0.000119  2.362694  0.0
O  O71  1  0.43778647  0.75301388  0.87746919  1  -0.517316  -3.3e-05  2.213263  0.0  -0.538041  2.5e-05  2.206668  0.0  -0.297172  -0.503531  -0.000206  2.21733  0.0
O  O72  1  0.56221152  0.24698984  0.12252763  1  -0.517336  -3.3e-05  2.213328  0.0  -0.538062  2.5e-05  2.206738  0.0  -0.297167  -0.503556  -0.000206  2.217392  0.0
O  O73  1  0.28208440  0.49574033  0.01149463  1  -0.707074  -0.005374  2.209855  -0.004  -0.743468  -0.008578  2.182761  -0.005  -0.554902  -0.683472  -0.001709  2.227143  -0.001
O  O74  1  0.71791146  0.50426231  0.98850749  1  -0.707058  -0.005375  2.209916  -0.004  -0.743455  -0.008579  2.182821  -0.005  -0.554856  -0.683462  -0.001709  2.227203  -0.001
