# generated using pymatgen
data_CdH6C7(SN2)2
_symmetry_space_group_name_H-M   'P 1'
_cell_length_a   5.85332053
_cell_length_b   13.57013763
_cell_length_c   14.14889736
_cell_angle_alpha   87.46324347
_cell_angle_beta   78.07393690
_cell_angle_gamma   77.61589235
_symmetry_Int_Tables_number   1
_chemical_formula_structural   CdH6C7(SN2)2
_chemical_formula_sum   'Cd4 H24 C28 S8 N16'
_cell_volume   1074.00826255
_cell_formula_units_Z   4
loop_
 _symmetry_equiv_pos_site_id
 _symmetry_equiv_pos_as_xyz
  1  'x, y, z'
loop_
 _atom_site_type_symbol
 _atom_site_label
 _atom_site_symmetry_multiplicity
 _atom_site_fract_x
 _atom_site_fract_y
 _atom_site_fract_z
 _atom_site_occupancy
 _atom_site_hle17_bader_spin_density
 _atom_site_hle17_ddec_charge
 _atom_site_hle17_ddec_spin_density
 _atom_site_hle17_ddec_sum_bond_order
 _atom_site_hle17_magmom
 _atom_site_hse06_10hf_bader_spin_density
 _atom_site_hse06_10hf_ddec_charge
 _atom_site_hse06_10hf_ddec_spin_density
 _atom_site_hse06_10hf_ddec_sum_bond_order
 _atom_site_hse06_10hf_magmom
 _atom_site_hse06_bader_spin_density
 _atom_site_hse06_ddec_charge
 _atom_site_hse06_ddec_spin_density
 _atom_site_hse06_ddec_sum_bond_order
 _atom_site_hse06_magmom
 _atom_site_pbe_bader_spin_density
 _atom_site_pbe_cm5_charge
 _atom_site_pbe_ddec_charge
 _atom_site_pbe_ddec_spin_density
 _atom_site_pbe_ddec_sum_bond_order
 _atom_site_pbe_magmom
Cd  Cd0  1  0.96361763  0.97148018  0.73902434  1  0  0.972573  0  1.981055  0  0  0.798516  0  2.440701  0  0  0.841576  0  2.404942  0  0  0.728434  0.768567  0  2.464698  0
Cd  Cd1  1  0.67481166  0.02842998  0.26128037  1  0  0.971825  0  1.980993  0  0  0.797764  0  2.440447  0  0  0.840822  0  2.404782  0  0  0.728169  0.767825  0  2.464403  0
Cd  Cd2  1  0.68516440  0.52850314  0.23871528  1  0  0.972487  0  1.980906  0  0  0.798496  0  2.440377  0  0  0.841536  0  2.404694  0  0  0.728537  0.768567  0  2.464304  0
Cd  Cd3  1  0.45394959  0.47138358  0.76105444  1  0  0.9716  0  1.980797  0  0  0.797509  0  2.440444  0  0  0.840586  0  2.404738  0  0  0.728126  0.767558  0  2.464389  0
H  H4  1  0.29679427  0.37416822  0.94172036  1  0  0.292754  0  0.949269  0  0  0.275977  0  1.020407  0  0  0.281703  0  1.017193  0  0  0.273119  0.271883  0  1.022716  0
H  H5  1  0.61271491  0.62584175  0.05807953  1  0  0.292702  0  0.949519  0  0  0.275921  0  1.020978  0  0  0.281652  0  1.017767  0  0  0.27284  0.271818  0  1.023282  0
H  H6  1  0.42004145  0.12579824  0.44179404  1  0  0.292861  0  0.949719  0  0  0.276182  0  1.020743  0  0  0.28191  0  1.017557  0  0  0.273197  0.272082  0  1.023043  0
H  H7  1  0.98943635  0.87409119  0.55829813  1  0  0.293278  0  0.948433  0  0  0.276399  0  1.020028  0  0  0.282124  0  1.016816  0  0  0.273011  0.272299  0  1.022335  0
H  H8  1  0.27611677  0.30429651  0.85071332  1  0  0.302188  0  0.894793  0  0  0.294128  0  0.947222  0  0  0.298419  0  0.94601  0  0  0.300288  0.291058  0  0.948137  0
H  H9  1  0.43129791  0.69563724  0.14908337  1  0  0.301887  0  0.896859  0  0  0.294149  0  0.94871  0  0  0.298451  0  0.947476  0  0  0.300732  0.291077  0  0.94962  0
H  H10  1  0.32975641  0.19546745  0.35071021  1  0  0.301355  0  0.896364  0  0  0.293887  0  0.948115  0  0  0.298171  0  0.946927  0  0  0.300192  0.290835  0  0.948982  0
H  H11  1  0.87769462  0.80412990  0.64919626  1  0  0.302756  0  0.897137  0  0  0.294804  0  0.949152  0  0  0.299108  0  0.947922  0  0  0.300588  0.291733  0  0.950067  0
H  H12  1  0.57977307  0.16756312  0.77743172  1  0  0.090224  0  0.965938  0  0  0.096854  0  1.033913  0  0  0.099344  0  1.032436  0  0  0.11152  0.095009  0  1.035111  0
H  H13  1  0.52552658  0.83232403  0.22261251  1  0  0.090593  0  0.966722  0  0  0.09689  0  1.034955  0  0  0.0993  0  1.033575  0  0  0.111374  0.095098  0  1.036103  0
H  H14  1  0.49666179  0.33240486  0.27744892  1  0  0.091907  0  0.966473  0  0  0.098237  0  1.034575  0  0  0.10062  0  1.033193  0  0  0.112197  0.096456  0  1.035725  0
H  H15  1  0.10814022  0.66747145  0.72261261  1  0  0.091112  0  0.966404  0  0  0.097419  0  1.034697  0  0  0.099796  0  1.033363  0  0  0.111825  0.09563  0  1.03581  0
H  H16  1  0.67824566  0.34762822  0.00428951  1  0  0.113301  0  0.954819  0  0  0.12177  0  1.019411  0  0  0.124316  0  1.018387  0  0  0.101635  0.119894  0  1.020252  0
H  H17  1  0.03022627  0.65243578  0.99576534  1  0  0.113574  0  0.95421  0  0  0.121852  0  1.018952  0  0  0.12439  0  1.01796  0  0  0.101756  0.119983  0  1.019759  0
H  H18  1  0.77510592  0.15258619  0.50421962  1  0  0.114301  0  0.954846  0  0  0.12259  0  1.019414  0  0  0.125144  0  1.018388  0  0  0.102088  0.120717  0  1.020231  0
H  H19  1  0.43333349  0.84766203  0.49588723  1  0  0.113374  0  0.954661  0  0  0.121753  0  1.019197  0  0  0.124296  0  1.018186  0  0  0.101847  0.11988  0  1.020023  0
H  H20  1  0.05325957  0.22044828  0.01235442  1  0  0.101781  0  0.970232  0  0  0.108299  0  1.037092  0  0  0.111  0  1.03664  0  0  0.098204  0.106353  0  1.037563  0
H  H21  1  0.28621813  0.77985882  0.98771783  1  0  0.101748  0  0.971372  0  0  0.107899  0  1.038521  0  0  0.110623  0  1.038008  0  0  0.098207  0.105923  0  1.039068  0
H  H22  1  0.02318380  0.27999664  0.51218376  1  0  0.101486  0  0.970238  0  0  0.107815  0  1.03752  0  0  0.110522  0  1.037011  0  0  0.097856  0.105864  0  1.038009  0
H  H23  1  0.81623228  0.72029310  0.48763185  1  0  0.101851  0  0.970863  0  0  0.108248  0  1.037917  0  0  0.111001  0  1.037364  0  0  0.098257  0.106273  0  1.03844  0
H  H24  1  0.17194580  0.06996146  0.90156898  1  0  0.081476  0  0.943086  0  0  0.090196  0  1.006839  0  0  0.092191  0  1.005806  0  0  0.112434  0.088674  0  1.007689  0
H  H25  1  0.14416387  0.93030658  0.09849210  1  0  0.081705  0  0.942035  0  0  0.09017  0  1.006218  0  0  0.092198  0  1.00515  0  0  0.112292  0.088694  0  1.007021  0
H  H26  1  0.99158012  0.43044054  0.40134995  1  0  0.081794  0  0.9417  0  0  0.090156  0  1.005878  0  0  0.092154  0  1.004831  0  0  0.112313  0.088693  0  1.006675  0
H  H27  1  0.82414523  0.56975283  0.59827560  1  0  0.082021  0  0.943083  0  0  0.090775  0  1.006666  0  0  0.092791  0  1.005611  0  0  0.112733  0.0893  0  1.007473  0
C  C28  1  0.47076179  0.87877733  0.82350108  1  0  0.299395  0  4.028409  0  0  0.281037  0  4.329573  0  0  0.303386  0  4.342889  0  0  0.142394  0.265836  0  4.320206  0
C  C29  1  0.17394481  0.12102839  0.17674144  1  0  0.30101  0  4.02635  0  0  0.282756  0  4.327366  0  0  0.305121  0  4.340669  0  0  0.144183  0.267551  0  4.317997  0
C  C30  1  0.09981593  0.62133281  0.32314305  1  0  0.30156  0  4.028844  0  0  0.283348  0  4.329558  0  0  0.305728  0  4.342834  0  0  0.144053  0.268131  0  4.320211  0
C  C31  1  0.04555040  0.37862459  0.67677157  1  0  0.299293  0  4.029088  0  0  0.280952  0  4.330243  0  0  0.303335  0  4.343596  0  0  0.143027  0.265731  0  4.320851  0
C  C32  1  0.47453678  0.05078038  0.63331700  1  0  0.30572  0  4.008645  0  0  0.282289  0  4.317162  0  0  0.304251  0  4.329993  0  0  0.147784  0.267357  0  4.308173  0
C  C33  1  0.15886372  0.94930818  0.36697783  1  0  0.304711  0  4.010116  0  0  0.281208  0  4.318584  0  0  0.303156  0  4.331395  0  0  0.146999  0.266289  0  4.30959  0
C  C34  1  0.27509146  0.44914171  0.13304810  1  0  0.304915  0  4.0074  0  0  0.281462  0  4.315932  0  0  0.303413  0  4.328733  0  0  0.147098  0.266538  0  4.306938  0
C  C35  1  0.85917420  0.55059469  0.86676818  1  0  0.30393  0  4.008875  0  0  0.280388  0  4.317527  0  0  0.302333  0  4.330364  0  0  0.146682  0.265469  0  4.308503  0
C  C36  1  0.67862512  0.18171771  0.83121690  1  0  0.024726  0  3.666911  0  0  -0.012535  0  3.920404  0  0  -0.008779  0  3.937826  0  0  0.035211  -0.014941  0  3.908661  0
C  C37  1  0.69216011  0.81825410  0.16883307  1  0  0.024147  0  3.666831  0  0  -0.013102  0  3.920408  0  0  -0.009316  0  3.937888  0  0  0.036113  -0.015535  0  3.908621  0
C  C38  1  0.60971334  0.31833562  0.33117906  1  0  0.022176  0  3.667876  0  0  -0.015175  0  3.921882  0  0  -0.011346  0  3.939377  0  0  0.035697  -0.017626  0  3.910071  0
C  C39  1  0.26072545  0.68164274  0.66882136  1  0  0.022947  0  3.667344  0  0  -0.014333  0  3.921234  0  0  -0.010532  0  3.938704  0  0  0.03566  -0.016753  0  3.909429  0
C  C40  1  0.59805243  0.26708138  0.89051819  1  0  0.249304  0  3.81369  0  0  0.249165  0  4.061586  0  0  0.253382  0  4.083732  0  0  0.093296  0.245885  0  4.046748  0
C  C41  1  0.75589668  0.73291928  0.10947053  1  0  0.251597  0  3.808967  0  0  0.251789  0  4.056697  0  0  0.256016  0  4.078858  0  0  0.094267  0.248507  0  4.041844  0
C  C42  1  0.61438353  0.23297247  0.39050769  1  0  0.251813  0  3.810679  0  0  0.251912  0  4.058606  0  0  0.256137  0  4.080728  0  0  0.092853  0.248623  0  4.043792  0
C  C43  1  0.23939376  0.76702654  0.60956064  1  0  0.251961  0  3.80877  0  0  0.252133  0  4.05659  0  0  0.256361  0  4.078722  0  0  0.093235  0.248852  0  4.041755  0
C  C44  1  0.73555401  0.28224059  0.95653581  1  0  -0.104646  0  3.661535  0  0  -0.128035  0  3.907875  0  0  -0.128327  0  3.9259  0  0  -0.078185  -0.127667  0  3.895861  0
C  C45  1  0.97453193  0.71786868  0.04348468  1  0  -0.106961  0  3.661485  0  0  -0.130235  0  3.907733  0  0  -0.130572  0  3.925819  0  0  -0.079107  -0.129837  0  3.895663  0
C  C46  1  0.76702662  0.21797866  0.45646309  1  0  -0.10825  0  3.662723  0  0  -0.131599  0  3.909112  0  0  -0.131942  0  3.927157  0  0  -0.079164  -0.131211  0  3.897108  0
C  C47  1  0.44292944  0.78219385  0.54355276  1  0  -0.105655  0  3.659772  0  0  -0.129046  0  3.906146  0  0  -0.12936  0  3.924199  0  0  -0.078434  -0.128676  0  3.894127  0
C  C48  1  0.94432347  0.21143668  0.96078623  1  0  -0.101307  0  3.754222  0  0  -0.109564  0  4.002548  0  0  -0.113848  0  4.022772  0  0  -0.089141  -0.106895  0  3.989082  0
C  C49  1  0.11688007  0.78876491  0.03926335  1  0  -0.099613  0  3.756774  0  0  -0.107408  0  4.004587  0  0  -0.111681  0  4.024884  0  0  -0.088861  -0.104753  0  3.991093  0
C  C50  1  0.90520612  0.28889387  0.46065259  1  0  -0.100477  0  3.755876  0  0  -0.108491  0  4.004038  0  0  -0.112743  0  4.024318  0  0  -0.089017  -0.10584  0  3.990582  0
C  C51  1  0.65581905  0.71131902  0.53920568  1  0  -0.100554  0  3.757311  0  0  -0.108604  0  4.005238  0  0  -0.112924  0  4.025561  0  0  -0.089072  -0.105927  0  3.991741  0
C  C52  1  0.01137782  0.12767864  0.89990423  1  0  0.095448  0  3.718374  0  0  0.060373  0  3.973728  0  0  0.066212  0  3.991751  0  0  0.029442  0.056587  0  3.961513  0
C  C53  1  0.03953165  0.87250182  0.10016413  1  0  0.094263  0  3.719033  0  0  0.059325  0  3.974407  0  0  0.065111  0  3.992488  0  0  0.029122  0.05552  0  3.962146  0
C  C54  1  0.88863895  0.37260356  0.39975851  1  0  0.095885  0  3.717494  0  0  0.061169  0  3.972639  0  0  0.066991  0  3.990663  0  0  0.030224  0.057344  0  3.960392  0
C  C55  1  0.66199047  0.62751665  0.60002573  1  0  0.093885  0  3.722803  0  0  0.05886  0  3.978288  0  0  0.064677  0  3.99634  0  0  0.02902  0.055028  0  3.966049  0
S  S56  1  0.71154236  0.85778231  0.86858476  1  0  -0.338639  0  2.130715  0  0  -0.308377  0  2.44291  0  0  -0.326108  0  2.43795  0  0  -0.150722  -0.295873  0  2.445952  0
S  S57  1  0.43931059  0.14129199  0.13110924  1  0  -0.339793  0  2.129503  0  0  -0.309458  0  2.441058  0  0  -0.32722  0  2.436168  0  0  -0.151804  -0.296928  0  2.444042  0
S  S58  1  0.31957109  0.64207491  0.36845904  1  0  -0.339611  0  2.129534  0  0  -0.3093  0  2.441098  0  0  -0.327033  0  2.436141  0  0  -0.151585  -0.296814  0  2.444138  0
S  S59  1  0.33118154  0.35789877  0.63134536  1  0  -0.338627  0  2.132488  0  0  -0.308186  0  2.444732  0  0  -0.325911  0  2.439724  0  0  -0.150806  -0.29571  0  2.447827  0
S  S60  1  0.23336730  0.06488991  0.58926152  1  0  -0.331291  0  2.177499  0  0  -0.298964  0  2.509892  0  0  -0.315306  0  2.503155  0  0  -0.13204  -0.287375  0  2.5142  0
S  S61  1  0.88733612  0.93581925  0.41132625  1  0  -0.331107  0  2.177447  0  0  -0.298483  0  2.509547  0  0  -0.31486  0  2.502932  0  0  -0.131719  -0.286896  0  2.513834  0
S  S62  1  0.04791750  0.43542799  0.08880793  1  0  -0.330731  0  2.176816  0  0  -0.298323  0  2.509038  0  0  -0.31456  0  2.50224  0  0  -0.131854  -0.286843  0  2.513448  0
S  S63  1  0.57407993  0.56440361  0.91087542  1  0  -0.330311  0  2.176893  0  0  -0.297619  0  2.509192  0  0  -0.313993  0  2.502543  0  0  -0.131416  -0.28604  0  2.513496  0
N  N64  1  0.29467771  0.89178485  0.79191145  1  0  -0.539998  0  2.91667  0  0  -0.480936  0  3.189894  0  0  -0.503119  0  3.1983  0  0  -0.399925  -0.465777  0  3.183985  0
N  N65  1  0.97893900  0.10857148  0.20876603  1  0  -0.540825  0  2.913936  0  0  -0.481894  0  3.187194  0  0  -0.504046  0  3.195552  0  0  -0.401225  -0.466759  0  3.181331  0
N  N66  1  0.93676672  0.60850530  0.29134590  1  0  -0.541611  0  2.917969  0  0  -0.482759  0  3.191356  0  0  -0.504924  0  3.199637  0  0  -0.401089  -0.467613  0  3.185522  0
N  N67  1  0.83798784  0.39144833  0.70862970  1  0  -0.539824  0  2.915376  0  0  -0.480908  0  3.188695  0  0  -0.503093  0  3.197093  0  0  -0.400462  -0.465749  0  3.182791  0
N  N68  1  0.65056015  0.04197879  0.66438310  1  0  -0.543433  0  2.90735  0  0  -0.484789  0  3.18208  0  0  -0.505409  0  3.188764  0  0  -0.394473  -0.470673  0  3.177369  0
N  N69  1  0.35745776  0.95757500  0.33568763  1  0  -0.542377  0  2.909938  0  0  -0.483764  0  3.184674  0  0  -0.504313  0  3.191282  0  0  -0.393582  -0.46971  0  3.180051  0
N  N70  1  0.44237387  0.45765441  0.16428006  1  0  -0.543022  0  2.907319  0  0  -0.484337  0  3.181995  0  0  -0.504941  0  3.188685  0  0  -0.393707  -0.47024  0  3.1773  0
N  N71  1  0.06614578  0.54209182  0.83564469  1  0  -0.542225  0  2.908857  0  0  -0.483405  0  3.183106  0  0  -0.503997  0  3.189876  0  0  -0.393471  -0.469309  0  3.178349  0
N  N72  1  0.87872507  0.11386611  0.83637651  1  0  -0.315939  0  3.352977  0  0  -0.235494  0  3.617515  0  0  -0.25399  0  3.639556  0  0  -0.332898  -0.222822  0  3.602171  0
N  N73  1  0.82970208  0.88619959  0.16370968  1  0  -0.315006  0  3.352886  0  0  -0.234428  0  3.61695  0  0  -0.252931  0  3.639031  0  0  -0.332532  -0.221753  0  3.601609  0
N  N74  1  0.74204844  0.38629939  0.33626611  1  0  -0.315623  0  3.351553  0  0  -0.235059  0  3.615833  0  0  -0.253572  0  3.637865  0  0  -0.333354  -0.222371  0  3.60049  0
N  N75  1  0.46599117  0.61373959  0.66359173  1  0  -0.314351  0  3.354443  0  0  -0.234026  0  3.618972  0  0  -0.252517  0  3.640998  0  0  -0.332538  -0.221352  0  3.603636  0
N  N76  1  0.38949963  0.33619950  0.87939320  1  0  -0.65341  0  3.209915  0  0  -0.599966  0  3.434532  0  0  -0.621025  0  3.438335  0  0  -0.596585  -0.585057  0  3.43167  0
N  N77  1  0.60507816  0.66374798  0.12047065  1  0  -0.654486  0  3.211409  0  0  -0.601313  0  3.435377  0  0  -0.622277  0  3.438962  0  0  -0.597664  -0.586453  0  3.432646  0
N  N78  1  0.47487904  0.16371682  0.37943295  1  0  -0.652916  0  3.211072  0  0  -0.599901  0  3.434442  0  0  -0.620862  0  3.438051  0  0  -0.596426  -0.585061  0  3.431713  0
N  N79  1  0.01963637  0.83612874  0.62064770  1  0  -0.656581  0  3.212539  0  0  -0.603008  0  3.436386  0  0  -0.623981  0  3.439913  0  0  -0.597275  -0.588149  0  3.433697  0
