# generated using pymatgen
data_SnH11C9NO5
_symmetry_space_group_name_H-M   'P 1'
_cell_length_a   11.20105282
_cell_length_b   11.48485117
_cell_length_c   12.23140000
_cell_angle_alpha   90.00000000
_cell_angle_beta   90.00000000
_cell_angle_gamma   111.34639781
_symmetry_Int_Tables_number   1
_chemical_formula_structural   SnH11C9NO5
_chemical_formula_sum   'Sn4 H44 C36 N4 O20'
_cell_volume   1465.53134057
_cell_formula_units_Z   4
loop_
 _symmetry_equiv_pos_site_id
 _symmetry_equiv_pos_as_xyz
  1  'x, y, z'
loop_
 _atom_site_type_symbol
 _atom_site_label
 _atom_site_symmetry_multiplicity
 _atom_site_fract_x
 _atom_site_fract_y
 _atom_site_fract_z
 _atom_site_occupancy
 _atom_site_hle17_bader_spin_density
 _atom_site_hle17_ddec_charge
 _atom_site_hle17_ddec_spin_density
 _atom_site_hle17_ddec_sum_bond_order
 _atom_site_hle17_magmom
 _atom_site_hse06_10hf_bader_spin_density
 _atom_site_hse06_10hf_ddec_charge
 _atom_site_hse06_10hf_ddec_spin_density
 _atom_site_hse06_10hf_ddec_sum_bond_order
 _atom_site_hse06_10hf_magmom
 _atom_site_hse06_bader_spin_density
 _atom_site_hse06_ddec_charge
 _atom_site_hse06_ddec_spin_density
 _atom_site_hse06_ddec_sum_bond_order
 _atom_site_hse06_magmom
 _atom_site_pbe_bader_charge
 _atom_site_pbe_bader_spin_density
 _atom_site_pbe_cm5_charge
 _atom_site_pbe_ddec_charge
 _atom_site_pbe_ddec_spin_density
 _atom_site_pbe_ddec_sum_bond_order
 _atom_site_pbe_magmom
Sn  Sn0  1  0.59315656  0.24928968  0.08055333  1  0  1.471286  0  2.872879  0  0  1.311674  0  3.374502  0  0  1.364028  0  3.349257  0  1.890814  0  0.603908  1.276049  0  3.389981  0
Sn  Sn1  1  0.90684216  0.75070909  0.58055251  1  0  1.471259  0  2.872886  0  0  1.311625  0  3.374497  0  0  1.363981  0  3.349252  0  1.890808  0  0.603905  1.275982  0  3.390012  0
Sn  Sn2  1  0.40684059  0.75070815  0.91945730  1  0  1.471265  0  2.872857  0  0  1.311601  0  3.374548  0  0  1.363959  0  3.3493  0  1.890897  0  0.603902  1.276016  0  3.389951  0
Sn  Sn3  1  0.09315535  0.24928968  0.41944667  1  0  1.471242  0  2.872907  0  0  1.31161  0  3.374521  0  0  1.363965  0  3.349273  0  1.890754  0  0.603907  1.276002  0  3.389968  0
H  H4  1  0.51211204  0.06126324  0.89139101  1  0  0.429396  0  0.874966  0  0  0.393273  0  0.945542  0  0  0.4053  0  0.928239  0  0.641403  0  0.295718  0.384785  0  0.957743  0
H  H5  1  0.98789025  0.93873553  0.39139019  1  0  0.429312  0  0.875083  0  0  0.393167  0  0.945678  0  0  0.405189  0  0.928386  0  0.641403  0  0.295656  0.38468  0  0.957878  0
H  H6  1  0.48788993  0.93873553  0.10860981  1  0  0.429363  0  0.875006  0  0  0.393245  0  0.945578  0  0  0.405271  0  0.928277  0  0.641404  0  0.295697  0.384754  0  0.957785  0
H  H7  1  0.01211079  0.06126791  0.60861308  1  0  0.429244  0  0.875164  0  0  0.393096  0  0.94578  0  0  0.405124  0  0.928477  0  0.641499  0  0.295599  0.384605  0  0.957985  0
H  H8  1  0.53497826  0.20083476  0.86304021  1  0  0.43488  0  0.811371  0  0  0.414304  0  0.869877  0  0  0.423616  0  0.858721  0  0.617643  0  0.325667  0.407553  0  0.878146  0
H  H9  1  0.96502189  0.79916307  0.36303939  1  0  0.435008  0  0.81119  0  0  0.414404  0  0.869737  0  0  0.423722  0  0.85858  0  0.617614  0  0.325702  0.407652  0  0.878008  0
H  H10  1  0.46502122  0.79916214  0.13695816  1  0  0.434895  0  0.811334  0  0  0.414323  0  0.86983  0  0  0.423635  0  0.858674  0  0.617641  0  0.325678  0.407571  0  0.8781  0
H  H11  1  0.03498360  0.20084037  0.63696388  1  0  0.434985  0  0.811148  0  0  0.414381  0  0.869681  0  0  0.423699  0  0.858525  0  0.617552  0  0.325678  0.407629  0  0.877954  0
H  H12  1  0.50944637  0.09830182  0.49553036  1  0  0.128619  0  0.955764  0  0  0.133987  0  1.019388  0  0  0.138336  0  1.016745  0  0.126077  0  0.116043  0.130985  0  1.021334  0
H  H13  1  0.99055037  0.90169881  0.99553036  1  0  0.128588  0  0.955853  0  0  0.133977  0  1.019433  0  0  0.138325  0  1.016793  0  0.126052  0  0.11605  0.130975  0  1.021379  0
H  H14  1  0.49054970  0.90169788  0.50446556  1  0  0.128635  0  0.955783  0  0  0.134003  0  1.019392  0  0  0.138352  0  1.01675  0  0.126017  0  0.116054  0.131002  0  1.021339  0
H  H15  1  0.00944659  0.09830089  0.00446883  1  0  0.128586  0  0.955777  0  0  0.133988  0  1.019359  0  0  0.138342  0  1.016717  0  0.126074  0  0.116038  0.130985  0  1.021306  0
H  H16  1  0.62521144  0.30338265  0.58710859  1  0  0.123122  0  0.906373  0  0  0.133245  0  0.961272  0  0  0.137364  0  0.957247  0  0.094951  0  0.12292  0.130028  0  0.964599  0
H  H17  1  0.87478475  0.69661892  0.08710777  1  0  0.123141  0  0.906394  0  0  0.13327  0  0.961282  0  0  0.137392  0  0.957256  0  0.094965  0  0.12292  0.130051  0  0.964611  0
H  H18  1  0.37478676  0.69661799  0.41288814  1  0  0.123102  0  0.906351  0  0  0.13323  0  0.961251  0  0  0.137352  0  0.957225  0  0.094894  0  0.122892  0.130012  0  0.964579  0
H  H19  1  0.12521201  0.30338265  0.91289223  1  0  0.123119  0  0.906373  0  0  0.133262  0  0.96124  0  0  0.137385  0  0.957214  0  0.094945  0  0.122921  0.130043  0  0.964569  0
H  H20  1  0.72425987  0.46851565  0.26706673  1  0  0.111824  0  0.942265  0  0  0.115419  0  1.011193  0  0  0.12029  0  1.005097  0  0.17997  0  0.127  0.111702  0  1.01587  0
H  H21  1  0.77573721  0.53148592  0.76706755  1  0  0.111798  0  0.942286  0  0  0.115389  0  1.011205  0  0  0.120259  0  1.00511  0  0.179989  0  0.126984  0.111672  0  1.015881  0
H  H22  1  0.27574225  0.53148592  0.73293000  1  0  0.111769  0  0.942287  0  0  0.115366  0  1.011195  0  0  0.120235  0  1.005105  0  0.180022  0  0.126963  0.111656  0  1.015875  0
H  H23  1  0.22426010  0.46851472  0.23293409  1  0  0.111802  0  0.94227  0  0  0.115393  0  1.0112  0  0  0.120266  0  1.005102  0  0.179972  0  0.126971  0.111676  0  1.015877  0
H  H24  1  0.76708317  0.15226205  0.14504309  1  0  0.160947  0  0.971013  0  0  0.177345  0  1.028488  0  0  0.180277  0  1.029423  0  0.055393  0  0.089023  0.175315  0  1.027675  0
H  H25  1  0.73291749  0.84773952  0.64503900  1  0  0.160975  0  0.971024  0  0  0.177375  0  1.028484  0  0  0.180309  0  1.029418  0  0.055443  0  0.089042  0.175343  0  1.027679  0
H  H26  1  0.23291558  0.84773765  0.85495855  1  0  0.160952  0  0.971056  0  0  0.177359  0  1.02851  0  0  0.180293  0  1.029444  0  0.05543  0  0.089025  0.175326  0  1.027707  0
H  H27  1  0.26708091  0.15225924  0.35495937  1  0  0.160949  0  0.971035  0  0  0.177355  0  1.028499  0  0  0.180288  0  1.029434  0  0.055444  0  0.089021  0.175322  0  1.027694  0
H  H28  1  0.83670520  0.26973942  0.04234429  1  0  0.15877  0  0.98325  0  0  0.176006  0  1.03924  0  0  0.178458  0  1.041219  0  0.075904  0  0.087547  0.173908  0  1.038526  0
H  H29  1  0.66329670  0.73026308  0.54234021  1  0  0.158791  0  0.983241  0  0  0.176013  0  1.039251  0  0  0.178463  0  1.041232  0  0.075929  0  0.087547  0.173924  0  1.038524  0
H  H30  1  0.16329746  0.73026121  0.95765734  1  0  0.15879  0  0.983268  0  0  0.176026  0  1.039257  0  0  0.178477  0  1.041237  0  0.075916  0  0.087563  0.173929  0  1.038543  0
H  H31  1  0.33670259  0.26973569  0.45765734  1  0  0.158829  0  0.983233  0  0  0.176051  0  1.039236  0  0  0.178503  0  1.041215  0  0.075961  0  0.087571  0.173963  0  1.03851  0
H  H32  1  0.72963627  0.11623216  0.00353762  1  0  0.173102  0  0.962692  0  0  0.193491  0  1.01223  0  0  0.197196  0  1.011933  0  0.074227  0  0.097223  0.190792  0  1.01253  0
H  H33  1  0.77036777  0.88377128  0.50353353  1  0  0.17307  0  0.962639  0  0  0.193449  0  1.012199  0  0  0.197153  0  1.011902  0  0.07412  0  0.097179  0.19075  0  1.012498  0
H  H34  1  0.27036783  0.88376754  0.99646320  1  0  0.173088  0  0.962697  0  0  0.193483  0  1.01223  0  0  0.197188  0  1.011932  0  0.074204  0  0.097212  0.190783  0  1.012532  0
H  H35  1  0.22963277  0.11622842  0.49646484  1  0  0.17309  0  0.962642  0  0  0.193468  0  1.012203  0  0  0.197173  0  1.011905  0  0.074453  0  0.097187  0.190768  0  1.012505  0
H  H36  1  0.44548340  0.37646795  0.14448142  1  0  0.159701  0  0.971655  0  0  0.175774  0  1.029835  0  0  0.178674  0  1.030822  0  0.056443  0  0.089266  0.173925  0  1.028609  0
H  H37  1  0.05451433  0.62352988  0.64448223  1  0  0.159719  0  0.971665  0  0  0.175776  0  1.029871  0  0  0.178676  0  1.030859  0  0.056358  0  0.089277  0.173927  0  1.028643  0
H  H38  1  0.55451628  0.62352708  0.85551613  1  0  0.159725  0  0.971538  0  0  0.175774  0  1.029761  0  0  0.178674  0  1.030749  0  0.056363  0  0.08928  0.173924  0  1.028537  0
H  H39  1  0.94548352  0.37646982  0.35551613  1  0  0.159753  0  0.971516  0  0  0.175807  0  1.029728  0  0  0.178708  0  1.030715  0  0.056397  0  0.089289  0.173958  0  1.028503  0
H  H40  1  0.34635444  0.22328508  0.09606341  1  0  0.162198  0  0.975524  0  0  0.179892  0  1.031508  0  0  0.182744  0  1.0329  0  0.073436  0  0.089912  0.17743  0  1.031383  0
H  H41  1  0.15364418  0.77671276  0.59606505  1  0  0.162225  0  0.975485  0  0  0.179904  0  1.03148  0  0  0.182757  0  1.032873  0  0.073471  0  0.089912  0.177444  0  1.031354  0
H  H42  1  0.65364876  0.77671463  0.90393495  1  0  0.162271  0  0.975412  0  0  0.17991  0  1.031461  0  0  0.182762  0  1.032855  0  0.073425  0  0.089911  0.177447  0  1.031339  0
H  H43  1  0.84635228  0.22328321  0.40393577  1  0  0.162246  0  0.975445  0  0  0.179902  0  1.031472  0  0  0.182754  0  1.032868  0  0.073413  0  0.089903  0.17744  0  1.031349  0
H  H44  1  0.42535710  0.34529365  0.00015370  1  0  0.166474  0  0.966569  0  0  0.186411  0  1.017202  0  0  0.189321  0  1.018359  0  0.066115  0  0.093474  0.184243  0  1.016562  0
H  H45  1  0.07464062  0.65470418  0.50015370  1  0  0.166413  0  0.966491  0  0  0.186347  0  1.017134  0  0  0.189257  0  1.018295  0  0.066147  0  0.093431  0.184179  0  1.016492  0
H  H46  1  0.57463966  0.65470792  0.99984384  1  0  0.166421  0  0.966562  0  0  0.186373  0  1.017167  0  0  0.189283  0  1.018328  0  0.066185  0  0.093445  0.184203  0  1.016531  0
H  H47  1  0.92535672  0.34529178  0.49984303  1  0  0.166437  0  0.966536  0  0  0.186369  0  1.017169  0  0  0.18928  0  1.018327  0  0.065779  0  0.093452  0.184199  0  1.01653  0
C  C48  1  0.55610048  0.17610622  0.33325294  1  0  0.103547  0  3.720052  0  0  0.101364  0  3.964004  0  0  0.104367  0  3.982841  0  0.467303  0  0.124738  0.099082  0  3.95203  0
C  C49  1  0.94389963  0.82389628  0.83325294  1  0  0.103492  0  3.720092  0  0  0.101357  0  3.963944  0  0  0.104363  0  3.98278  0  0.467312  0  0.124663  0.099076  0  3.951969  0
C  C50  1  0.44389931  0.82389628  0.66674543  1  0  0.103459  0  3.720163  0  0  0.101359  0  3.963975  0  0  0.104362  0  3.982811  0  0.467329  0  0.124723  0.099076  0  3.952004  0
C  C51  1  0.05610214  0.17610435  0.16674543  1  0  0.103508  0  3.720102  0  0  0.101404  0  3.963925  0  0  0.104408  0  3.982762  0  0.4674  0  0.124706  0.09912  0  3.951953  0
C  C52  1  0.55694000  0.18193405  0.44720392  1  0  -0.093418  0  3.665656  0  0  -0.112603  0  3.915834  0  0  -0.118587  0  3.934914  0  0.065159  0  -0.059864  -0.109311  0  3.904143  0
C  C53  1  0.94305689  0.81806939  0.94720228  1  0  -0.093387  0  3.665803  0  0  -0.112578  0  3.915902  0  0  -0.118562  0  3.934981  0  0.065117  0  -0.059864  -0.109286  0  3.90421  0
C  C54  1  0.44305800  0.81806846  0.55279526  1  0  -0.093513  0  3.665819  0  0  -0.112707  0  3.915948  0  0  -0.118692  0  3.935028  0  0.065122  0  -0.059947  -0.109417  0  3.904259  0
C  C55  1  0.05694182  0.18193498  0.05279526  1  0  -0.093438  0  3.665689  0  0  -0.112669  0  3.915815  0  0  -0.118661  0  3.9349  0  0.065182  0  -0.059878  -0.109376  0  3.904124  0
C  C56  1  0.62125588  0.29620023  0.49821607  1  0  0.013636  0  3.630483  0  0  -0.017107  0  3.880452  0  0  -0.010831  0  3.894803  0  0.002523  0  -0.042138  -0.020573  0  3.87132  0
C  C57  1  0.87874300  0.70380134  0.99821525  1  0  0.013591  0  3.630632  0  0  -0.017176  0  3.880588  0  0  -0.010902  0  3.894943  0  0.002543  0  -0.042161  -0.020642  0  3.871454  0
C  C58  1  0.37874446  0.70380134  0.50178230  1  0  0.013642  0  3.630552  0  0  -0.017122  0  3.880516  0  0  -0.010846  0  3.89487  0  0.002599  0  -0.042133  -0.020587  0  3.871382  0
C  C59  1  0.12125839  0.29620303  0.00178393  1  0  0.013646  0  3.630472  0  0  -0.017112  0  3.880426  0  0  -0.010838  0  3.894785  0  0.002528  0  -0.042137  -0.020576  0  3.871291  0
C  C60  1  0.68356844  0.40145824  0.43379989  1  0  -0.096018  0  3.730196  0  0  -0.073033  0  3.971233  0  0  -0.084579  0  3.993117  0  -0.020345  0  -0.002126  -0.066024  0  3.956963  0
C  C61  1  0.81643151  0.59854146  0.93380153  1  0  -0.096076  0  3.730306  0  0  -0.073064  0  3.971283  0  0  -0.08462  0  3.993185  0  -0.02018  0  -0.002104  -0.066053  0  3.957012  0
C  C62  1  0.31643244  0.59854240  0.56619766  1  0  -0.095984  0  3.73025  0  0  -0.07299  0  3.971251  0  0  -0.084546  0  3.993149  0  -0.020388  0  -0.002118  -0.06598  0  3.95698  0
C  C63  1  0.18356704  0.40146011  0.06620174  1  0  -0.095964  0  3.730211  0  0  -0.072981  0  3.971235  0  0  -0.084537  0  3.993136  0  -0.020356  0  -0.00211  -0.065971  0  3.956964  0
C  C64  1  0.67708535  0.38880978  0.32011299  1  0  0.139741  0  3.638867  0  0  0.094284  0  3.891627  0  0  0.103633  0  3.906106  0  0.490284  0  0.069988  0.088154  0  3.881912  0
C  C65  1  0.82291263  0.61119179  0.82011381  1  0  0.139688  0  3.638925  0  0  0.094244  0  3.891645  0  0  0.103597  0  3.906123  0  0.490139  0  0.069952  0.088114  0  3.881926  0
C  C66  1  0.32291802  0.61119273  0.67988456  1  0  0.139666  0  3.638893  0  0  0.094233  0  3.891615  0  0  0.103584  0  3.906097  0  0.490324  0  0.069999  0.08809  0  3.881912  0
C  C67  1  0.17708289  0.38880884  0.17988783  1  0  0.139702  0  3.638893  0  0  0.094247  0  3.891641  0  0  0.103597  0  3.906122  0  0.490294  0  0.070013  0.088115  0  3.881928  0
C  C68  1  0.49232328  0.05437062  0.27209150  1  0  0.602882  0  3.925546  0  0  0.550623  0  4.229921  0  0  0.583343  0  4.221455  0  1.615547  0  0.215968  0.528523  0  4.234836  0
C  C69  1  0.00767743  0.94563282  0.77209068  1  0  0.602934  0  3.925581  0  0  0.550659  0  4.229919  0  0  0.583382  0  4.22145  0  1.61531  0  0.215983  0.52856  0  4.234834  0
C  C70  1  0.50767795  0.94563095  0.72790768  1  0  0.602972  0  3.925502  0  0  0.550689  0  4.229849  0  0  0.583411  0  4.22138  0  1.615267  0  0.215975  0.528588  0  4.234769  0
C  C71  1  0.99232469  0.05436875  0.22790768  1  0  0.602982  0  3.925481  0  0  0.550703  0  4.229821  0  0  0.583423  0  4.221353  0  1.615244  0  0.215976  0.528602  0  4.23474  0
C  C72  1  0.76199106  0.52565622  0.48151397  1  0  0.628548  0  3.937277  0  0  0.580966  0  4.226925  0  0  0.615099  0  4.221299  0  1.553097  0  0.214679  0.558095  0  4.229691  0
C  C73  1  0.73800959  0.47434535  0.98151479  1  0  0.628728  0  3.937419  0  0  0.581135  0  4.227071  0  0  0.615272  0  4.22144  0  1.55306  0  0.214722  0.558262  0  4.22984  0
C  C74  1  0.23801036  0.47434348  0.51848930  1  0  0.62841  0  3.937672  0  0  0.580821  0  4.227331  0  0  0.614958  0  4.221706  0  1.553077  0  0.214617  0.557949  0  4.230097  0
C  C75  1  0.26199361  0.52565435  0.01848685  1  0  0.62859  0  3.937624  0  0  0.581014  0  4.227264  0  0  0.615152  0  4.221632  0  1.553053  0  0.21465  0.558141  0  4.230036  0
C  C76  1  0.75192545  0.18950536  0.06592704  1  0  -0.689484  0  3.496158  0  0  -0.740017  0  3.731203  0  0  -0.756294  0  3.740088  0  -0.45404  0  -0.322382  -0.72815  0  3.724766  0
C  C77  1  0.74807734  0.81049714  0.56592295  1  0  -0.689481  0  3.496093  0  0  -0.739978  0  3.731134  0  0  -0.756256  0  3.740014  0  -0.454048  0  -0.322338  -0.72812  0  3.724679  0
C  C78  1  0.24807598  0.81049434  0.93407378  1  0  -0.689503  0  3.496258  0  0  -0.740039  0  3.731301  0  0  -0.756319  0  3.740181  0  -0.454021  0  -0.322392  -0.728179  0  3.724867  0
C  C79  1  0.25192195  0.18950162  0.43407541  1  0  -0.689543  0  3.496125  0  0  -0.740042  0  3.731157  0  0  -0.75632  0  3.740036  0  -0.454396  0  -0.322373  -0.72819  0  3.724707  0
C  C80  1  0.43212559  0.30613951  0.08049610  1  0  -0.686795  0  3.503872  0  0  -0.739941  0  3.744845  0  0  -0.756523  0  3.75456  0  -0.447182  0  -0.324507  -0.72786  0  3.737649  0
C  C81  1  0.06787303  0.69385832  0.58049774  1  0  -0.686758  0  3.503759  0  0  -0.739879  0  3.744772  0  0  -0.756457  0  3.754474  0  -0.447145  0  -0.324463  -0.727795  0  3.73757  0
C  C82  1  0.56787459  0.69385926  0.91950063  1  0  -0.686801  0  3.503637  0  0  -0.739885  0  3.744648  0  0  -0.756466  0  3.754357  0  -0.447277  0  -0.324471  -0.727807  0  3.737457  0
C  C83  1  0.93212501  0.30613951  0.41950145  1  0  -0.686816  0  3.50362  0  0  -0.739909  0  3.744654  0  0  -0.756485  0  3.754351  0  -0.446779  0  -0.324467  -0.727829  0  3.737461  0
N  N84  1  0.61460813  0.27885043  0.27171951  1  0  -0.344028  0  3.287695  0  0  -0.267513  0  3.530014  0  0  -0.285678  0  3.552025  0  -1.308861  0  -0.285747  -0.255529  0  3.515201  0
N  N85  1  0.88539039  0.72115021  0.77171869  1  0  -0.343875  0  3.287593  0  0  -0.267383  0  3.529861  0  0  -0.285548  0  3.551869  0  -1.308808  0  -0.285651  -0.255397  0  3.515045  0
N  N86  1  0.38539309  0.72115114  0.72828049  1  0  -0.343842  0  3.287557  0  0  -0.267356  0  3.529807  0  0  -0.285519  0  3.551817  0  -1.308827  0  -0.285682  -0.255375  0  3.514999  0
N  N87  1  0.11460801  0.27884856  0.22828131  1  0  -0.343935  0  3.287701  0  0  -0.267436  0  3.529961  0  0  -0.2856  0  3.55197  0  -1.308916  0  -0.285688  -0.255453  0  3.515149  0
O  O88  1  0.48406103  0.06526251  0.16584692  1  0  -0.652512  0  2.067889  0  0  -0.572428  0  2.291657  0  0  -0.601005  0  2.282074  0  -1.198873  0  -0.290069  -0.552513  0  2.297517  0
O  O89  1  0.01593953  0.93473813  0.66584774  1  0  -0.652454  0  2.067902  0  0  -0.572357  0  2.291661  0  0  -0.600941  0  2.282083  0  -1.198895  0  -0.290017  -0.55244  0  2.297519  0
O  O90  1  0.51593861  0.93473719  0.83415145  1  0  -0.65255  0  2.067887  0  0  -0.572462  0  2.291659  0  0  -0.601045  0  2.282079  0  -1.198914  0  -0.290051  -0.552553  0  2.297518  0
O  O91  1  0.98405957  0.06526251  0.33415145  1  0  -0.652484  0  2.067844  0  0  -0.572402  0  2.291621  0  0  -0.600972  0  2.282035  0  -1.198795  0  -0.290014  -0.552491  0  2.297478  0
O  O92  1  0.45473412  0.95414739  0.32255670  1  0  -0.550198  0  1.880536  0  0  -0.515269  0  2.084921  0  0  -0.535499  0  2.076358  0  -1.149775  0  -0.305888  -0.501053  0  2.090457  0
O  O93  1  0.04526749  0.04585605  0.82255752  1  0  -0.550283  0  1.880533  0  0  -0.515364  0  2.084929  0  0  -0.535595  0  2.076364  0  -1.149611  0  -0.305935  -0.501147  0  2.090466  0
O  O94  1  0.54526924  0.04585511  0.67744085  1  0  -0.550267  0  1.880465  0  0  -0.515343  0  2.084861  0  0  -0.535572  0  2.076295  0  -1.149581  0  -0.305933  -0.501126  0  2.090399  0
O  O95  1  0.95473250  0.95414459  0.17744085  1  0  -0.550294  0  1.880498  0  0  -0.515374  0  2.084893  0  0  -0.535604  0  2.076331  0  -1.149593  0  -0.305942  -0.501157  0  2.090432  0
O  O96  1  0.76637822  0.53825046  0.58569501  1  0  -0.622517  0  1.96289  0  0  -0.564528  0  2.186925  0  0  -0.591513  0  2.179091  0  -1.154923  0  -0.290327  -0.545763  0  2.191685  0
O  O97  1  0.73361707  0.46175111  0.08569583  1  0  -0.62255  0  1.962871  0  0  -0.564579  0  2.186926  0  0  -0.591563  0  2.179089  0  -1.154945  0  -0.290344  -0.545815  0  2.191686  0
O  O98  1  0.23362498  0.46174924  0.41430744  1  0  -0.622418  0  1.962949  0  0  -0.564438  0  2.186992  0  0  -0.591425  0  2.179159  0  -1.154844  0  -0.290266  -0.545675  0  2.191749  0
O  O99  1  0.26638400  0.53824766  0.91430662  1  0  -0.622526  0  1.963026  0  0  -0.564546  0  2.18706  0  0  -0.591531  0  2.179226  0  -1.154877  0  -0.290302  -0.545789  0  2.191822  0
O  O100  1  0.82336105  0.61450302  0.41761205  1  0  -0.626806  0  1.930478  0  0  -0.570106  0  2.141569  0  0  -0.595793  0  2.133073  0  -1.181252  0  -0.297972  -0.552405  0  2.147079  0
O  O101  1  0.67663926  0.38549762  0.91761368  1  0  -0.626872  0  1.930581  0  0  -0.570178  0  2.141673  0  0  -0.595865  0  2.13317  0  -1.181208  0  -0.297976  -0.552478  0  2.147182  0
O  O102  1  0.17664107  0.38549855  0.58239204  1  0  -0.62673  0  1.930661  0  0  -0.570033  0  2.141751  0  0  -0.595721  0  2.133256  0  -1.18135  0  -0.297949  -0.552335  0  2.147261  0
O  O103  1  0.32336147  0.61450021  0.08239122  1  0  -0.626824  0  1.930614  0  0  -0.570126  0  2.141703  0  0  -0.595814  0  2.133201  0  -1.181229  0  -0.297957  -0.552429  0  2.147212  0
O  O104  1  0.49835997  0.13803837  0.91968131  1  0  -0.806906  0  1.843334  0  0  -0.745514  0  2.021991  0  0  -0.765743  0  1.994757  0  -1.231004  0  -0.542074  -0.73138  0  2.040952  0
O  O105  1  0.00164044  0.86195946  0.41967968  1  0  -0.806967  0  1.843297  0  0  -0.745532  0  2.022001  0  0  -0.76577  0  1.994771  0  -1.230974  0  -0.542056  -0.731396  0  2.040964  0
O  O106  1  0.50164111  0.86196039  0.08031787  1  0  -0.806861  0  1.843399  0  0  -0.745472  0  2.022053  0  0  -0.765701  0  1.994821  0  -1.230977  0  -0.542029  -0.73134  0  2.041015  0
O  O107  1  0.99836149  0.13804398  0.58032359  1  0  -0.806863  0  1.843315  0  0  -0.745426  0  2.021982  0  0  -0.765665  0  1.994748  0  -1.230943  0  -0.541972  -0.731291  0  2.040944  0
