# generated using pymatgen
data_Zn3H18C28(NO3)4
_symmetry_space_group_name_H-M   'P 1'
_cell_length_a   15.31925662
_cell_length_b   15.31927489
_cell_length_c   22.75937159
_cell_angle_alpha   90.00010751
_cell_angle_beta   89.99995944
_cell_angle_gamma   90.00017548
_symmetry_Int_Tables_number   1
_chemical_formula_structural   Zn3H18C28(NO3)4
_chemical_formula_sum   'Zn12 H72 C112 N16 O48'
_cell_volume   5341.16712069
_cell_formula_units_Z   4
loop_
 _symmetry_equiv_pos_site_id
 _symmetry_equiv_pos_as_xyz
  1  'x, y, z'
loop_
 _atom_site_type_symbol
 _atom_site_label
 _atom_site_symmetry_multiplicity
 _atom_site_fract_x
 _atom_site_fract_y
 _atom_site_fract_z
 _atom_site_occupancy
 _atom_site_pbe_bader_charge
 _atom_site_pbe_bader_spin_density
 _atom_site_pbe_cm5_charge
 _atom_site_pbe_ddec_charge
 _atom_site_pbe_ddec_spin_density
 _atom_site_pbe_ddec_sum_bond_order
 _atom_site_pbe_magmom
Zn  Zn0  1  0.78135600  0.21864766  0.25000027  1  1.422353  0  0.688267  1.031834  0  2.268623  0
Zn  Zn1  1  0.28136330  0.28135840  0.00000011  1  1.422342  0  0.688222  1.031802  0  2.268812  0
Zn  Zn2  1  0.21864194  0.78135102  0.75000006  1  1.422305  0  0.688263  1.031887  0  2.268731  0
Zn  Zn3  1  0.71864079  0.71864351  0.49999652  1  1.422318  0  0.688183  1.031699  0  2.268886  0
Zn  Zn4  1  0.83501996  0.25605140  0.10665845  1  1.304417  0  0.678519  0.805299  0  2.356292  0
Zn  Zn5  1  0.24394660  0.33502003  0.85665913  1  1.304465  0  0.678502  0.805259  0  2.356296  0
Zn  Zn6  1  0.16498074  0.74394884  0.60665866  1  1.304433  0  0.678521  0.805293  0  2.356278  0
Zn  Zn7  1  0.75605187  0.66498091  0.35665772  1  1.304405  0  0.678542  0.805349  0  2.356235  0
Zn  Zn8  1  0.33501851  0.24394894  0.14334147  1  1.304476  0  0.678543  0.805326  0  2.356296  0
Zn  Zn9  1  0.25605042  0.83502092  0.89334368  1  1.304384  0  0.67854  0.805345  0  2.35625  0
Zn  Zn10  1  0.66497955  0.75604749  0.64334366  1  1.304482  0  0.678523  0.805297  0  2.35627  0
Zn  Zn11  1  0.74395389  0.16498273  0.39334208  1  1.304492  0  0.67846  0.805179  0  2.356434  0
H  H12  1  0.02604180  0.15069492  0.29743053  1  0.121618  0  0.121465  0.130416  0  0.972224  0
H  H13  1  0.34930037  0.52603725  0.04743083  1  0.121834  0  0.121438  0.130343  0  0.972174  0
H  H14  1  0.97395870  0.84930194  0.79742831  1  0.12196  0  0.121471  0.130381  0  0.972248  0
H  H15  1  0.65070106  0.47395892  0.54743135  1  0.121644  0  0.121475  0.130404  0  0.97214  0
H  H16  1  0.52604120  0.34929934  0.95256814  1  0.121388  0  0.121472  0.130428  0  0.972152  0
H  H17  1  0.15069691  0.02603573  0.70257386  1  0.121876  0  0.12147  0.130407  0  0.972193  0
H  H18  1  0.47396043  0.65069730  0.45257299  1  0.121917  0  0.121467  0.130354  0  0.972272  0
H  H19  1  0.84929912  0.97396478  0.20257017  1  0.12182  0  0.121457  0.130392  0  0.972131  0
H  H20  1  0.17987886  0.13908239  0.33301056  1  0.090929  0  0.113506  0.11871  0  0.997178  0
H  H21  1  0.36090624  0.67987554  0.08301275  1  0.090908  0  0.113535  0.118801  0  0.997107  0
H  H22  1  0.82012225  0.86091392  0.83301062  1  0.091012  0  0.113532  0.118753  0  0.997129  0
H  H23  1  0.63909188  0.32012073  0.58301132  1  0.090984  0  0.11355  0.118822  0  0.997112  0
H  H24  1  0.67988030  0.36090517  0.91698849  1  0.090824  0  0.113534  0.118792  0  0.99709  0
H  H25  1  0.13907846  0.17987192  0.66699082  1  0.090998  0  0.113518  0.118636  0  0.99708  0
H  H26  1  0.32012464  0.63908811  0.41698988  1  0.090973  0  0.113515  0.118689  0  0.99715  0
H  H27  1  0.86090586  0.82012718  0.16698736  1  0.090836  0  0.113504  0.11871  0  0.997173  0
H  H28  1  0.12621267  0.23138600  0.12918734  1  0.114573  0  0.127141  0.108214  0  0.987702  0
H  H29  1  0.26861860  0.62621730  0.87918762  1  0.114609  0  0.127094  0.108147  0  0.987696  0
H  H30  1  0.87378605  0.76861823  0.62918506  1  0.114568  0  0.127102  0.10815  0  0.987813  0
H  H31  1  0.73138115  0.37378631  0.37918585  1  0.114582  0  0.1271  0.108145  0  0.987848  0
H  H32  1  0.62621154  0.26862220  0.12081400  1  0.114663  0  0.127101  0.108145  0  0.987841  0
H  H33  1  0.23138170  0.12621054  0.87081625  1  0.114584  0  0.127113  0.108124  0  0.987718  0
H  H34  1  0.37378523  0.73138005  0.62081541  1  0.114582  0  0.127091  0.108145  0  0.987826  0
H  H35  1  0.76861741  0.87379174  0.37081466  1  0.114632  0  0.127135  0.108177  0  0.987707  0
H  H36  1  0.30879894  0.13591732  0.35619614  1  0.067589  0  0.113412  0.118791  0  0.99736  0
H  H37  1  0.36407563  0.80879551  0.10619844  1  0.090962  0  0.113411  0.118784  0  0.997417  0
H  H38  1  0.69120280  0.86408427  0.85619451  1  0.067568  0  0.113411  0.118738  0  0.997446  0
H  H39  1  0.63591397  0.19119951  0.60619202  1  0.067647  0  0.113452  0.118837  0  0.997411  0
H  H40  1  0.80880302  0.36408499  0.89380768  1  0.067656  0  0.113459  0.118838  0  0.997419  0
H  H41  1  0.13592577  0.30878661  0.64380265  1  0.090871  0  0.113429  0.118796  0  0.997417  0
H  H42  1  0.19120586  0.63591867  0.39380473  1  0.090822  0  0.113418  0.118781  0  0.997441  0
H  H43  1  0.86408273  0.69121048  0.14380386  1  0.090867  0  0.113428  0.118772  0  0.997393  0
H  H44  1  0.46873685  0.14010709  0.37920817  1  0.125392  0  0.116921  0.121259  0  0.977023  0
H  H45  1  0.35989224  0.96873392  0.12921060  1  0.125335  0  0.11688  0.121168  0  0.977009  0
H  H46  1  0.53126551  0.85989522  0.87920748  1  0.125385  0  0.116874  0.121202  0  0.97705  0
H  H47  1  0.64010387  0.03126313  0.62920530  1  0.125001  0  0.116913  0.121211  0  0.977058  0
H  H48  1  0.96873898  0.35989636  0.87079470  1  0.125005  0  0.116878  0.121148  0  0.977038  0
H  H49  1  0.14010900  0.46872365  0.62079025  1  0.125464  0  0.116912  0.121229  0  0.97703  0
H  H50  1  0.03126992  0.64010919  0.37079051  1  0.125449  0  0.116885  0.121183  0  0.977024  0
H  H51  1  0.85989626  0.53127271  0.12079214  1  0.12532  0  0.116939  0.12127  0  0.97703  0
H  H52  1  0.51317985  0.23856654  0.20482379  1  0.170579  0  0.127481  0.109556  0  1.004765  0
H  H53  1  0.26143842  0.01318120  0.95482596  1  0.170545  0  0.127471  0.109523  0  1.004794  0
H  H54  1  0.48681944  0.76142876  0.70482519  1  0.170555  0  0.127442  0.109497  0  1.004864  0
H  H55  1  0.73857039  0.98681936  0.45482321  1  0.170495  0  0.127439  0.109496  0  1.004856  0
H  H56  1  0.01318052  0.26142499  0.04517584  1  0.17046  0  0.127443  0.109482  0  1.005005  0
H  H57  1  0.23856153  0.51317589  0.79517425  1  0.170757  0  0.127463  0.109529  0  1.004816  0
H  H58  1  0.98681895  0.73856595  0.54517435  1  0.170536  0  0.127475  0.109559  0  1.004768  0
H  H59  1  0.76142461  0.48682488  0.29517217  1  0.170335  0  0.127484  0.109556  0  1.004835  0
H  H60  1  0.66301453  0.05989773  0.20168120  1  0.068595  0  0.094112  0.154433  0  1.017438  0
H  H61  1  0.44010333  0.16301036  0.95167962  1  0.068687  0  0.094075  0.154379  0  1.01747  0
H  H62  1  0.33698607  0.94009821  0.70168641  1  0.068457  0  0.094078  0.154332  0  1.017444  0
H  H63  1  0.55989700  0.83698692  0.45168027  1  0.06872  0  0.094054  0.154329  0  1.017458  0
H  H64  1  0.16301378  0.44010666  0.04832144  1  0.068745  0  0.094062  0.154345  0  1.017461  0
H  H65  1  0.05989643  0.66301626  0.79832122  1  0.068716  0  0.094086  0.154406  0  1.017502  0
H  H66  1  0.83698438  0.55989734  0.54831891  1  0.068614  0  0.094093  0.154413  0  1.017423  0
H  H67  1  0.94010472  0.33699235  0.29831623  1  0.068518  0  0.094082  0.154333  0  1.017395  0
H  H68  1  0.69254613  0.98355499  0.14489419  1  0.026264  0  0.093432  0.144387  0  1.001059  0
H  H69  1  0.51644327  0.19254248  0.89489290  1  0.026209  0  0.093482  0.144428  0  1.001323  0
H  H70  1  0.30745780  0.01644470  0.64490263  1  0.02625  0  0.093413  0.144384  0  1.001274  0
H  H71  1  0.48355451  0.80745661  0.39489224  1  0.026154  0  0.093464  0.144401  0  1.001276  0
H  H72  1  0.19254467  0.51644786  0.10510688  1  0.026077  0  0.093444  0.144384  0  1.001231  0
H  H73  1  0.98355093  0.69254853  0.85510643  1  0.026107  0  0.093443  0.144412  0  1.001237  0
H  H74  1  0.80745408  0.48355434  0.60510558  1  0.02617  0  0.093476  0.144462  0  1.001222  0
H  H75  1  0.01644820  0.30746089  0.35509963  1  0.026165  0  0.093436  0.144394  0  1.001295  0
H  H76  1  0.61259176  0.06467389  0.13109667  1  0.054303  0  0.10017  0.152988  0  0.981908  0
H  H77  1  0.43532238  0.11259208  0.88109372  1  0.054311  0  0.100184  0.15296  0  0.981859  0
H  H78  1  0.38740826  0.93532381  0.63110097  1  0.054423  0  0.100192  0.15299  0  0.981723  0
H  H79  1  0.56467737  0.88740567  0.38109488  1  0.054366  0  0.100159  0.152941  0  0.981941  0
H  H80  1  0.11259288  0.43532708  0.11890599  1  0.054164  0  0.100138  0.152934  0  0.981944  0
H  H81  1  0.06467396  0.61259884  0.86890661  1  0.054137  0  0.100209  0.153041  0  0.98203  0
H  H82  1  0.88740586  0.56467712  0.61890433  1  0.054119  0  0.100136  0.152971  0  0.981926  0
H  H83  1  0.93532776  0.38741258  0.36890257  1  0.054303  0  0.100178  0.152956  0  0.981726  0
C  C84  1  0.97089654  0.20699588  0.19135625  1  1.600559  0  0.217697  0.59245  0  4.204672  0
C  C85  1  0.29300985  0.47089741  0.94135443  1  1.601064  0  0.217839  0.592482  0  4.204805  0
C  C86  1  0.02910277  0.79300525  0.69134867  1  1.601123  0  0.217667  0.592319  0  4.204662  0
C  C87  1  0.70699375  0.52910115  0.44135067  1  1.601133  0  0.217815  0.592593  0  4.20466  0
C  C88  1  0.47089729  0.29300880  0.05864713  1  1.601098  0  0.217689  0.592296  0  4.204901  0
C  C89  1  0.20699216  0.97089269  0.80864943  1  1.601192  0  0.217756  0.592522  0  4.204742  0
C  C90  1  0.52910478  0.70699197  0.55864756  1  1.601135  0  0.21772  0.592405  0  4.204662  0
C  C91  1  0.79300637  0.02910615  0.30864676  1  1.601113  0  0.217782  0.592569  0  4.204809  0
C  C92  1  0.06383356  0.19293250  0.21102790  1  -0.004143  0  -0.003729  -0.066631  0  3.931908  0
C  C93  1  0.30706941  0.56383071  0.96102550  1  -0.00423  0  -0.003693  -0.066607  0  3.931918  0
C  C94  1  0.93616703  0.80706934  0.71102652  1  -0.004165  0  -0.003693  -0.06656  0  3.931932  0
C  C95  1  0.69293025  0.43616856  0.46102735  1  -0.00418  0  -0.003744  -0.066719  0  3.931957  0
C  C96  1  0.56383264  0.30707093  0.03897302  1  -0.004154  0  -0.003736  -0.066612  0  3.932035  0
C  C97  1  0.19293004  0.06382948  0.78897565  1  -0.004155  0  -0.003619  -0.066487  0  3.931896  0
C  C98  1  0.43616684  0.69292978  0.53897700  1  -0.004042  0  -0.003646  -0.066522  0  3.931864  0
C  C99  1  0.80706785  0.93617258  0.28897412  1  -0.004283  0  -0.003669  -0.066538  0  3.931893  0
C  C100  1  0.08077491  0.16570351  0.26859406  1  -0.074933  0  -0.055459  -0.035031  0  3.936834  0
C  C101  1  0.33428929  0.58077346  0.01859439  1  -0.075363  0  -0.055426  -0.034919  0  3.936434  0
C  C102  1  0.91922300  0.83429131  0.76859228  1  -0.075151  0  -0.055451  -0.034974  0  3.936841  0
C  C103  1  0.66571216  0.41922458  0.51859352  1  -0.075155  0  -0.055426  -0.034926  0  3.936592  0
C  C104  1  0.58077750  0.33428831  0.98140503  1  -0.074886  0  -0.055435  -0.03507  0  3.936756  0
C  C105  1  0.16570424  0.08077272  0.73140817  1  -0.075387  0  -0.055553  -0.035153  0  3.93701  0
C  C106  1  0.41922345  0.66570775  0.48140729  1  -0.075184  0  -0.055505  -0.035044  0  3.936662  0
C  C107  1  0.83428785  0.91922853  0.23140573  1  -0.075415  0  -0.055459  -0.035013  0  3.936547  0
C  C108  1  0.16641678  0.15987506  0.28818640  1  0.041387  0  -0.077347  -0.161189  0  3.960596  0
C  C109  1  0.34011803  0.66641789  0.03818945  1  0.041605  0  -0.077483  -0.161432  0  3.960612  0
C  C110  1  0.83358177  0.84012373  0.78818467  1  0.041352  0  -0.077333  -0.161207  0  3.960618  0
C  C111  1  0.65988080  0.33358152  0.53818759  1  0.041612  0  -0.077388  -0.161322  0  3.960535  0
C  C112  1  0.66642006  0.34011963  0.96181221  1  0.041728  0  -0.077392  -0.1612  0  3.960512  0
C  C113  1  0.15987381  0.16641055  0.71181805  1  0.041561  0  -0.077341  -0.161088  0  3.960893  0
C  C114  1  0.33358352  0.65987964  0.46181362  1  0.041296  0  -0.077378  -0.16118  0  3.960583  0
C  C115  1  0.84011764  0.83358477  0.21181286  1  0.041881  0  -0.077435  -0.161346  0  3.960681  0
C  C116  1  0.23413291  0.18317974  0.24986768  1  0.480742  0  0.125255  0.171762  0  3.991984  0
C  C117  1  0.31681555  0.73413127  0.99987202  1  0.480693  0  0.125244  0.171738  0  3.991975  0
C  C118  1  0.76586763  0.81681960  0.74986507  1  0.480815  0  0.125177  0.171623  0  3.992228  0
C  C119  1  0.68318015  0.26586811  0.49986663  1  0.480789  0  0.125214  0.171703  0  3.992122  0
C  C120  1  0.73413337  0.31681964  0.00013317  1  0.480764  0  0.125189  0.171615  0  3.992029  0
C  C121  1  0.18317985  0.23412402  0.75013637  1  0.480702  0  0.125242  0.171712  0  3.992389  0
C  C122  1  0.26586942  0.68318096  0.50013237  1  0.480754  0  0.125259  0.171775  0  3.991955  0
C  C123  1  0.81681547  0.76587336  0.25013155  1  0.480609  0  0.125294  0.171849  0  3.992029  0
C  C124  1  0.13520065  0.21131071  0.17476328  1  0.528094  0  0.067328  0.099848  0  3.880684  0
C  C125  1  0.28869202  0.63520085  0.92476357  1  0.528459  0  0.067389  0.099953  0  3.880753  0
C  C126  1  0.86479933  0.78869233  0.67476015  1  0.528269  0  0.067378  0.099891  0  3.880859  0
C  C127  1  0.71131030  0.36480028  0.42476048  1  0.528255  0  0.067335  0.099932  0  3.880733  0
C  C128  1  0.63519898  0.28869490  0.07523937  1  0.528136  0  0.067321  0.099887  0  3.880893  0
C  C129  1  0.21130896  0.13519521  0.82523855  1  0.528301  0  0.067353  0.099963  0  3.880715  0
C  C130  1  0.36479980  0.71130591  0.57524077  1  0.528191  0  0.067351  0.099929  0  3.880976  0
C  C131  1  0.78869216  0.86480304  0.32523738  1  0.528681  0  0.06734  0.099851  0  3.880828  0
C  C132  1  0.32710217  0.18423544  0.26757465  1  0.450871  0  0.129147  0.17955  0  3.97238  0
C  C133  1  0.31576201  0.82710036  0.01757827  1  0.450427  0  0.129114  0.179492  0  3.972361  0
C  C134  1  0.67289771  0.81576264  0.76757472  1  0.45074  0  0.129072  0.17943  0  3.972342  0
C  C135  1  0.68423879  0.17289833  0.51757268  1  0.450798  0  0.129103  0.179489  0  3.972335  0
C  C136  1  0.82710404  0.31576301  0.98242740  1  0.450811  0  0.129117  0.17948  0  3.972247  0
C  C137  1  0.18423489  0.32709446  0.73242636  1  0.451263  0  0.12917  0.179508  0  3.972105  0
C  C138  1  0.17290082  0.68423632  0.48242364  1  0.450455  0  0.129138  0.17952  0  3.972368  0
C  C139  1  0.81576046  0.67290157  0.23242582  1  0.451302  0  0.129099  0.179411  0  3.97233  0
C  C140  1  0.35542788  0.15812140  0.32336879  1  0.072378  0  -0.078661  -0.164411  0  3.964284  0
C  C141  1  0.34187752  0.85542688  0.07337200  1  0.049119  0  -0.078656  -0.164414  0  3.964401  0
C  C142  1  0.64457128  0.84188075  0.82336978  1  0.072357  0  -0.078623  -0.164258  0  3.964283  0
C  C143  1  0.65811931  0.14457066  0.57336683  1  0.072399  0  -0.078721  -0.164485  0  3.964282  0
C  C144  1  0.85543121  0.34188105  0.92663106  1  0.072539  0  -0.078659  -0.164417  0  3.964185  0
C  C145  1  0.15812142  0.35541814  0.67662915  1  0.049169  0  -0.078741  -0.164426  0  3.964078  0
C  C146  1  0.14457828  0.65812008  0.42662991  1  0.049371  0  -0.078688  -0.164423  0  3.964282  0
C  C147  1  0.84187986  0.64457773  0.17662987  1  0.048819  0  -0.07872  -0.1644  0  3.964069  0
C  C148  1  0.44397722  0.16033837  0.33644690  1  -0.043968  0  -0.055827  -0.034  0  3.94679  0
C  C149  1  0.33966148  0.94397482  0.08644711  1  -0.043866  0  -0.05579  -0.033856  0  3.946592  0
C  C150  1  0.55602389  0.83966186  0.83644529  1  -0.043864  0  -0.055812  -0.033988  0  3.946852  0
C  C151  1  0.66033598  0.05602341  0.58644314  1  -0.043631  0  -0.055784  -0.033904  0  3.946758  0
C  C152  1  0.94397859  0.33966109  0.91355774  1  -0.043565  0  -0.055815  -0.033886  0  3.946836  0
C  C153  1  0.16033838  0.44396800  0.66355284  1  -0.044347  0  -0.055833  -0.034022  0  3.946734  0
C  C154  1  0.05602896  0.66033936  0.41355269  1  -0.043969  0  -0.055802  -0.033909  0  3.946425  0
C  C155  1  0.83966161  0.55602848  0.16355301  1  -0.043837  0  -0.055837  -0.034089  0  3.946826  0
C  C156  1  0.50312637  0.18890960  0.29387587  1  -0.062166  0  -0.004485  -0.0678  0  3.938319  0
C  C157  1  0.31109079  0.00312928  0.04387724  1  -0.061975  0  -0.004498  -0.067868  0  3.938224  0
C  C158  1  0.49687217  0.81108790  0.79387601  1  -0.06227  0  -0.004498  -0.067866  0  3.9382  0
C  C159  1  0.68890933  0.99687079  0.54387270  1  -0.061974  0  -0.004501  -0.067845  0  3.938251  0
C  C160  1  0.00312934  0.31108721  0.95612721  1  -0.062248  0  -0.004507  -0.067804  0  3.938296  0
C  C161  1  0.18890903  0.50312104  0.70612478  1  -0.062254  0  -0.004522  -0.067795  0  3.938259  0
C  C162  1  0.99687163  0.68891205  0.45612309  1  -0.061906  0  -0.00451  -0.067874  0  3.938193  0
C  C163  1  0.81108504  0.49688079  0.20612225  1  -0.062195  0  -0.004583  -0.067808  0  3.9381  0
C  C164  1  0.47007066  0.21501515  0.23940339  1  0.527981  0  0.072826  0.107283  0  3.860457  0
C  C165  1  0.28498866  0.97007318  0.98940397  1  0.528001  0  0.072859  0.107352  0  3.86046  0
C  C166  1  0.52992990  0.78497894  0.73940216  1  0.527961  0  0.072912  0.107423  0  3.860362  0
C  C167  1  0.71501750  0.02992682  0.48940089  1  0.527889  0  0.072863  0.107306  0  3.860411  0
C  C168  1  0.97007361  0.28497582  0.01060043  1  0.52784  0  0.072809  0.107261  0  3.860509  0
C  C169  1  0.21501073  0.47006802  0.76059594  1  0.527884  0  0.072807  0.107206  0  3.860406  0
C  C170  1  0.02992981  0.71501502  0.51059583  1  0.527786  0  0.072849  0.107297  0  3.86042  0
C  C171  1  0.78497740  0.52993461  0.26059567  1  0.528315  0  0.072867  0.107222  0  3.860228  0
C  C172  1  0.59971460  0.19114747  0.30598163  1  1.630645  0  0.21682  0.593725  0  4.210344  0
C  C173  1  0.30886041  0.09971415  0.05598352  1  1.630617  0  0.21674  0.593648  0  4.210332  0
C  C174  1  0.40028458  0.80885399  0.80598094  1  1.630719  0  0.216914  0.593736  0  4.210222  0
C  C175  1  0.69114492  0.90028465  0.55598018  1  1.630649  0  0.216842  0.593792  0  4.210298  0
C  C176  1  0.09971758  0.30885290  0.94402272  1  1.630604  0  0.216879  0.593666  0  4.210656  0
C  C177  1  0.19113971  0.59970653  0.69401467  1  1.630567  0  0.216811  0.593806  0  4.2104  0
C  C178  1  0.90028862  0.69114502  0.44401513  1  1.630592  0  0.216821  0.593802  0  4.210436  0
C  C179  1  0.80885438  0.40029199  0.19401817  1  1.630561  0  0.216828  0.593847  0  4.210237  0
C  C180  1  0.74239383  0.11334611  0.13158087  1  1.541536  0  0.200945  0.68448  0  4.110619  0
C  C181  1  0.38666225  0.24239384  0.88157801  1  1.541844  0  0.200955  0.684423  0  4.110446  0
C  C182  1  0.25760163  0.88666465  0.63157945  1  1.542105  0  0.200911  0.68445  0  4.110442  0
C  C183  1  0.61333424  0.75760064  0.38157327  1  1.541728  0  0.200836  0.684329  0  4.111159  0
C  C184  1  0.24239806  0.38666570  0.11842437  1  1.541796  0  0.200898  0.684389  0  4.111009  0
C  C185  1  0.11333906  0.74240336  0.86841941  1  1.542118  0  0.200955  0.6845  0  4.110572  0
C  C186  1  0.75760394  0.61334437  0.61841404  1  1.541832  0  0.200898  0.684398  0  4.110549  0
C  C187  1  0.88666136  0.25760871  0.36841567  1  1.542404  0  0.201018  0.684445  0  4.110556  0
C  C188  1  0.67394001  0.05111398  0.15458719  1  -0.058277  0  -0.246841  -0.518381  0  3.910388  0
C  C189  1  0.44888970  0.17394294  0.90458430  1  -0.058697  0  -0.246833  -0.518288  0  3.91076  0
C  C190  1  0.32605543  0.94888901  0.65458934  1  -0.05869  0  -0.246745  -0.518209  0  3.910487  0
C  C191  1  0.55111003  0.82605486  0.40458275  1  -0.058709  0  -0.246733  -0.518104  0  3.910713  0
C  C192  1  0.17394511  0.44889436  0.09541676  1  -0.058545  0  -0.246724  -0.518139  0  3.910617  0
C  C193  1  0.05110814  0.67394046  0.84541523  1  -0.058537  0  -0.246844  -0.5184  0  3.910583  0
C  C194  1  0.82606018  0.55110716  0.59541247  1  -0.058123  0  -0.246829  -0.518411  0  3.910475  0
C  C195  1  0.94889426  0.32605914  0.34541155  1  -0.05822  0  -0.246839  -0.518247  0  3.910403  0
N  N196  1  0.21756168  0.20740468  0.19406695  1  -1.208605  0  -0.306625  -0.253418  0  3.4938  0
N  N197  1  0.29259376  0.71756118  0.94406600  1  -1.20881  0  -0.306566  -0.253326  0  3.493572  0
N  N198  1  0.78244154  0.79259581  0.69406606  1  -1.208892  0  -0.306633  -0.253335  0  3.494003  0
N  N199  1  0.70740331  0.28243870  0.44406456  1  -1.208818  0  -0.30658  -0.253391  0  3.493837  0
N  N200  1  0.71756069  0.29259727  0.05593566  1  -1.208765  0  -0.306549  -0.253317  0  3.493716  0
N  N201  1  0.20740160  0.21755743  0.80593359  1  -1.208907  0  -0.306616  -0.253372  0  3.493961  0
N  N202  1  0.28243942  0.70740414  0.55593533  1  -1.208826  0  -0.306595  -0.253423  0  3.493731  0
N  N203  1  0.79259497  0.78244272  0.30593495  1  -1.209186  0  -0.306591  -0.253343  0  3.49386  0
N  N204  1  0.38474798  0.21255274  0.22677213  1  -1.226494  0  -0.308013  -0.239262  0  3.495777  0
N  N205  1  0.28744361  0.88474994  0.97677263  1  -1.226319  0  -0.307964  -0.23921  0  3.495723  0
N  N206  1  0.61525129  0.78744066  0.72677262  1  -1.226356  0  -0.307979  -0.239217  0  3.495852  0
N  N207  1  0.71255734  0.11525133  0.47677054  1  -1.226424  0  -0.30796  -0.239086  0  3.495702  0
N  N208  1  0.88474897  0.28743927  0.02322778  1  -1.226413  0  -0.307951  -0.239096  0  3.495685  0
N  N209  1  0.21255225  0.38474415  0.77322893  1  -1.226641  0  -0.30794  -0.239086  0  3.495545  0
N  N210  1  0.11525313  0.71255486  0.52322928  1  -1.22634  0  -0.307977  -0.239183  0  3.495587  0
N  N211  1  0.78744109  0.61525655  0.27322568  1  -1.226632  0  -0.307964  -0.239036  0  3.495709  0
O  O212  1  0.91572805  0.20935824  0.23256346  1  -1.166288  0  -0.304789  -0.557414  0  2.377912  0
O  O213  1  0.29064279  0.41572906  0.98255940  1  -1.166715  0  -0.304844  -0.557382  0  2.378133  0
O  O214  1  0.08427383  0.79063974  0.73256201  1  -1.166601  0  -0.304693  -0.55725  0  2.377647  0
O  O215  1  0.70935489  0.58427027  0.48256230  1  -1.166634  0  -0.304847  -0.557403  0  2.377794  0
O  O216  1  0.41572949  0.29064170  0.01743730  1  -1.166748  0  -0.304699  -0.557238  0  2.37797  0
O  O217  1  0.20935840  0.91572162  0.76744000  1  -1.166743  0  -0.304827  -0.557449  0  2.377835  0
O  O218  1  0.58427328  0.70935830  0.51743815  1  -1.16673  0  -0.304781  -0.557363  0  2.377899  0
O  O219  1  0.79063952  0.08427319  0.26744047  1  -1.166765  0  -0.30485  -0.557467  0  2.378024  0
O  O220  1  0.95721772  0.21718426  0.13654675  1  -1.175044  0  -0.314014  -0.54228  0  2.301396  0
O  O221  1  0.28282007  0.45721978  0.88654404  1  -1.175198  0  -0.314073  -0.542308  0  2.301252  0
O  O222  1  0.04278230  0.78281737  0.63654223  1  -1.175412  0  -0.314046  -0.542274  0  2.301563  0
O  O223  1  0.71718751  0.54277994  0.38654512  1  -1.175376  0  -0.314036  -0.542357  0  2.301462  0
O  O224  1  0.45721968  0.28282234  0.11345488  1  -1.175198  0  -0.314057  -0.542248  0  2.301536  0
O  O225  1  0.21718450  0.95721655  0.86345717  1  -1.17541  0  -0.314057  -0.542365  0  2.3015  0
O  O226  1  0.54278363  0.71717793  0.61345664  1  -1.175241  0  -0.314018  -0.542249  0  2.301401  0
O  O227  1  0.78282114  0.04278702  0.36345716  1  -1.175314  0  -0.31402  -0.542305  0  2.301333  0
O  O228  1  0.64748918  0.22255498  0.26594627  1  -1.174555  0  -0.304873  -0.545073  0  2.324382  0
O  O229  1  0.27745428  0.14749698  0.01594643  1  -1.174433  0  -0.304888  -0.545129  0  2.324184  0
O  O230  1  0.35250221  0.77744245  0.76594731  1  -1.1746  0  -0.305008  -0.545173  0  2.324289  0
O  O231  1  0.72255044  0.85250562  0.51594257  1  -1.174651  0  -0.304929  -0.545138  0  2.324355  0
O  O232  1  0.14749790  0.27744423  0.98405499  1  -1.174654  0  -0.304945  -0.545083  0  2.324599  0
O  O233  1  0.22254794  0.64748827  0.73405138  1  -1.174159  0  -0.304929  -0.545211  0  2.324335  0
O  O234  1  0.85250696  0.72255380  0.48404966  1  -1.174343  0  -0.304908  -0.545179  0  2.324353  0
O  O235  1  0.77744545  0.35251428  0.23405176  1  -1.174339  0  -0.304917  -0.545209  0  2.324457  0
O  O236  1  0.62286121  0.16053189  0.35565653  1  -1.18133  0  -0.323708  -0.5537  0  2.329798  0
O  O237  1  0.33947679  0.12285831  0.10565494  1  -1.181433  0  -0.32369  -0.55361  0  2.329869  0
O  O238  1  0.37714640  0.83946970  0.85565676  1  -1.181242  0  -0.323722  -0.553643  0  2.32973  0
O  O239  1  0.66053371  0.87714193  0.60565729  1  -1.181288  0  -0.323693  -0.553727  0  2.329748  0
O  O240  1  0.12285520  0.33946985  0.89434694  1  -1.181068  0  -0.323685  -0.553633  0  2.329867  0
O  O241  1  0.16052601  0.62284851  0.64434108  1  -1.181446  0  -0.323656  -0.553655  0  2.329794  0
O  O242  1  0.87714649  0.66053446  0.39434019  1  -1.181424  0  -0.323711  -0.553699  0  2.329867  0
O  O243  1  0.83947465  0.37714727  0.14434235  1  -1.181305  0  -0.32369  -0.553732  0  2.329633  0
O  O244  1  0.75500942  0.18606567  0.16114324  1  -1.177169  0  -0.333895  -0.605936  0  2.446982  0
O  O245  1  0.31393549  0.25500794  0.91114432  1  -1.177008  0  -0.333915  -0.605977  0  2.446718  0
O  O246  1  0.24499058  0.81393342  0.66114481  1  -1.17701  0  -0.333938  -0.606066  0  2.44661  0
O  O247  1  0.68605836  0.74498532  0.41114040  1  -1.176741  0  -0.333925  -0.606016  0  2.446935  0
O  O248  1  0.25501411  0.31394227  0.08885980  1  -1.176861  0  -0.333904  -0.605988  0  2.446986  0
O  O249  1  0.18606325  0.75500977  0.83885708  1  -1.177038  0  -0.333896  -0.606009  0  2.446951  0
O  O250  1  0.74499118  0.68606119  0.58885703  1  -1.177519  0  -0.333816  -0.605782  0  2.447044  0
O  O251  1  0.81393720  0.24499373  0.33885643  1  -1.177462  0  -0.333899  -0.605863  0  2.446824  0
O  O252  1  0.78189183  0.09977497  0.08459932  1  -1.176658  0  -0.342002  -0.564532  0  2.024238  0
O  O253  1  0.40022957  0.28189762  0.83459826  1  -1.176771  0  -0.342023  -0.564503  0  2.024119  0
O  O254  1  0.21810106  0.90023501  0.58460454  1  -1.176928  0  -0.341968  -0.564449  0  2.024276  0
O  O255  1  0.59976762  0.71810130  0.33459567  1  -1.176893  0  -0.34191  -0.56445  0  2.024675  0
O  O256  1  0.28189605  0.40023436  0.16540238  1  -1.176791  0  -0.342002  -0.564516  0  2.024502  0
O  O257  1  0.09976337  0.78190593  0.91539438  1  -1.176925  0  -0.342074  -0.564591  0  2.02443  0
O  O258  1  0.71810459  0.59977127  0.66539688  1  -1.176536  0  -0.342086  -0.564611  0  2.024017  0
O  O259  1  0.90023504  0.21810627  0.41539409  1  -1.17716  0  -0.342089  -0.564567  0  2.024202  0
