# generated using pymatgen
data_CdH6C8(BrN2)2
_symmetry_space_group_name_H-M   'P 1'
_cell_length_a   7.85896338
_cell_length_b   8.34965184
_cell_length_c   8.34964033
_cell_angle_alpha   90.19633586
_cell_angle_beta   90.00011248
_cell_angle_gamma   90.00016084
_symmetry_Int_Tables_number   1
_chemical_formula_structural   CdH6C8(BrN2)2
_chemical_formula_sum   'Cd2 H12 C16 Br4 N8'
_cell_volume   547.89690887
_cell_formula_units_Z   2
loop_
 _symmetry_equiv_pos_site_id
 _symmetry_equiv_pos_as_xyz
  1  'x, y, z'
loop_
 _atom_site_type_symbol
 _atom_site_label
 _atom_site_symmetry_multiplicity
 _atom_site_fract_x
 _atom_site_fract_y
 _atom_site_fract_z
 _atom_site_occupancy
 _atom_site_pbe_bader_spin_density
 _atom_site_pbe_cm5_charge
 _atom_site_pbe_ddec_charge
 _atom_site_pbe_ddec_spin_density
 _atom_site_pbe_ddec_sum_bond_order
 _atom_site_pbe_magmom
Cd  Cd0  1  0.74999815  0.01099715  0.98899922  1  0  0.545374  0.636428  0  2.517115  0
Cd  Cd1  1  0.24999883  0.98900155  0.01100065  1  0  0.545394  0.636484  0  2.517156  0
H  H2  1  0.75000286  0.62417804  0.97178903  1  0  0.111812  0.094453  0  1.037903  0
H  H3  1  0.24999666  0.37580750  0.02820830  1  0  0.111743  0.094375  0  1.037716  0
H  H4  1  0.75000519  0.02821217  0.37580930  1  0  0.111764  0.094388  0  1.037744  0
H  H5  1  0.24999688  0.97179256  0.62418344  1  0  0.11179  0.094427  0  1.037887  0
H  H6  1  0.75000106  0.39572487  0.78141140  1  0  0.096981  0.119591  0  1.056747  0
H  H7  1  0.24999847  0.60426669  0.21858240  1  0  0.097014  0.119661  0  1.056673  0
H  H8  1  0.75000061  0.21858382  0.60426618  1  0  0.097001  0.119648  0  1.056706  0
H  H9  1  0.24999891  0.78141970  0.39572894  1  0  0.097007  0.11971  0  1.056744  0
H  H10  1  0.74999613  0.75948987  0.41027750  1  0  0.10013  0.088205  0  1.066078  0
H  H11  1  0.24999957  0.24051954  0.58973207  1  0  0.100143  0.088213  0  1.066216  0
H  H12  1  0.74999953  0.58973006  0.24051882  1  0  0.100128  0.088143  0  1.066208  0
H  H13  1  0.24999872  0.41027583  0.75947992  1  0  0.100111  0.088149  0  1.066148  0
C  C14  1  0.75000022  0.64476865  0.84329950  1  0  0.054803  0.076437  0  3.911093  0
C  C15  1  0.24999931  0.35522167  0.15670028  1  0  0.054789  0.07661  0  3.911033  0
C  C16  1  0.75000154  0.15670184  0.35522482  1  0  0.054821  0.076653  0  3.911057  0
C  C17  1  0.24999925  0.84330407  0.64477033  1  0  0.054792  0.076414  0  3.911259  0
C  C18  1  0.74999992  0.51745699  0.73504564  1  0  -0.059559  -0.105365  0  3.866695  0
C  C19  1  0.25000088  0.48253815  0.26494940  1  0  -0.059555  -0.105396  0  3.866616  0
C  C20  1  0.75000183  0.26495100  0.48254443  1  0  -0.059581  -0.105477  0  3.866678  0
C  C21  1  0.25000024  0.73505490  0.51745312  1  0  -0.059629  -0.105548  0  3.866756  0
C  C22  1  0.74999853  0.55327721  0.57197864  1  0  0.012651  0.063677  0  3.944504  0
C  C23  1  0.25000226  0.44672388  0.42802245  1  0  0.012612  0.063476  0  3.944609  0
C  C24  1  0.75000077  0.42802753  0.44672001  1  0  0.012495  0.06331  0  3.944699  0
C  C25  1  0.25000257  0.57197838  0.55327634  1  0  0.01269  0.063734  0  3.944575  0
C  C26  1  0.74999620  0.71800415  0.53394137  1  0  0.049154  0.008362  0  3.91378  0
C  C27  1  0.25000078  0.28199688  0.46606691  1  0  0.049151  0.008474  0  3.913941  0
C  C28  1  0.74999938  0.46606319  0.28199459  1  0  0.049265  0.008786  0  3.913984  0
C  C29  1  0.25000014  0.53394510  0.71800418  1  0  0.049162  0.008328  0  3.914156  0
Br  Br30  1  0.00884831  0.16687206  0.83312911  1  0  -0.250324  -0.449553  0  1.442667  0
Br  Br31  1  0.50884842  0.83311880  0.16687142  1  0  -0.250332  -0.4496  0  1.442652  0
Br  Br32  1  0.49114220  0.16687987  0.83313204  1  0  -0.250336  -0.449585  0  1.442657  0
Br  Br33  1  0.99114994  0.83311824  0.16687306  1  0  -0.250321  -0.4496  0  1.442641  0
N  N34  1  0.74999912  0.79786115  0.79703601  1  0  -0.198277  -0.095861  0  3.493604  0
N  N35  1  0.24999785  0.20213389  0.20297340  1  0  -0.198329  -0.096041  0  3.493746  0
N  N36  1  0.75000273  0.20297043  0.20213824  1  0  -0.198319  -0.095972  0  3.493826  0
N  N37  1  0.24999807  0.79703788  0.79785694  1  0  -0.198282  -0.095879  0  3.493581  0
N  N38  1  0.74999775  0.83595531  0.64206994  1  0  -0.190006  -0.118061  0  3.263484  0
N  N39  1  0.24999923  0.16404571  0.35794073  1  0  -0.189927  -0.118041  0  3.2634  0
N  N40  1  0.75000165  0.35793512  0.16404934  1  0  -0.189981  -0.118185  0  3.26378  0
N  N41  1  0.24999915  0.64207197  0.83594942  1  0  -0.19002  -0.117971  0  3.263613  0
