# generated using pymatgen
data_Ag5PH6(C8O5)2
_symmetry_space_group_name_H-M   'P 1'
_cell_length_a   12.02368646
_cell_length_b   12.02217101
_cell_length_c   15.62393935
_cell_angle_alpha   104.33078654
_cell_angle_beta   112.56930085
_cell_angle_gamma   100.34173999
_symmetry_Int_Tables_number   1
_chemical_formula_structural   Ag5PH6(C8O5)2
_chemical_formula_sum   'Ag20 P4 H24 C64 O40'
_cell_volume   1923.13104300
_cell_formula_units_Z   4
loop_
 _symmetry_equiv_pos_site_id
 _symmetry_equiv_pos_as_xyz
  1  'x, y, z'
loop_
 _atom_site_type_symbol
 _atom_site_label
 _atom_site_symmetry_multiplicity
 _atom_site_fract_x
 _atom_site_fract_y
 _atom_site_fract_z
 _atom_site_occupancy
 _atom_site_pbe_bader_charge
 _atom_site_pbe_bader_spin_density
 _atom_site_pbe_cm5_charge
 _atom_site_pbe_ddec_charge
 _atom_site_pbe_ddec_spin_density
 _atom_site_pbe_ddec_sum_bond_order
 _atom_site_pbe_magmom
Ag  Ag0  1  0.46657514  0.60845270  0.51377201  1  0.643804  0  0.442645  0.492454  0  1.84067  0
Ag  Ag1  1  0.59464691  0.95261830  0.98625611  1  0.643193  0  0.442771  0.492552  0  1.840744  0
Ag  Ag2  1  0.53342632  0.39155029  0.48622949  1  0.643533  0  0.442679  0.492518  0  1.840546  0
Ag  Ag3  1  0.40534849  0.04738201  0.01374298  1  0.643367  0  0.442774  0.492562  0  1.840721  0
Ag  Ag4  1  0.81384885  0.06392196  0.74997105  1  0.661998  0  0.419452  0.503101  0  1.849731  0
Ag  Ag5  1  0.18614414  0.93607446  0.25002744  1  0.661937  0  0.419464  0.503117  0  1.849672  0
Ag  Ag6  1  0.04928041  0.95146361  0.80279548  1  0.695939  0  0.447618  0.577603  0  1.602103  0
Ag  Ag7  1  0.64897312  0.24659642  0.69732427  1  0.695594  0  0.447668  0.578028  0  1.600927  0
Ag  Ag8  1  0.95072278  0.04853059  0.19720417  1  0.695888  0  0.447623  0.577577  0  1.602116  0
Ag  Ag9  1  0.35103393  0.75340100  0.30267831  1  0.695633  0  0.447687  0.578072  0  1.600838  0
Ag  Ag10  1  0.91915950  0.38055804  0.95684294  1  0.638549  0  0.423443  0.487875  0  1.884702  0
Ag  Ag11  1  0.92374791  0.96225803  0.54317305  1  0.6382  0  0.423742  0.487737  0  1.887604  0
Ag  Ag12  1  0.08083772  0.61944106  0.04315616  1  0.638164  0  0.42346  0.487921  0  1.884662  0
Ag  Ag13  1  0.07625467  0.03774695  0.45682687  1  0.639247  0  0.423716  0.487669  0  1.887688  0
Ag  Ag14  1  0.11153842  0.97617852  0.05924633  1  0.667294  0  0.445422  0.533646  0  1.904329  0
Ag  Ag15  1  0.41691835  0.05221859  0.44079434  1  0.667118  0  0.445364  0.53361  0  1.905382  0
Ag  Ag16  1  0.88846033  0.02381756  0.94074890  1  0.667287  0  0.445415  0.533651  0  1.904333  0
Ag  Ag17  1  0.58307975  0.94778679  0.55920831  1  0.666848  0  0.445346  0.533567  0  1.905435  0
Ag  Ag18  1  0.53814972  0.78811336  0.75003916  1  0.68355  0  0.445512  0.583285  0  1.705048  0
Ag  Ag19  1  0.46185179  0.21188639  0.24996419  1  0.683599  0  0.445519  0.583305  0  1.705058  0
P  P20  1  0.83568420  0.75631523  0.82933314  1  3.00538  0  0.256496  1.005263  0  5.182216  0
P  P21  1  0.42697905  0.00620382  0.67060177  1  3.040996  0  0.256512  1.005795  0  5.181337  0
P  P22  1  0.16431649  0.24368460  0.17066671  1  3.005149  0  0.2565  1.005254  0  5.182131  0
P  P23  1  0.57302127  0.99379596  0.32939951  1  3.040996  0  0.256521  1.005765  0  5.18155  0
H  H24  1  0.71843583  0.59585232  0.47161347  1  0.111921  0  0.112502  0.128087  0  0.973973  0
H  H25  1  0.62411084  0.24676680  0.02831357  1  0.079355  0  0.112757  0.128178  0  0.973765  0
H  H26  1  0.28156113  0.40414863  0.52838716  1  0.111944  0  0.112489  0.128061  0  0.974057  0
H  H27  1  0.37589076  0.75323304  0.97168719  1  0.079369  0  0.112758  0.128193  0  0.973762  0
H  H28  1  0.77825512  0.40689377  0.47724362  1  0.083896  0  0.102872  0.108674  0  1.008912  0
H  H29  1  0.42938236  0.30069521  0.02264233  1  0.087598  0  0.103083  0.108649  0  1.008374  0
H  H30  1  0.22174440  0.59310730  0.52275596  1  0.083879  0  0.102869  0.10868  0  1.008916  0
H  H31  1  0.57061861  0.69930459  0.97735869  1  0.087615  0  0.103084  0.108634  0  1.008379  0
H  H32  1  0.87296374  0.37776637  0.63985512  1  0.096681  0  0.104554  0.11082  0  1.029542  0
H  H33  1  0.23772858  0.23279731  0.85998327  1  0.079356  0  0.104365  0.110368  0  1.029712  0
H  H34  1  0.12703706  0.62223476  0.36014394  1  0.096646  0  0.104537  0.11082  0  1.029525  0
H  H35  1  0.76227276  0.76720316  0.14001722  1  0.079267  0  0.104392  0.110441  0  1.029603  0
H  H36  1  0.52792479  0.38667102  0.79741736  1  0.094527  0  0.104475  0.111518  0  1.003272  0
H  H37  1  0.08921596  0.73082723  0.70271378  1  0.086999  0  0.104371  0.110682  0  1.004646  0
H  H38  1  0.47207617  0.61332757  0.20258186  1  0.094463  0  0.104476  0.111534  0  1.003259  0
H  H39  1  0.91078447  0.26917323  0.29728581  1  0.086996  0  0.104362  0.110657  0  1.004664  0
H  H40  1  0.63816526  0.41648060  0.97618711  1  0.112416  0  0.098647  0.103058  0  1.035297  0
H  H41  1  0.94027522  0.66203612  0.52393715  1  0.034255  0  0.09909  0.104267  0  1.035689  0
H  H42  1  0.36183452  0.58351862  0.02381094  1  0.112411  0  0.098664  0.103057  0  1.035263  0
H  H43  1  0.05972611  0.33796374  0.47606244  1  0.034261  0  0.099091  0.104263  0  1.035703  0
H  H44  1  0.82004756  0.60157717  0.09086453  1  0.105292  0  0.110975  0.121059  0  0.980169  0
H  H45  1  0.01058077  0.72914865  0.40915270  1  0.09992  0  0.11087  0.1207  0  0.979795  0
H  H46  1  0.17994992  0.39842068  0.90913393  1  0.105267  0  0.110972  0.121058  0  0.98016  0
H  H47  1  0.98942148  0.27085122  0.59084780  1  0.099889  0  0.110874  0.120688  0  0.979813  0
C  C48  1  0.75781132  0.78546570  0.62142599  1  1.600098  0  0.212229  0.599065  0  4.15561  0
C  C49  1  0.66394389  0.13623635  0.87860785  1  1.596195  0  0.212952  0.601308  0  4.154949  0
C  C50  1  0.24218553  0.21453456  0.37857634  1  1.599715  0  0.21214  0.598845  0  4.155894  0
C  C51  1  0.33605514  0.86376092  0.12139036  1  1.596204  0  0.213008  0.601407  0  4.154872  0
C  C52  1  0.78355599  0.66976437  0.62920748  1  -0.068012  0  -0.008156  -0.01413  0  3.967695  0
C  C53  1  0.54044425  0.15421787  0.87073435  1  -0.057685  0  -0.008279  -0.016582  0  3.968264  0
C  C54  1  0.21644188  0.33023659  0.37079405  1  -0.068252  0  -0.008178  -0.014091  0  3.967567  0
C  C55  1  0.45955671  0.84578072  0.12926487  1  -0.057686  0  -0.008314  -0.016726  0  3.968307  0
C  C56  1  0.75949098  0.58037419  0.54152574  1  -0.100467  0  -0.096026  -0.1404  0  4.022719  0
C  C57  1  0.53872096  0.21786244  0.95839611  1  -0.045018  0  -0.096632  -0.140272  0  4.021517  0
C  C58  1  0.24050662  0.41962679  0.45847463  1  -0.100233  0  -0.095929  -0.140284  0  4.022631  0
C  C59  1  0.46128026  0.78213551  0.04160337  1  -0.045045  0  -0.096626  -0.140241  0  4.021464  0
C  C60  1  0.79201569  0.47460931  0.54465418  1  -0.041995  0  -0.098335  -0.085005  0  4.037745  0
C  C61  1  0.42973982  0.24708596  0.95524947  1  -0.079259  0  -0.099248  -0.08527  0  4.035965  0
C  C62  1  0.20798228  0.52539233  0.45534567  1  -0.042021  0  -0.098353  -0.085058  0  4.037755  0
C  C63  1  0.57026013  0.75291254  0.04475143  1  -0.079284  0  -0.099242  -0.085203  0  4.035932  0
C  C64  1  0.84713072  0.45892928  0.63552474  1  -0.084166  0  -0.088953  -0.097666  0  3.948583  0
C  C65  1  0.32326319  0.21136973  0.86435134  1  0.004257  0  -0.088015  -0.096699  0  3.945935  0
C  C66  1  0.15286881  0.54107240  0.36447574  1  -0.08421  0  -0.088961  -0.097653  0  3.948602  0
C  C67  1  0.67673750  0.78863071  0.13564941  1  0.004294  0  -0.08808  -0.096822  0  3.945894  0
C  C68  1  0.86589171  0.54466491  0.72262828  1  -0.001932  0  0.000683  0.014909  0  3.914113  0
C  C69  1  0.32196331  0.14312136  0.77725503  1  -0.01768  0  -0.000161  0.013859  0  3.914963  0
C  C70  1  0.13410861  0.45533487  0.27737300  1  -0.001927  0  0.00068  0.014861  0  3.914141  0
C  C71  1  0.67803851  0.85688169  0.22274505  1  -0.017533  0  -0.00012  0.013818  0  3.914938  0
C  C72  1  0.91930358  0.51712129  0.81653655  1  1.576909  0  0.202507  0.556007  0  4.217995  0
C  C73  1  0.20059265  0.10267703  0.68333528  1  1.563447  0  0.203473  0.556716  0  4.215085  0
C  C74  1  0.08069711  0.48287793  0.18346241  1  1.57693  0  0.202499  0.556065  0  4.217953  0
C  C75  1  0.79940789  0.89732596  0.31666532  1  1.563961  0  0.203468  0.556694  0  4.214959  0
C  C76  1  0.83242747  0.65118140  0.72035026  1  -0.407712  0  -0.021799  -0.197581  0  3.867614  0
C  C77  1  0.43073479  0.11189263  0.77956898  1  -0.499602  0  -0.02122  -0.195698  0  3.867505  0
C  C78  1  0.16757141  0.34882025  0.27965048  1  -0.407528  0  -0.021805  -0.197584  0  3.867517  0
C  C79  1  0.56926580  0.88810651  0.22043257  1  -0.499644  0  -0.021197  -0.195582  0  3.867312  0
C  C80  1  0.75646348  0.65510143  0.87446476  1  -0.431062  0  -0.024061  -0.199233  0  3.863246  0
C  C81  1  0.28061946  0.88184030  0.62546897  1  -0.428141  0  -0.0235  -0.198421  0  3.862427  0
C  C82  1  0.24353603  0.34489903  0.12553393  1  -0.430952  0  -0.024056  -0.199278  0  3.863366  0
C  C83  1  0.71937948  0.11815811  0.37453362  1  -0.428055  0  -0.02353  -0.198345  0  3.862083  0
C  C84  1  0.65244618  0.55020314  0.81048486  1  -0.029285  0  -0.008396  -0.017288  0  3.962699  0
C  C85  1  0.23968556  0.84205269  0.68954223  1  -0.109315  0  -0.009175  -0.019351  0  3.964179  0
C  C86  1  0.34755360  0.44979607  0.18951319  1  -0.029243  0  -0.008373  -0.017218  0  3.962726  0
C  C87  1  0.76031477  0.15794769  0.31045995  1  -0.109567  0  -0.009174  -0.019345  0  3.96413  0
C  C88  1  0.58331549  0.51931303  0.70048341  1  1.562007  0  0.211922  0.581462  0  4.170492  0
C  C89  1  0.31878916  0.88277990  0.79952263  1  1.581647  0  0.212905  0.58297  0  4.168533  0
C  C90  1  0.41668585  0.48068683  0.29951619  1  1.562298  0  0.211997  0.581654  0  4.17041  0
C  C91  1  0.68120961  0.11721984  0.20047801  1  1.581559  0  0.212855  0.582873  0  4.168626  0
C  C92  1  0.60876897  0.46659833  0.84802448  1  -0.103376  0  -0.089861  -0.113771  0  3.97373  0
C  C93  1  0.11848880  0.76100741  0.65207244  1  -0.034411  0  -0.089617  -0.111178  0  3.974392  0
C  C94  1  0.39123172  0.53340028  0.15197358  1  -0.103265  0  -0.089893  -0.113851  0  3.973755  0
C  C95  1  0.88151126  0.23899178  0.34792678  1  -0.034221  0  -0.089571  -0.111111  0  3.974359  0
C  C96  1  0.66995561  0.48351857  0.94814366  1  -0.041917  0  -0.088397  -0.061136  0  4.017479  0
C  C97  1  0.03531079  0.72186541  0.55193020  1  0.03098  0  -0.089247  -0.064596  0  4.01879  0
C  C98  1  0.33004417  0.51648064  0.05185439  1  -0.041937  0  -0.088387  -0.061073  0  4.017358  0
C  C99  1  0.96469017  0.27813378  0.44806992  1  0.030974  0  -0.089271  -0.06463  0  4.018827  0
C  C100  1  0.77110213  0.58698843  0.01223815  1  -0.024958  0  -0.087002  -0.125748  0  4.011924  0
C  C101  1  0.07462835  0.75878693  0.48776962  1  -0.06903  0  -0.086122  -0.123457  0  4.011831  0
C  C102  1  0.22889637  0.41301073  0.98776042  1  -0.024947  0  -0.087  -0.125782  0  4.011874  0
C  C103  1  0.92537352  0.24121166  0.51223051  1  -0.069006  0  -0.086139  -0.123499  0  4.011861  0
C  C104  1  0.81006082  0.67481975  0.97662991  1  -0.0778  0  -0.007897  -0.006356  0  3.963029  0
C  C105  1  0.19805416  0.83331316  0.52332960  1  -0.032595  0  -0.008041  -0.006402  0  3.967672  0
C  C106  1  0.18993923  0.32518005  0.02337021  1  -0.077819  0  -0.007912  -0.006324  0  3.963012  0
C  C107  1  0.80194669  0.16668474  0.47667131  1  -0.032641  0  -0.008047  -0.006405  0  3.967636  0
C  C108  1  0.90267277  0.79276802  0.05327800  1  1.572252  0  0.195897  0.564582  0  4.226594  0
C  C109  1  0.23934484  0.84927527  0.44666538  1  1.562005  0  0.194916  0.56226  0  4.231717  0
C  C110  1  0.09732665  0.20723175  0.94672238  1  1.572218  0  0.195887  0.564577  0  4.226586  0
C  C111  1  0.76065816  0.15072715  0.55333586  1  1.561948  0  0.194988  0.562381  0  4.231471  0
O  O112  1  0.64430993  0.78039545  0.57124827  1  -1.129896  0  -0.31463  -0.49182  0  2.43873  0
O  O113  1  0.70899104  0.07280983  0.92871783  1  -1.127631  0  -0.314612  -0.492429  0  2.439464  0
O  O114  1  0.35568693  0.21960542  0.42875495  1  -1.129861  0  -0.314651  -0.491819  0  2.438784  0
O  O115  1  0.29100901  0.92718814  0.07127958  1  -1.12764  0  -0.314632  -0.492473  0  2.439422  0
O  O116  1  0.85257017  0.88058624  0.65977284  1  -1.140461  0  -0.325381  -0.558005  0  2.496434  0
O  O117  1  0.72083955  0.19280767  0.84041601  1  -1.142903  0  -0.326089  -0.558963  0  2.495513  0
O  O118  1  0.14742694  0.11941216  0.34022795  1  -1.14014  0  -0.325309  -0.557868  0  2.496542  0
O  O119  1  0.27915948  0.80718900  0.15958130  1  -1.142877  0  -0.326154  -0.559025  0  2.495527  0
O  O120  1  0.85993277  0.41741117  0.81595400  1  -1.112647  0  -0.317506  -0.5164  0  2.441456  0
O  O121  1  0.10142278  0.04400263  0.68391594  1  -1.111833  0  -0.317994  -0.516715  0  2.441568  0
O  O122  1  0.14006755  0.58258799  0.18404638  1  -1.112632  0  -0.317495  -0.516429  0  2.441457  0
O  O123  1  0.89858101  0.95599605  0.31608340  1  -1.111892  0  -0.318024  -0.516698  0  2.441502  0
O  O124  1  0.01930816  0.59502739  0.88704269  1  -1.124779  0  -0.319412  -0.493113  0  2.357678  0
O  O125  1  0.20813700  0.13204348  0.61281462  1  -1.108083  0  -0.319662  -0.492963  0  2.357214  0
O  O126  1  0.98069062  0.40497235  0.11295795  1  -1.124794  0  -0.319401  -0.493126  0  2.357662  0
O  O127  1  0.79186403  0.86796208  0.38718556  1  -1.108505  0  -0.319651  -0.492981  0  2.357281  0
O  O128  1  0.97304602  0.82493927  0.90321267  1  -1.398645  0  -0.36575  -0.680319  0  2.390778  0
O  O129  1  0.42182963  0.06977248  0.59678042  1  -1.384301  0  -0.365721  -0.680556  0  2.391709  0
O  O130  1  0.02695467  0.17505934  0.09678539  1  -1.398623  0  -0.365728  -0.680272  0  2.390696  0
O  O131  1  0.57817171  0.93022799  0.40322007  1  -1.384302  0  -0.365687  -0.68051  0  2.391778  0
O  O132  1  0.75540063  0.83781949  0.79814650  1  -1.386972  0  -0.369492  -0.685496  0  2.467019  0
O  O133  1  0.53971806  0.95718331  0.70183114  1  -1.388485  0  -0.369504  -0.686449  0  2.468309  0
O  O134  1  0.24460061  0.16218090  0.20185658  1  -1.38698  0  -0.369512  -0.685516  0  2.466932  0
O  O135  1  0.46028585  0.04281850  0.29817011  1  -1.388457  0  -0.369515  -0.68648  0  2.468439  0
O  O136  1  0.53182582  0.59464209  0.66843935  1  -1.134316  0  -0.327365  -0.55801  0  2.530578  0
O  O137  1  0.42621456  0.86344431  0.83152725  1  -1.137212  0  -0.328762  -0.559123  0  2.529729  0
O  O138  1  0.46817525  0.40535902  0.33156088  1  -1.134343  0  -0.32739  -0.558132  0  2.530569  0
O  O139  1  0.57378534  0.13655865  0.16847361  1  -1.137267  0  -0.328764  -0.559088  0  2.529689  0
O  O140  1  0.57605063  0.41791748  0.64589141  1  -1.121457  0  -0.305901  -0.499044  0  2.400949  0
O  O141  1  0.27192605  0.92986863  0.85414911  1  -1.121535  0  -0.305935  -0.499505  0  2.400205  0
O  O142  1  0.42395263  0.58208308  0.35410830  1  -1.121771  0  -0.30596  -0.499164  0  2.401041  0
O  O143  1  0.72806854  0.07012337  0.14585008  1  -1.121377  0  -0.305903  -0.499489  0  2.400197  0
O  O144  1  0.00472939  0.78901757  0.11750330  1  -1.13983  0  -0.318285  -0.530983  0  2.426035  0
O  O145  1  0.17135363  0.88707915  0.38241987  1  -1.132084  0  -0.31805  -0.530173  0  2.426623  0
O  O146  1  0.99526810  0.21098150  0.88249696  1  -1.139861  0  -0.318283  -0.530983  0  2.425994  0
O  O147  1  0.82864642  0.11292065  0.61758025  1  -1.132102  0  -0.318049  -0.530209  0  2.426546  0
O  O148  1  0.86531019  0.88544839  0.05093116  1  -1.138309  0  -0.322394  -0.567388  0  2.419195  0
O  O149  1  0.33442531  0.81435324  0.44904647  1  -1.136953  0  -0.322118  -0.566453  0  2.419558  0
O  O150  1  0.13469013  0.11455077  0.94906922  1  -1.138317  0  -0.322397  -0.567427  0  2.419241  0
O  O151  1  0.66557753  0.18565111  0.55095372  1  -1.136883  0  -0.322117  -0.56645  0  2.419438  0
