# generated using pymatgen
data_AgH3C3(N2O)2
_symmetry_space_group_name_H-M   'P 1'
_cell_length_a   4.96943433
_cell_length_b   8.53720214
_cell_length_c   13.73846573
_cell_angle_alpha   89.99999713
_cell_angle_beta   89.99999827
_cell_angle_gamma   100.07685193
_symmetry_Int_Tables_number   1
_chemical_formula_structural   AgH3C3(N2O)2
_chemical_formula_sum   'Ag4 H12 C12 N16 O8'
_cell_volume   573.86415100
_cell_formula_units_Z   4
loop_
 _symmetry_equiv_pos_site_id
 _symmetry_equiv_pos_as_xyz
  1  'x, y, z'
loop_
 _atom_site_type_symbol
 _atom_site_label
 _atom_site_symmetry_multiplicity
 _atom_site_fract_x
 _atom_site_fract_y
 _atom_site_fract_z
 _atom_site_occupancy
 _atom_site_hle17_bader_spin_density
 _atom_site_hle17_ddec_charge
 _atom_site_hle17_ddec_spin_density
 _atom_site_hle17_ddec_sum_bond_order
 _atom_site_hle17_magmom
 _atom_site_hse06_10hf_bader_spin_density
 _atom_site_hse06_10hf_ddec_charge
 _atom_site_hse06_10hf_ddec_spin_density
 _atom_site_hse06_10hf_ddec_sum_bond_order
 _atom_site_hse06_10hf_magmom
 _atom_site_hse06_bader_spin_density
 _atom_site_hse06_ddec_charge
 _atom_site_hse06_ddec_spin_density
 _atom_site_hse06_ddec_sum_bond_order
 _atom_site_hse06_magmom
 _atom_site_pbe_bader_spin_density
 _atom_site_pbe_cm5_charge
 _atom_site_pbe_ddec_charge
 _atom_site_pbe_ddec_spin_density
 _atom_site_pbe_ddec_sum_bond_order
 _atom_site_pbe_magmom
Ag  Ag0  1  0.75583987  0.60265587  0.96458295  1  0  0.534613  0  1.433631  0  0  0.393015  0  1.900904  0  0  0.428191  0  1.844547  0  0  0.433273  0.368332  0  1.940147  0
Ag  Ag1  1  0.74415934  0.89734456  0.46458315  1  0  0.534619  0  1.433646  0  0  0.393021  0  1.90093  0  0  0.428196  0  1.844573  0  0  0.433276  0.368337  0  1.940173  0
Ag  Ag2  1  0.24415949  0.39734402  0.03541661  1  0  0.534634  0  1.433638  0  0  0.393032  0  1.900924  0  0  0.428208  0  1.844566  0  0  0.433279  0.368347  0  1.940167  0
Ag  Ag3  1  0.25584001  0.10265533  0.53541641  1  0  0.534598  0  1.433663  0  0  0.392993  0  1.900945  0  0  0.42817  0  1.844587  0  0  0.433273  0.36831  0  1.940186  0
H  H4  1  0.28130415  0.69730659  0.81991833  1  0  0.135166  0  0.947377  0  0  0.137693  0  1.021383  0  0  0.141425  0  1.016145  0  0  0.151301  0.134885  0  1.02523  0
H  H5  1  0.21869621  0.80269389  0.31991853  1  0  0.135161  0  0.947379  0  0  0.137697  0  1.021372  0  0  0.141429  0  1.016133  0  0  0.151309  0.134889  0  1.025218  0
H  H6  1  0.71869722  0.30269330  0.18008196  1  0  0.135174  0  0.947353  0  0  0.137726  0  1.021338  0  0  0.141457  0  1.016099  0  0  0.151314  0.134918  0  1.025184  0
H  H7  1  0.78130349  0.19730718  0.68008176  1  0  0.135158  0  0.947377  0  0  0.13769  0  1.02138  0  0  0.141421  0  1.016141  0  0  0.151301  0.134882  0  1.025226  0
H  H8  1  0.96096357  0.62075312  0.65416110  1  0  0.129736  0  0.929005  0  0  0.135908  0  0.99938  0  0  0.138105  0  0.998823  0  0  0.12325  0.134321  0  0.999941  0
H  H9  1  0.53903734  0.87924615  0.15416130  1  0  0.129731  0  0.929011  0  0  0.135903  0  0.999388  0  0  0.138101  0  0.998831  0  0  0.123244  0.134316  0  0.99995  0
H  H10  1  0.03903579  0.37924677  0.34583847  1  0  0.129723  0  0.92901  0  0  0.135888  0  0.999396  0  0  0.138088  0  0.99884  0  0  0.123245  0.134302  0  0.999957  0
H  H11  1  0.46096201  0.12075374  0.84583899  1  0  0.129733  0  0.929006  0  0  0.135906  0  0.999382  0  0  0.138104  0  0.998824  0  0  0.123241  0.134319  0  0.999943  0
H  H12  1  0.05508559  0.46522509  0.58236051  1  0  0.139808  0  0.949733  0  0  0.151999  0  1.009446  0  0  0.155147  0  1.007595  0  0  0.124782  0.149703  0  1.010872  0
H  H13  1  0.44491426  0.03477544  0.08236072  1  0  0.13982  0  0.949727  0  0  0.152013  0  1.009439  0  0  0.15516  0  1.007587  0  0  0.124784  0.149716  0  1.010864  0
H  H14  1  0.94491377  0.53477479  0.41763978  1  0  0.139806  0  0.94976  0  0  0.152022  0  1.009429  0  0  0.155172  0  1.007578  0  0  0.124798  0.149726  0  1.010855  0
H  H15  1  0.55508545  0.96522564  0.91763957  1  0  0.139837  0  0.949723  0  0  0.152035  0  1.009419  0  0  0.155182  0  1.007568  0  0  0.124798  0.149739  0  1.010846  0
C  C16  1  0.36309971  0.59816065  0.78991134  1  0  0.16731  0  3.588845  0  0  0.083581  0  3.857729  0  0  0.097052  0  3.868357  0  0  0.181733  0.074657  0  3.850753  0
C  C17  1  0.13690031  0.90183866  0.28991082  1  0  0.167312  0  3.58882  0  0  0.083577  0  3.857721  0  0  0.097048  0  3.868349  0  0  0.181728  0.074653  0  3.850745  0
C  C18  1  0.63690166  0.40183925  0.21008895  1  0  0.167356  0  3.588804  0  0  0.083592  0  3.857667  0  0  0.097066  0  3.868293  0  0  0.181731  0.074666  0  3.850691  0
C  C19  1  0.86309905  0.09816123  0.71008875  1  0  0.167309  0  3.588825  0  0  0.08357  0  3.857722  0  0  0.097042  0  3.868349  0  0  0.181716  0.074644  0  3.850745  0
C  C20  1  0.13444540  0.57287991  0.62467091  1  0  -0.190239  0  3.601468  0  0  -0.259399  0  3.839321  0  0  -0.262715  0  3.846174  0  0  -0.052456  -0.257157  0  3.834999  0
C  C21  1  0.36555463  0.92711940  0.12467111  1  0  -0.190281  0  3.601453  0  0  -0.259438  0  3.839326  0  0  -0.262752  0  3.846174  0  0  -0.052463  -0.257196  0  3.835004  0
C  C22  1  0.86555395  0.42711997  0.37532938  1  0  -0.190245  0  3.601462  0  0  -0.259414  0  3.839301  0  0  -0.262739  0  3.846165  0  0  -0.052468  -0.257172  0  3.834979  0
C  C23  1  0.63444472  0.07288048  0.87532918  1  0  -0.190301  0  3.601443  0  0  -0.259464  0  3.839319  0  0  -0.262777  0  3.846165  0  0  -0.052474  -0.257222  0  3.834998  0
C  C24  1  0.29863439  0.69887239  0.55845827  1  0  0.672914  0  3.894789  0  0  0.624567  0  4.188955  0  0  0.658507  0  4.184466  0  0  0.195667  0.601461  0  4.191049  0
C  C25  1  0.20136364  0.80112693  0.05845848  1  0  0.67295  0  3.89474  0  0  0.624581  0  4.188941  0  0  0.658522  0  4.184451  0  0  0.195694  0.601476  0  4.191033  0
C  C26  1  0.70136496  0.30112750  0.44154129  1  0  0.672975  0  3.894732  0  0  0.624591  0  4.188951  0  0  0.658534  0  4.18446  0  0  0.195673  0.601486  0  4.191043  0
C  C27  1  0.79863572  0.19887296  0.94154181  1  0  0.672943  0  3.894737  0  0  0.624571  0  4.188939  0  0  0.658511  0  4.18445  0  0  0.195675  0.601466  0  4.191032  0
N  N28  1  0.54579978  0.52354155  0.83219044  1  0  -0.254413  0  3.270433  0  0  -0.177202  0  3.588333  0  0  -0.197885  0  3.602218  0  0  -0.246543  -0.163384  0  3.578916  0
N  N29  1  0.95419945  0.97645889  0.33218991  1  0  -0.254399  0  3.270432  0  0  -0.177187  0  3.588332  0  0  -0.197869  0  3.602218  0  0  -0.246532  -0.163368  0  3.578913  0
N  N30  1  0.45419958  0.47645834  0.16780985  1  0  -0.254439  0  3.270354  0  0  -0.177229  0  3.588269  0  0  -0.197912  0  3.602152  0  0  -0.246538  -0.163405  0  3.578847  0
N  N31  1  0.04579991  0.02354099  0.66780965  1  0  -0.254403  0  3.270401  0  0  -0.177187  0  3.588298  0  0  -0.19787  0  3.602184  0  0  -0.246525  -0.163362  0  3.578875  0
N  N32  1  0.58912300  0.40556702  0.77050597  1  0  -0.051314  0  2.933058  0  0  -0.048438  0  3.235664  0  0  -0.046746  0  3.248554  0  0  -0.070496  -0.049489  0  3.227081  0
N  N33  1  0.91087735  0.09443226  0.27050618  1  0  -0.05128  0  2.933105  0  0  -0.048402  0  3.235709  0  0  -0.04671  0  3.2486  0  0  -0.070481  -0.049453  0  3.227125  0
N  N34  1  0.41087837  0.59443287  0.22949432  1  0  -0.051256  0  2.933075  0  0  -0.048391  0  3.2357  0  0  -0.0467  0  3.24859  0  0  -0.070463  -0.049445  0  3.227115  0
N  N35  1  0.08912165  0.90556644  0.72949411  1  0  -0.051283  0  2.933031  0  0  -0.04841  0  3.235644  0  0  -0.046718  0  3.248533  0  0  -0.070478  -0.049464  0  3.227059  0
N  N36  1  0.43969388  0.40701508  0.69316618  1  0  -0.091947  0  2.847822  0  0  -0.101283  0  3.129701  0  0  -0.100904  0  3.139019  0  0  -0.063014  -0.101512  0  3.123689  0
N  N37  1  0.06030595  0.09298544  0.19316567  1  0  -0.092011  0  2.847845  0  0  -0.101346  0  3.129729  0  0  -0.100968  0  3.139048  0  0  -0.063034  -0.101574  0  3.123716  0
N  N38  1  0.56030582  0.59298599  0.30683410  1  0  -0.09196  0  2.847893  0  0  -0.101307  0  3.129762  0  0  -0.100928  0  3.139079  0  0  -0.063045  -0.101536  0  3.12375  0
N  N39  1  0.93969341  0.90701445  0.80683389  1  0  -0.091982  0  2.847841  0  0  -0.101315  0  3.129711  0  0  -0.100938  0  3.139029  0  0  -0.063035  -0.101545  0  3.123699  0
N  N40  1  0.29622448  0.52692919  0.70422928  1  0  0.074035  0  3.549178  0  0  0.189731  0  3.736488  0  0  0.181525  0  3.755454  0  0  -0.110584  0.194881  0  3.723819  0
N  N41  1  0.20377554  0.97307012  0.20422876  1  0  0.074065  0  3.549188  0  0  0.189754  0  3.736509  0  0  0.181549  0  3.755474  0  0  -0.110596  0.194904  0  3.723839  0
N  N42  1  0.70377689  0.47307070  0.29577101  1  0  0.073963  0  3.549242  0  0  0.189702  0  3.736493  0  0  0.181498  0  3.755461  0  0  -0.110598  0.194853  0  3.723824  0
N  N43  1  0.79622381  0.02692977  0.79577080  1  0  0.074063  0  3.549164  0  0  0.189763  0  3.736473  0  0  0.181557  0  3.755436  0  0  -0.110582  0.194913  0  3.723803  0
O  O44  1  0.17729468  0.73565650  0.48377308  1  0  -0.657622  0  2.029312  0  0  -0.595496  0  2.28737  0  0  -0.624025  0  2.27545  0  0  -0.328028  -0.575163  0  2.294654  0
O  O45  1  0.32270567  0.76434398  0.98377287  1  0  -0.657634  0  2.02929  0  0  -0.595494  0  2.287353  0  0  -0.624024  0  2.275434  0  0  -0.328038  -0.575161  0  2.294635  0
O  O46  1  0.82270503  0.26434458  0.51622649  1  0  -0.657646  0  2.029284  0  0  -0.595503  0  2.287355  0  0  -0.624031  0  2.275434  0  0  -0.328034  -0.57517  0  2.294638  0
O  O47  1  0.67729368  0.23565591  0.01622670  1  0  -0.657635  0  2.0293  0  0  -0.595493  0  2.287367  0  0  -0.624023  0  2.275448  0  0  -0.328039  -0.57516  0  2.29465  0
O  O48  1  0.54339839  0.75643954  0.58386649  1  0  -0.608057  0  2.051369  0  0  -0.534693  0  2.316971  0  0  -0.567695  0  2.309167  0  0  -0.338892  -0.511553  0  2.321507  0
O  O49  1  0.95660086  0.74356093  0.08386670  1  0  -0.608048  0  2.051369  0  0  -0.534667  0  2.316958  0  0  -0.567669  0  2.309154  0  0  -0.338885  -0.511528  0  2.321494  0
O  O50  1  0.45660096  0.24356035  0.41613380  1  0  -0.608057  0  2.051373  0  0  -0.534678  0  2.316986  0  0  -0.56768  0  2.309182  0  0  -0.338885  -0.511538  0  2.321523  0
O  O51  1  0.04339850  0.25643896  0.91613359  1  0  -0.608061  0  2.051403  0  0  -0.534686  0  2.317017  0  0  -0.567689  0  2.309214  0  0  -0.338881  -0.511546  0  2.321552  0
