# generated using pymatgen
data_NiH20C25N2O7
_symmetry_space_group_name_H-M   'P 1'
_cell_length_a   9.85002407
_cell_length_b   9.74484343
_cell_length_c   14.43928741
_cell_angle_alpha   83.11787674
_cell_angle_beta   76.28078592
_cell_angle_gamma   59.63727043
_symmetry_Int_Tables_number   1
_chemical_formula_structural   NiH20C25N2O7
_chemical_formula_sum   'Ni2 H40 C50 N4 O14'
_cell_volume   1161.76625971
_cell_formula_units_Z   2
loop_
 _symmetry_equiv_pos_site_id
 _symmetry_equiv_pos_as_xyz
  1  'x, y, z'
loop_
 _atom_site_type_symbol
 _atom_site_label
 _atom_site_symmetry_multiplicity
 _atom_site_fract_x
 _atom_site_fract_y
 _atom_site_fract_z
 _atom_site_occupancy
 _atom_site_hle17_ddec_charge
 _atom_site_hle17_ddec_spin_density
 _atom_site_hle17_ddec_sum_bond_order
 _atom_site_hle17_magmom
 _atom_site_hse06_10hf_ddec_charge
 _atom_site_hse06_10hf_ddec_spin_density
 _atom_site_hse06_10hf_ddec_sum_bond_order
 _atom_site_hse06_10hf_magmom
 _atom_site_hse06_ddec_charge
 _atom_site_hse06_ddec_spin_density
 _atom_site_hse06_ddec_sum_bond_order
 _atom_site_hse06_magmom
 _atom_site_pbe_cm5_charge
 _atom_site_pbe_ddec_charge
 _atom_site_pbe_ddec_spin_density
 _atom_site_pbe_ddec_sum_bond_order
 _atom_site_pbe_magmom
Ni  Ni0  1  0.10568483  0.96946631  0.41559672  1  0.79468  0.004804  2.097314  0.005  0.802308  0.002593  2.491943  0.002  0.892467  -0.000378  2.415504  -0.001  0.636237  0.745768  0.00689  2.543275  0.007
Ni  Ni1  1  0.07532819  0.03071517  0.91564003  1  0.794502  0.004902  2.095567  0.005  0.801885  0.002502  2.490783  0.002  0.892679  -0.000405  2.413351  -0.001  0.635802  0.745372  0.006749  2.541873  0.006
H  H2  1  0.17749908  0.91018568  0.20872334  1  0.099674  -0.001261  0.923008  -0.002  0.107366  -0.001064  0.984787  -0.001  0.109448  -0.000827  0.982146  -0.001  0.127571  0.105957  -0.001273  0.9865  -0.001
H  H3  1  0.08752506  0.09006186  0.70878449  1  0.099928  -0.001264  0.922115  -0.002  0.107604  -0.001064  0.983825  -0.001  0.109679  -0.000827  0.981234  -0.001  0.127229  0.106167  -0.001273  0.985573  -0.001
H  H4  1  0.40253225  0.71884188  0.09167943  1  0.110741  -0.000279  0.956116  0.0  0.120945  -0.000327  1.015725  0.0  0.123489  -0.000229  1.015582  0.0  0.110968  0.118718  -0.00046  1.016506  0.0
H  H5  1  0.12127931  0.28132129  0.59167036  1  0.11082  -0.00028  0.95603  0.0  0.120959  -0.000327  1.015803  0.0  0.123458  -0.000229  1.015737  0.0  0.110927  0.118759  -0.00046  1.016505  0.0
H  H6  1  0.65263673  0.48981693  0.32399496  1  0.117525  -0.000235  0.950155  0.0  0.126515  -0.000279  1.009686  0.0  0.129887  -0.000209  1.008499  0.0  0.110692  0.12378  -0.000449  1.011145  0.0
H  H7  1  0.14234522  0.51048946  0.82391524  1  0.116454  -0.000235  0.951774  0.0  0.125545  -0.000278  1.01126  0.0  0.128909  -0.000208  1.010088  0.0  0.110615  0.122807  -0.000448  1.012707  0.0
H  H8  1  0.41871206  0.69734327  0.42961013  1  0.087559  -0.001057  0.938436  -0.001  0.094803  -0.000796  1.000043  -0.001  0.096884  -0.000636  0.998086  -0.001  0.121616  0.093087  -0.000989  1.001869  -0.001
H  H9  1  0.11597580  0.30306820  0.92955690  1  0.087201  -0.001061  0.939487  -0.001  0.094862  -0.000797  1.000569  -0.001  0.096825  -0.000637  0.998779  -0.001  0.121856  0.093168  -0.00099  1.002384  -0.001
H  H10  1  0.54428551  0.51569912  0.01789209  1  0.107129  0.000208  0.96319  0.0  0.116292  0.000315  1.026229  0.0  0.119142  0.000236  1.025532  0.0  0.109305  0.114016  0.000367  1.026974  0.0
H  H11  1  0.06007649  0.48428125  0.51776226  1  0.106667  0.000211  0.964535  0.0  0.116196  0.000317  1.027224  0.0  0.119133  0.000237  1.026422  0.0  0.109283  0.113884  0.000369  1.027942  0.0
H  H12  1  0.75920198  0.29193963  0.91444684  1  0.087838  0.000943  0.975502  0.001  0.09179  0.000895  1.045754  0.001  0.093078  0.000722  1.044707  0.001  0.116445  0.09056  0.000978  1.047133  0.001
H  H13  1  0.05120079  0.70805813  0.41431328  1  0.087697  0.00095  0.975509  0.001  0.091611  0.000898  1.045894  0.001  0.092993  0.000724  1.044724  0.001  0.116528  0.090314  0.000981  1.047363  0.001
H  H14  1  0.05507121  0.12930478  0.10972402  1  0.101116  0.000842  0.93423  0.001  0.106514  0.000802  1.0012  0.001  0.109699  0.000635  0.996768  0.001  0.124683  0.10431  0.000923  1.004101  0.001
H  H15  1  0.18401973  0.87093026  0.60965416  1  0.100395  0.000849  0.933799  0.001  0.105984  0.000804  1.000772  0.001  0.109207  0.000636  0.996269  0.001  0.124764  0.10374  0.000926  1.003723  0.001
H  H16  1  0.85616480  0.34673792  0.22214883  1  0.117365  0.000318  0.951421  0.0  0.128513  0.000537  1.008488  0.0  0.1318  0.000393  1.007633  0.0  0.112468  0.125802  0.000625  1.00962  0.0
H  H17  1  0.20254360  0.65355743  0.72212380  1  0.117373  0.000318  0.95205  0.0  0.128589  0.000535  1.008924  0.0  0.131885  0.000392  1.008041  0.0  0.112677  0.125856  0.000624  1.010117  0.0
H  H18  1  0.42458027  0.29623352  0.42074788  1  0.101524  -1.8e-05  0.944604  0.0  0.109708  -9e-06  1.00706  0.0  0.113192  -4e-06  1.005709  0.0  0.102939  0.107342  -1.3e-05  1.007787  0.0
H  H19  1  0.72123154  0.70353917  0.92081748  1  0.100712  -1.8e-05  0.946433  0.0  0.109606  -9e-06  1.008072  0.0  0.11306  -4e-06  1.006751  0.0  0.103106  0.107223  -1.3e-05  1.008811  0.0
H  H20  1  0.56602446  0.33885697  0.52706526  1  0.091356  2.1e-05  0.966161  0.0  0.101518  1.3e-05  1.026497  0.0  0.103986  3e-06  1.026144  0.0  0.101015  0.100208  -4e-06  1.026208  0.0
H  H21  1  0.90541338  0.66093520  0.02708899  1  0.091154  2.2e-05  0.967975  0.0  0.102008  1.3e-05  1.027376  0.0  0.104354  3e-06  1.027161  0.0  0.101019  0.100693  -4e-06  1.027092  0.0
H  H22  1  0.67829274  0.88373976  0.65810693  1  0.105556  3.3e-05  0.955275  0.0  0.112609  -1.4e-05  1.020649  0.0  0.116633  -7e-06  1.017185  0.0  0.106928  0.110032  -2.6e-05  1.022363  0.0
H  H23  1  0.56234946  0.11587702  0.15833689  1  0.105193  3.3e-05  0.953899  0.0  0.111935  -1.4e-05  1.019909  0.0  0.115988  -7e-06  1.016392  0.0  0.106806  0.109354  -2.6e-05  1.021652  0.0
H  H24  1  0.51189329  0.85407509  0.56179205  1  0.09998  2.4e-05  0.950246  0.0  0.110263  4.8e-05  1.010224  0.0  0.113697  2.7e-05  1.008527  0.0  0.103934  0.107476  4.5e-05  1.012022  0.0
H  H25  1  0.36630798  0.14555038  0.06199081  1  0.100351  2.5e-05  0.949649  0.0  0.110505  4.8e-05  1.009773  0.0  0.114023  2.7e-05  1.007962  0.0  0.104003  0.107675  4.4e-05  1.011612  0.0
H  H26  1  0.56980168  0.29807569  0.81798639  1  0.103166  1.9e-05  0.932198  0.0  0.115373  -1.2e-05  0.986754  0.0  0.118833  -1e-05  0.985159  0.0  0.107744  0.112775  -3e-06  0.98801  0.0
H  H27  1  0.86835623  0.70197934  0.31805079  1  0.10315  1.8e-05  0.932424  0.0  0.115384  -1.2e-05  0.986967  0.0  0.118853  -1e-05  0.98535  0.0  0.10778  0.112776  -4e-06  0.988246  0.0
H  H28  1  0.51773463  0.56823629  0.84795913  1  0.096404  1.4e-05  0.964118  0.0  0.106778  8.5e-05  1.02492  0.0  0.110097  6.3e-05  1.022805  0.0  0.102882  0.104163  0.000101  1.026867  0.0
H  H29  1  0.08645182  0.43164633  0.34791901  1  0.096103  1.5e-05  0.964228  0.0  0.106778  8.6e-05  1.024716  0.0  0.110069  6.3e-05  1.022685  0.0  0.102824  0.104188  0.000101  1.026573  0.0
H  H30  1  0.61849616  0.70885978  0.72258637  1  0.104821  -8e-06  0.980368  0.0  0.11453  1.4e-05  1.04118  0.0  0.117952  1.3e-05  1.038652  0.0  0.103578  0.111879  2e-06  1.043477  0.0
H  H31  1  0.32750839  0.29087652  0.22244225  1  0.105546  -8e-06  0.978887  0.0  0.115072  1.3e-05  1.039862  0.0  0.118516  1.3e-05  1.03732  0.0  0.103626  0.112357  2e-06  1.042222  0.0
H  H32  1  0.77294459  0.57876464  0.56217181  1  0.09311  4.6e-05  0.95949  0.0  0.10195  3.9e-05  1.024445  0.0  0.105043  2.9e-05  1.023018  0.0  0.101042  0.099872  4.2e-05  1.025443  0.0
H  H33  1  0.35178993  0.42080169  0.06197160  1  0.093565  4.5e-05  0.959486  0.0  0.102205  3.8e-05  1.024514  0.0  0.105297  2.9e-05  1.023082  0.0  0.101259  0.100128  4.2e-05  1.025493  0.0
H  H34  1  0.79973559  0.04931800  0.41404231  1  0.398357  -0.000175  0.876854  0.0  0.377239  -0.000182  0.94642  0.0  0.385565  -0.000149  0.936096  0.0  0.294893  0.371365  -0.000265  0.952557  0.0
H  H35  1  0.84918470  0.95071955  0.91403544  1  0.399572  -0.000175  0.873262  0.0  0.378208  -0.000179  0.943507  0.0  0.386536  -0.000147  0.934473  0.0  0.295008  0.37234  -0.000261  0.949653  0.0
H  H36  1  0.87367772  0.98019775  0.30923661  1  0.41361  0.000165  0.895515  0.0  0.385192  0.000173  0.956059  0.0  0.39741  0.000138  0.938308  0.0  0.285848  0.376741  0.000221  0.968376  0.0
H  H37  1  0.85372956  0.01988095  0.80926140  1  0.413809  0.000168  0.895085  0.0  0.385838  0.000175  0.955075  0.0  0.398034  0.000139  0.937327  0.0  0.285974  0.377382  0.000223  0.967404  0.0
H  H38  1  0.00726976  0.23593762  0.35433018  1  0.397948  -0.000365  0.91582  -0.001  0.368361  0.000106  0.986215  0.0  0.380461  -2.1e-05  0.969258  0.0  0.280834  0.359779  0.000202  0.998179  0.0
H  H39  1  0.24329905  0.76426940  0.85425348  1  0.397679  -0.000364  0.916051  -0.001  0.36777  0.000108  0.987067  0.0  0.379878  -1.9e-05  0.970123  0.0  0.280674  0.35918  0.000204  0.999044  0.0
H  H40  1  0.19759433  0.13220149  0.31669580  1  0.400164  -0.000248  0.910374  -0.001  0.370048  0.000241  0.983438  0.0  0.382273  7.6e-05  0.966496  0.0  0.2813  0.361548  0.000379  0.995117  0.0
H  H41  1  0.33007697  0.86788635  0.81677652  1  0.400409  -0.000245  0.911334  -0.001  0.370847  0.000239  0.982522  0.0  0.383053  7.5e-05  0.965599  0.0  0.281304  0.362335  0.000376  0.994218  0.0
C  C42  1  0.28487163  0.81431342  0.23097598  1  0.147604  0.007809  3.64417  0.007  0.12029  2.8e-05  3.899916  0.001  0.130698  0.001287  3.916851  0.002  0.058204  0.112177  -0.000916  3.890392  0.0
C  C43  1  0.09900264  0.18595921  0.73101128  1  0.145427  0.007823  3.645169  0.007  0.118534  1.8e-05  3.900587  0.001  0.128904  0.001281  3.91762  0.002  0.05755  0.110426  -0.000928  3.89101  0.0
C  C44  1  0.41243967  0.70471174  0.16605250  1  -0.141488  -0.01152  3.69098  -0.01  -0.162395  -0.003505  3.940803  -0.003  -0.170243  -0.003562  3.961972  -0.003  -0.075008  -0.15767  -0.00367  3.928023  -0.003
C  C45  1  0.11695682  0.29551684  0.66605291  1  -0.141134  -0.011569  3.690175  -0.01  -0.162129  -0.003513  3.940042  -0.003  -0.169957  -0.003569  3.961189  -0.003  -0.0743  -0.157387  -0.003677  3.927265  -0.003
C  C46  1  0.54843447  0.58046337  0.19687304  1  0.094422  0.009717  3.756505  0.008  0.106824  0.001931  3.985252  0.002  0.111908  0.00247  4.005703  0.002  0.013793  0.102508  0.001651  3.972075  0.001
C  C47  1  0.12872012  0.41977748  0.69683201  1  0.09489  0.009756  3.755109  0.008  0.107095  0.001934  3.984118  0.002  0.112178  0.002474  4.004576  0.002  0.012903  0.102741  0.001651  3.970979  0.001
C  C48  1  0.55090565  0.57966971  0.29390504  1  -0.154186  -0.010952  3.698207  -0.009  -0.168678  -0.003245  3.936094  -0.003  -0.176583  -0.003354  3.955484  -0.003  -0.077433  -0.163742  -0.00333  3.924528  -0.003
C  C49  1  0.13039218  0.42065718  0.79385677  1  -0.153277  -0.010989  3.699241  -0.009  -0.167821  -0.003248  3.937285  -0.003  -0.175708  -0.003356  3.956646  -0.003  -0.076969  -0.162872  -0.003332  3.925716  -0.003
C  C50  1  0.41971395  0.69443883  0.35430822  1  0.12283  0.008414  3.700131  0.008  0.09519  0.000519  3.953479  0.001  0.104976  0.001571  3.971404  0.002  0.046748  0.087817  -0.000245  3.943493  0.0
C  C51  1  0.11400062  0.30591645  0.85428470  1  0.122516  0.008434  3.703668  0.008  0.094611  0.000521  3.957451  0.001  0.104472  0.001575  3.975445  0.002  0.046386  0.087179  -0.000246  3.947456  0.0
C  C52  1  0.67819862  0.45321509  0.13135328  1  0.09647  -0.007853  3.757109  -0.007  0.106159  -0.001874  3.988714  -0.002  0.111088  -0.002341  4.009142  -0.002  0.013053  0.102164  -0.001568  3.975094  -0.001
C  C53  1  0.13129965  0.54695025  0.63126837  1  0.096299  -0.00791  3.758937  -0.007  0.106415  -0.001882  3.989795  -0.002  0.111342  -0.002347  4.010244  -0.002  0.012748  0.102438  -0.001578  3.976142  -0.001
C  C54  1  0.65549406  0.43508869  0.04208512  1  -0.160294  0.009574  3.718647  0.008  -0.178127  0.003269  3.966669  0.003  -0.18635  0.003361  3.987833  0.003  -0.081502  -0.172069  0.003488  3.951539  0.003
C  C55  1  0.09063104  0.56491452  0.54196160  1  -0.160051  0.009632  3.720392  0.008  -0.178379  0.003276  3.967886  0.003  -0.186658  0.003366  3.989018  0.003  -0.081111  -0.172265  0.003495  3.952775  0.003
C  C56  1  0.77455229  0.31001457  0.98325529  1  0.12004  -0.00603  3.699182  -0.006  0.091263  -0.000172  3.955221  -0.001  0.100119  -0.001218  3.974635  -0.002  0.045158  0.084564  0.000586  3.942801  0.0
C  C57  1  0.08456105  0.68998651  0.48314298  1  0.119455  -0.006088  3.700122  -0.006  0.0907  -0.000177  3.956053  -0.001  0.099501  -0.001225  3.975489  -0.002  0.044568  0.084027  0.000582  3.943605  0.0
C  C58  1  0.93960825  0.21776186  0.09291137  1  0.145576  -0.006665  3.648016  -0.006  0.112733  -0.000428  3.911643  -0.001  0.124174  -0.001509  3.925899  -0.002  0.057437  0.103938  0.000489  3.903473  0.0
C  C59  1  0.15708366  0.78242881  0.59286069  1  0.146872  -0.006706  3.647109  -0.006  0.11371  -0.000424  3.910831  -0.001  0.125143  -0.001507  3.925091  -0.002  0.057556  0.104936  0.000493  3.902614  0.0
C  C60  1  0.82609966  0.34134741  0.15530950  1  -0.143692  0.010032  3.663666  0.009  -0.161697  0.003381  3.907906  0.003  -0.169049  0.00348  3.926053  0.003  -0.074877  -0.157292  0.003443  3.896874  0.003
C  C61  1  0.16718225  0.65887781  0.65526356  1  -0.143382  0.010092  3.664895  0.009  -0.161382  0.00339  3.908645  0.003  -0.168744  0.003487  3.92682  0.003  -0.074388  -0.156983  0.003453  3.897584  0.003
C  C62  1  0.35696644  0.05811831  0.42979752  1  0.626488  0.000167  3.93074  0.0  0.582328  0.000287  4.231841  0.0  0.617592  0.000263  4.223892  0.0  0.200742  0.558208  0.000437  4.236355  0.0
C  C63  1  0.41546158  0.94180515  0.92986686  1  0.628251  0.000144  3.928231  0.0  0.583684  0.00029  4.229918  0.0  0.61899  0.000264  4.22191  0.0  0.201448  0.559537  0.000439  4.234509  0.0
C  C64  1  0.46175460  0.07182589  0.48451239  1  -0.029658  -0.000367  3.738843  0.0  -0.009937  -0.001086  3.970117  -0.001  -0.013848  -0.000493  3.989826  0.0  -0.008275  -0.008133  -0.001632  3.957474  -0.001
C  C65  1  0.53400327  0.92790537  0.98460170  1  -0.028492  -0.000276  3.73444  0.0  -0.008356  -0.001057  3.965565  -0.001  -0.012311  -0.000485  3.985283  0.0  -0.007408  -0.006524  -0.001594  3.952901  -0.001
C  C66  1  0.47931649  0.20725330  0.47359551  1  -0.093585  0.00061  3.75638  0.0  -0.114778  0.000257  4.0066  0.0  -0.116663  0.000105  4.025919  0.0  -0.087452  -0.113097  0.00048  3.993115  0.0
C  C67  1  0.68700768  0.79248861  0.97366447  1  -0.09489  0.0006  3.757523  0.0  -0.11689  0.000259  4.008073  0.0  -0.118741  0.000113  4.027375  0.0  -0.089475  -0.115186  0.000479  3.994582  0.0
C  C68  1  0.56076479  0.22910874  0.53201428  1  -0.095018  0.000463  3.759416  0.0  -0.115728  0.00031  4.008144  0.0  -0.116322  0.000298  4.028689  0.0  -0.087842  -0.115858  -0.000149  3.994094  0.0
C  C69  1  0.79035007  0.77063292  0.03205055  1  -0.092966  0.000475  3.760247  0.0  -0.114134  0.00031  4.008679  0.0  -0.114625  0.000291  4.029291  0.0  -0.086542  -0.114288  -0.000143  3.994604  0.0
C  C70  1  0.63590812  0.11001782  0.59717556  1  -0.033736  0.000734  3.755788  0.001  -0.017255  0.000117  3.990952  0.0  -0.02379  8.2e-05  4.013998  0.0  -0.017735  -0.012575  0.000354  3.975109  0.0
C  C71  1  0.74638197  0.88972307  0.09721594  1  -0.036063  0.000715  3.759584  0.001  -0.01949  0.000116  3.995103  0.0  -0.02603  8.5e-05  4.018194  0.0  -0.018007  -0.014753  0.00035  3.979103  0.0
C  C72  1  0.62152963  0.97258929  0.60586324  1  -0.055078  -0.001463  3.699242  -0.001  -0.081886  -0.001073  3.952564  -0.001  -0.081089  -0.000478  3.971302  0.0  -0.076126  -0.08163  -0.000813  3.937798  -0.001
C  C73  1  0.59448894  0.02710373  0.10600820  1  -0.051591  -0.001434  3.697078  -0.001  -0.078039  -0.001057  3.950185  -0.001  -0.077271  -0.000477  3.969015  0.0  -0.075464  -0.077806  -0.000799  3.935364  -0.001
C  C74  1  0.53147326  0.95584000  0.55192134  1  -0.076643  0.000728  3.727497  0.001  -0.096536  0.000236  3.972021  0.0  -0.098461  8.8e-05  3.991502  0.0  -0.082192  -0.095243  0.000449  3.959008  0.0
C  C75  1  0.48769490  0.04383101  0.05206660  1  -0.07969  0.000706  3.726702  0.001  -0.099586  0.000232  3.971558  0.0  -0.101585  9.2e-05  3.991051  0.0  -0.083019  -0.098233  0.000443  3.95855  0.0
C  C76  1  0.72686328  0.12466117  0.66028775  1  0.432056  -0.001519  3.683526  -0.001  0.404686  -0.001607  3.951243  -0.001  0.430863  -0.000513  3.948745  0.0  0.174753  0.386089  -0.002105  3.953649  -0.001
C  C77  1  0.85198217  0.87524864  0.16029489  1  0.429955  -0.001502  3.688038  -0.001  0.401776  -0.001587  3.957023  -0.001  0.427874  -0.000509  3.954719  0.0  0.174143  0.383305  -0.002082  3.959115  -0.001
C  C78  1  0.70432003  0.28522207  0.67444673  1  -0.037755  0.00149  3.746533  0.001  -0.02815  0.000327  3.981139  0.0  -0.031499  0.000312  4.003262  0.0  -0.010711  -0.026083  0.000163  3.965902  0.0
C  C79  1  0.98995077  0.71466012  0.17443001  1  -0.036375  0.001484  3.747153  0.001  -0.02662  0.000328  3.981989  0.0  -0.029981  0.000316  4.004132  0.0  -0.010374  -0.024577  0.000164  3.966733  0.0
C  C80  1  0.61602202  0.35942374  0.76269242  1  -0.090783  -0.001117  3.72308  -0.001  -0.110872  -0.000282  3.972028  0.0  -0.113689  -0.000195  3.992713  0.0  -0.084054  -0.108319  -0.000136  3.956957  0.0
C  C81  1  0.97585306  0.64051136  0.26269073  1  -0.091088  -0.001111  3.723084  -0.001  -0.111277  -0.00028  3.97207  0.0  -0.114078  -0.000198  3.992761  0.0  -0.08384  -0.108744  -0.000134  3.957043  0.0
C  C82  1  0.58690468  0.51100604  0.77931226  1  -0.045574  0.001848  3.73775  0.001  -0.061107  0.000752  3.988099  0.0  -0.060776  0.000631  4.0068  0.0  -0.084179  -0.061171  0.000622  3.975548  0.0
C  C83  1  0.09825474  0.48884871  0.27925421  1  -0.045692  0.001842  3.73796  0.001  -0.061464  0.000752  3.988538  0.0  -0.061108  0.000635  4.00717  0.0  -0.084931  -0.061527  0.000622  3.97596  0.0
C  C84  1  0.64289203  0.59081653  0.70765132  1  -0.070434  -0.00167  3.747549  -0.001  -0.084642  -0.000481  3.996031  -0.001  -0.086527  -0.000321  4.015903  0.0  -0.090169  -0.083459  -0.000124  3.982809  0.0
C  C85  1  0.23390704  0.40896754  0.20751299  1  -0.071196  -0.001667  3.744509  -0.001  -0.085233  -0.000482  3.9929  -0.001  -0.087159  -0.000327  4.012791  0.0  -0.089706  -0.083983  -0.000121  3.97968  0.0
C  C86  1  0.72853240  0.51855351  0.61927387  1  -0.079125  0.000618  3.762461  0.0  -0.103865  -0.00033  4.015008  0.0  -0.104674  -0.000163  4.036322  0.0  -0.088197  -0.103025  -0.000551  4.000075  -0.001
C  C87  1  0.24725039  0.48116355  0.11910632  1  -0.078403  0.000615  3.763121  0.0  -0.102786  -0.000328  4.015415  0.0  -0.103588  -0.000157  4.036735  0.0  -0.088502  -0.10194  -0.00055  4.000446  -0.001
C  C88  1  0.76186401  0.36502057  0.60237954  1  -0.097802  -0.006806  3.770003  -0.006  -0.08237  -0.00351  4.004013  -0.003  -0.089499  -0.002647  4.026269  -0.002  -0.020278  -0.077628  -0.004158  3.988907  -0.004
C  C89  1  0.12714367  0.63479142  0.10229254  1  -0.098467  -0.00681  3.772589  -0.006  -0.083249  -0.003505  4.006764  -0.003  -0.090335  -0.002648  4.028967  -0.002  -0.019938  -0.078507  -0.004149  3.991646  -0.004
C  C90  1  0.86577283  0.28243118  0.51006260  1  0.623399  0.000493  3.919588  0.002  0.577829  -0.001613  4.221119  -0.001  0.614101  -0.00109  4.214758  0.0  0.204278  0.552499  -0.002292  4.225303  -0.001
C  C91  1  0.14840046  0.71746678  0.00996892  1  0.622833  0.000485  3.919309  0.002  0.577144  -0.001615  4.220871  -0.001  0.6134  -0.001092  4.214569  0.0  0.20347  0.551818  -0.002291  4.22504  -0.001
N  N92  1  0.28660613  0.80855802  0.32429119  1  -0.272  -0.073084  3.339329  -0.072  -0.2289  -0.045513  3.626313  -0.044  -0.260115  -0.038701  3.647597  -0.038  -0.328995  -0.209474  -0.051379  3.614075  -0.05
N  N93  1  0.09503656  0.19176267  0.82431983  1  -0.26963  -0.073339  3.341245  -0.073  -0.226855  -0.045543  3.62855  -0.045  -0.258217  -0.038723  3.649882  -0.038  -0.327837  -0.207355  -0.051413  3.616202  -0.05
N  N94  1  0.91426594  0.20136377  0.00825786  1  -0.26024  0.056914  3.325184  0.056  -0.21853  0.041526  3.613999  0.041  -0.249602  0.036198  3.635369  0.036  -0.327962  -0.198122  0.045102  3.600726  0.044
N  N95  1  0.11542818  0.79872949  0.50819914  1  -0.26053  0.057444  3.325851  0.056  -0.218599  0.0417  3.614208  0.041  -0.249651  0.036336  3.635798  0.036  -0.328365  -0.198106  0.045306  3.600748  0.044
O  O96  1  0.27793166  0.99115534  0.47506684  1  -0.617668  0.012689  2.049341  0.014  -0.593637  0.001781  2.315717  0.002  -0.628753  0.000691  2.306574  0.001  -0.312463  -0.567406  0.001993  2.32051  0.002
O  O97  1  0.26939622  0.00913487  0.97502015  1  -0.619145  0.013415  2.048897  0.015  -0.595077  0.001958  2.315705  0.002  -0.630268  0.000832  2.306406  0.001  -0.313354  -0.568879  0.002233  2.3206  0.002
O  O98  1  0.35085309  0.11699563  0.34660760  1  -0.615595  -0.001296  1.95915  -0.001  -0.566978  -0.000886  2.178609  -0.001  -0.59199  -0.000578  2.169287  -0.001  -0.321085  -0.549627  -0.000877  2.184782  -0.001
O  O99  1  0.46824252  0.88277826  0.84670879  1  -0.615279  -0.001291  1.959577  -0.001  -0.566851  -0.000884  2.179014  -0.001  -0.591875  -0.000578  2.169695  -0.001  -0.32069  -0.549498  -0.000878  2.185193  -0.001
O  O100  1  0.80332167  0.00969287  0.70990534  1  -0.470665  -0.001691  1.988856  -0.002  -0.420217  -0.00194  2.194887  -0.002  -0.438696  -0.001044  2.187356  -0.001  -0.24915  -0.408257  -0.001644  2.200858  -0.002
O  O101  1  0.81352140  0.99026353  0.20981668  1  -0.469215  -0.001673  1.991488  -0.002  -0.418133  -0.001912  2.197543  -0.002  -0.436587  -0.001025  2.190085  -0.001  -0.248847  -0.406212  -0.001629  2.203427  -0.002
O  O102  1  0.93089953  0.13006396  0.51356578  1  -0.586704  -0.055388  2.130345  -0.058  -0.552522  -0.03449  2.400431  -0.036  -0.59591  -0.028465  2.397534  -0.03  -0.29855  -0.521285  -0.040938  2.401628  -0.043
O  O103  1  0.06140374  0.86987223  0.01357456  1  -0.586197  -0.055465  2.12943  -0.058  -0.551531  -0.034435  2.399109  -0.036  -0.595007  -0.028411  2.396155  -0.03  -0.297859  -0.520327  -0.040858  2.400354  -0.043
O  O104  1  0.88302080  0.36422855  0.43787882  1  -0.616337  0.000158  1.937939  0.0  -0.567038  -9.4e-05  2.15569  0.0  -0.590737  0.000147  2.145015  0.0  -0.323618  -0.550466  -0.000373  2.163312  0.0
O  O105  1  0.24715398  0.63571735  0.93768914  1  -0.616541  0.00017  1.937763  0.0  -0.567032  -9.1e-05  2.155602  0.0  -0.590749  0.00015  2.144917  0.0  -0.323296  -0.550441  -0.000366  2.163231  0.0
O  O106  1  0.89661984  0.96835359  0.37440368  1  -0.809313  0.009019  1.919224  0.009  -0.77712  0.004687  2.115952  0.005  -0.79987  0.003483  2.083932  0.004  -0.575589  -0.760658  0.005982  2.136912  0.006
O  O107  1  0.86497885  0.03173846  0.87438739  1  -0.811078  0.009258  1.914537  0.009  -0.779136  0.004772  2.111003  0.005  -0.801883  0.003555  2.080202  0.004  -0.576164  -0.762741  0.006081  2.132008  0.006
O  O108  1  0.09169727  0.13777868  0.31530168  1  -0.784867  0.051676  1.960973  0.052  -0.762957  0.039353  2.17992  0.04  -0.80192  0.032173  2.149535  0.033  -0.573554  -0.732901  0.044147  2.199241  0.044
O  O109  1  0.22965777  0.86248863  0.81535330  1  -0.784675  0.051313  1.962488  0.052  -0.763012  0.039261  2.18038  0.04  -0.802018  0.032105  2.149774  0.033  -0.573546  -0.732922  0.044035  2.199694  0.044
