# generated using pymatgen
data_Cd3P2H48C72(N3O7)2
_symmetry_space_group_name_H-M   'P 1'
_cell_length_a   11.76368076
_cell_length_b   15.22664009
_cell_length_c   19.42093369
_cell_angle_alpha   94.55835622
_cell_angle_beta   90.00010398
_cell_angle_gamma   90.00005882
_symmetry_Int_Tables_number   1
_chemical_formula_structural   Cd3P2H48C72(N3O7)2
_chemical_formula_sum   'Cd6 P4 H96 C144 N12 O28'
_cell_volume   3467.70006148
_cell_formula_units_Z   2
loop_
 _symmetry_equiv_pos_site_id
 _symmetry_equiv_pos_as_xyz
  1  'x, y, z'
loop_
 _atom_site_type_symbol
 _atom_site_label
 _atom_site_symmetry_multiplicity
 _atom_site_fract_x
 _atom_site_fract_y
 _atom_site_fract_z
 _atom_site_occupancy
 _atom_site_pbe_bader_charge
 _atom_site_pbe_bader_spin_density
 _atom_site_pbe_cm5_charge
 _atom_site_pbe_ddec_charge
 _atom_site_pbe_ddec_spin_density
 _atom_site_pbe_ddec_sum_bond_order
 _atom_site_pbe_magmom
Cd  Cd0  1  0.93827787  0.72294636  0.88520135  1  1.27396  0  0.766043  0.874065  0  2.200777  0
Cd  Cd1  1  0.43827838  0.77705331  0.61479891  1  1.273951  0  0.766042  0.874057  0  2.200789  0
Cd  Cd2  1  0.06172168  0.27705149  0.11479737  1  1.273949  0  0.766024  0.874041  0  2.200796  0
Cd  Cd3  1  0.56172287  0.22294848  0.38520264  1  1.273944  0  0.766017  0.874023  0  2.200798  0
Cd  Cd4  1  0.99999994  0.00000046  0.00000057  1  1.322266  0  0.808193  0.978927  0  2.243905  0
Cd  Cd5  1  0.50000105  0.49999925  0.49999990  1  1.322194  0  0.808178  0.97888  0  2.243935  0
P  P6  1  0.01987755  0.20502016  0.65378118  1  2.795078  0  0.240261  0.796425  0  4.917683  0
P  P7  1  0.51987702  0.29497957  0.84621956  1  2.795191  0  0.240221  0.79635  0  4.917856  0
P  P8  1  0.98012200  0.79497965  0.34621972  1  2.795175  0  0.240208  0.796417  0  4.917597  0
P  P9  1  0.48012169  0.70502025  0.15378083  1  2.795078  0  0.240225  0.79644  0  4.917628  0
H  H10  1  0.89591889  0.35668879  0.62003342  1  0.112152  0  0.098341  0.099226  0  1.031396  0
H  H11  1  0.39591407  0.14330998  0.87996716  1  0.112165  0  0.098369  0.099302  0  1.031401  0
H  H12  1  0.10408152  0.64330841  0.37996525  1  0.112131  0  0.098316  0.09922  0  1.031536  0
H  H13  1  0.60408379  0.85669050  0.12003379  1  0.112202  0  0.098321  0.09921  0  1.031488  0
H  H14  1  0.86536997  0.50518384  0.68378979  1  0.083985  0  0.100642  0.101665  0  1.016587  0
H  H15  1  0.36536713  0.99481578  0.81620936  1  0.084045  0  0.100633  0.101643  0  1.016558  0
H  H16  1  0.13462959  0.49481468  0.31620794  1  0.084157  0  0.100622  0.101615  0  1.01665  0
H  H17  1  0.63463158  0.00518470  0.18379056  1  0.084029  0  0.100627  0.101639  0  1.016563  0
H  H18  1  0.01613598  0.41174233  0.86530483  1  0.134545  0  0.108269  0.116053  0  0.999883  0
H  H19  1  0.51613539  0.08825805  0.63469596  1  0.134344  0  0.108241  0.116046  0  0.999914  0
H  H20  1  0.98386187  0.58825815  0.13469458  1  0.134995  0  0.10825  0.116023  0  0.999998  0
H  H21  1  0.48386417  0.91174242  0.36530448  1  0.134328  0  0.108249  0.116054  0  0.999933  0
H  H22  1  0.05086557  0.26501888  0.80233966  1  0.067256  0  0.102084  0.101196  0  1.017328  0
H  H23  1  0.55086451  0.23498088  0.69766164  1  0.067155  0  0.102103  0.101219  0  1.017285  0
H  H24  1  0.94913314  0.73498028  0.19766018  1  0.067251  0  0.102091  0.101182  0  1.01732  0
H  H25  1  0.44913590  0.76502026  0.30233884  1  0.067292  0  0.102099  0.101216  0  1.017323  0
H  H26  1  0.17217609  0.13976753  0.76259901  1  0.094517  0  0.103073  0.101328  0  1.011341  0
H  H27  1  0.67217532  0.36023103  0.73740028  1  0.094254  0  0.10306  0.101326  0  1.011327  0
H  H28  1  0.82782601  0.86023163  0.23740134  1  0.094288  0  0.103083  0.101353  0  1.011292  0
H  H29  1  0.32782509  0.63976879  0.26260011  1  0.09428  0  0.103061  0.101328  0  1.011336  0
H  H30  1  0.14141196  0.02208462  0.84250856  1  0.095988  0  0.10501  0.108218  0  1.004232  0
H  H31  1  0.64141025  0.47791392  0.65749018  1  0.095957  0  0.105004  0.108214  0  1.004254  0
H  H32  1  0.85859015  0.97791520  0.15749184  1  0.095997  0  0.104994  0.108209  0  1.004295  0
H  H33  1  0.35859101  0.52208590  0.34250969  1  0.095974  0  0.104986  0.108205  0  1.004252  0
H  H34  1  0.83053261  0.94701636  0.73720514  1  0.060023  0  0.103098  0.105611  0  1.00921  0
H  H35  1  0.33053497  0.55298453  0.76279663  1  0.060011  0  0.1031  0.105651  0  1.00914  0
H  H36  1  0.16946780  0.05298411  0.26279684  1  0.059951  0  0.103114  0.105637  0  1.009133  0
H  H37  1  0.66946544  0.44701529  0.23720376  1  0.059996  0  0.103088  0.105622  0  1.009151  0
H  H38  1  0.85289396  0.07276579  0.66215188  1  0.102282  0  0.106312  0.109189  0  0.9966  0
H  H39  1  0.35289705  0.42723490  0.83784929  1  0.102302  0  0.106314  0.109197  0  0.996615  0
H  H40  1  0.14710559  0.92723468  0.33785061  1  0.102241  0  0.106318  0.109205  0  0.996582  0
H  H41  1  0.64710336  0.57276491  0.16215110  1  0.1023  0  0.106339  0.109235  0  0.996603  0
H  H42  1  0.19097263  0.09401063  0.58327573  1  0.095256  0  0.106553  0.106231  0  0.984817  0
H  H43  1  0.69097246  0.40598926  0.91672521  1  0.095251  0  0.106549  0.106241  0  0.984799  0
H  H44  1  0.80902607  0.90599117  0.41672427  1  0.095366  0  0.106565  0.106283  0  0.984826  0
H  H45  1  0.30902540  0.59400990  0.08327463  1  0.095249  0  0.106565  0.106267  0  0.984822  0
H  H46  1  0.38079497  0.12851423  0.53514064  1  0.107797  0  0.10933  0.112972  0  1.005816  0
H  H47  1  0.88079575  0.37148584  0.96485950  1  0.107874  0  0.109327  0.112977  0  1.005823  0
H  H48  1  0.61920458  0.87148625  0.46485980  1  0.107772  0  0.109331  0.112976  0  1.005842  0
H  H49  1  0.11920296  0.62851399  0.03513987  1  0.107848  0  0.109319  0.112979  0  1.005781  0
H  H50  1  0.36508763  0.38953377  0.63504301  1  0.114488  0  0.098327  0.097838  0  1.044265  0
H  H51  1  0.86508691  0.11046695  0.86495612  1  0.114487  0  0.098337  0.097834  0  1.044273  0
H  H52  1  0.63491278  0.61046737  0.36495696  1  0.114512  0  0.098344  0.097878  0  1.044237  0
H  H53  1  0.13491180  0.88953287  0.13504376  1  0.114504  0  0.098342  0.097846  0  1.044285  0
H  H54  1  0.17627858  0.35705582  0.68458009  1  0.081553  0  0.099207  0.100489  0  1.026589  0
H  H55  1  0.67627775  0.14294406  0.81541980  1  0.081567  0  0.099192  0.100472  0  1.026575  0
H  H56  1  0.82372183  0.64294531  0.31542038  1  0.081581  0  0.099224  0.10052  0  1.02655  0
H  H57  1  0.32372180  0.85705510  0.18458055  1  0.081568  0  0.099205  0.100511  0  1.026544  0
H  H58  1  0.72348721  0.66789993  0.98260375  1  0.122994  0  0.1255  0.105945  0  0.962594  0
H  H59  1  0.22348666  0.83210020  0.51739682  1  0.123018  0  0.125499  0.105954  0  0.962584  0
H  H60  1  0.27651234  0.33209989  0.01739665  1  0.123001  0  0.125497  0.105955  0  0.96259  0
H  H61  1  0.77651375  0.16790028  0.48260310  1  0.122997  0  0.125514  0.105987  0  0.962564  0
H  H62  1  0.51471921  0.65451210  0.97611058  1  0.137616  0  0.108134  0.129594  0  1.029195  0
H  H63  1  0.01471953  0.84548784  0.52388975  1  0.137605  0  0.108129  0.129573  0  1.029159  0
H  H64  1  0.48528035  0.34548772  0.02388981  1  0.137633  0  0.108129  0.129588  0  1.029157  0
H  H65  1  0.98528172  0.15451198  0.47611064  1  0.137773  0  0.108127  0.129573  0  1.029117  0
H  H66  1  0.52812552  0.78503121  0.78543629  1  0.148418  0  0.111352  0.132198  0  1.029328  0
H  H67  1  0.02812540  0.71496809  0.71456401  1  0.148356  0  0.111355  0.132202  0  1.029327  0
H  H68  1  0.47187488  0.21496927  0.21456414  1  0.148411  0  0.111345  0.132191  0  1.02931  0
H  H69  1  0.97187500  0.28503173  0.28543587  1  0.148346  0  0.111345  0.132178  0  1.02936  0
H  H70  1  0.73887762  0.79429677  0.80199932  1  0.134272  0  0.114425  0.092793  0  1.026911  0
H  H71  1  0.23887828  0.70570272  0.69800123  1  0.1343  0  0.114414  0.092765  0  1.02695  0
H  H72  1  0.26112194  0.20570305  0.19800108  1  0.134297  0  0.114435  0.092814  0  1.02691  0
H  H73  1  0.76112212  0.29429710  0.30199865  1  0.134301  0  0.114416  0.092777  0  1.026939  0
H  H74  1  0.36174909  0.82641977  0.81260571  1  0.165978  0  0.110261  0.133941  0  1.052024  0
H  H75  1  0.86174962  0.67357852  0.68739386  1  0.166056  0  0.110248  0.133925  0  1.052033  0
H  H76  1  0.63825046  0.17357939  0.18739361  1  0.166067  0  0.110253  0.133943  0  1.052005  0
H  H77  1  0.13825078  0.32642065  0.31260546  1  0.166051  0  0.110256  0.133931  0  1.052037  0
H  H78  1  0.15253736  0.82258617  0.81218082  1  0.091392  0  0.115627  0.085439  0  1.013745  0
H  H79  1  0.65253789  0.67741259  0.68781855  1  0.091361  0  0.115622  0.085438  0  1.013729  0
H  H80  1  0.84746219  0.17741299  0.18781850  1  0.091369  0  0.115624  0.085436  0  1.01374  0
H  H81  1  0.34746251  0.32258724  0.31218133  1  0.091363  0  0.11562  0.085428  0  1.013734  0
H  H82  1  0.14251075  0.59707355  0.91732298  1  0.150624  0  0.121837  0.099512  0  0.99454  0
H  H83  1  0.64251041  0.90292651  0.58267698  1  0.150633  0  0.12189  0.099583  0  0.994504  0
H  H84  1  0.85748966  0.40292561  0.08267686  1  0.150632  0  0.121885  0.099574  0  0.99452  0
H  H85  1  0.35748914  0.09707331  0.41732238  1  0.150623  0  0.121853  0.099508  0  0.994524  0
H  H86  1  0.35488221  0.59243832  0.92583121  1  0.09375  0  0.113165  0.121453  0  0.991118  0
H  H87  1  0.85488271  0.90756062  0.57416942  1  0.093765  0  0.113184  0.121469  0  0.991116  0
H  H88  1  0.64511734  0.40756085  0.07416862  1  0.093772  0  0.113173  0.121451  0  0.991137  0
H  H89  1  0.14511685  0.09243920  0.42583149  1  0.093753  0  0.113173  0.121457  0  0.991143  0
H  H90  1  0.79744890  0.86766813  0.98696316  1  0.152295  0  0.117376  0.088016  0  1.035066  0
H  H91  1  0.29744976  0.63233208  0.51303595  1  0.152269  0  0.117405  0.088079  0  1.035111  0
H  H92  1  0.20255151  0.13233169  0.01303723  1  0.152312  0  0.117364  0.088028  0  1.035075  0
H  H93  1  0.70255149  0.36766774  0.48696290  1  0.152303  0  0.117366  0.088023  0  1.035075  0
H  H94  1  0.58759790  0.85831312  0.98423410  1  0.088535  0  0.107537  0.1106  0  1.042636  0
H  H95  1  0.08759879  0.64168821  0.51576434  1  0.088521  0  0.107518  0.110582  0  1.042667  0
H  H96  1  0.41240335  0.14168735  0.01576633  1  0.088534  0  0.107532  0.110617  0  1.04262  0
H  H97  1  0.91240247  0.35831293  0.48423408  1  0.088536  0  0.107545  0.110614  0  1.042644  0
H  H98  1  0.58134368  0.14357743  0.01769146  1  0.070084  0  0.110019  0.118925  0  1.019375  0
H  H99  1  0.08134370  0.35642387  0.48230814  1  0.069992  0  0.110007  0.118914  0  1.019385  0
H  H100  1  0.41865843  0.85642239  0.98230893  1  0.070075  0  0.109999  0.11891  0  1.019373  0
H  H101  1  0.91865755  0.64357793  0.51768981  1  0.070073  0  0.110009  0.118931  0  1.019351  0
H  H102  1  0.79055201  0.13943573  0.01941551  1  0.107441  0  0.118665  0.091112  0  1.007043  0
H  H103  1  0.29055118  0.36056445  0.48058374  1  0.107415  0  0.118656  0.091103  0  1.00705  0
H  H104  1  0.20944925  0.86056343  0.98058433  1  0.10741  0  0.118667  0.09112  0  1.007  0
H  H105  1  0.70944923  0.63943603  0.51941618  1  0.107407  0  0.118667  0.091125  0  1.007022  0
C  C106  1  0.97745469  0.30264446  0.70664189  1  -0.61471  0  -0.026972  -0.140964  0  4.00462  0
C  C107  1  0.47745308  0.19735570  0.79335887  1  -0.614896  0  -0.026879  -0.140796  0  4.004536  0
C  C108  1  0.02254317  0.69735471  0.29335691  1  -0.614627  0  -0.026923  -0.140907  0  4.004567  0
C  C109  1  0.52254563  0.80264610  0.20664165  1  -0.614708  0  -0.026918  -0.140928  0  4.004595  0
C  C110  1  0.92251269  0.36957657  0.67367163  1  -0.101926  0  -0.085199  -0.082124  0  3.990095  0
C  C111  1  0.42250940  0.13042287  0.82632851  1  -0.101913  0  -0.085258  -0.082308  0  3.990165  0
C  C112  1  0.07748601  0.63042062  0.32632653  1  -0.101801  0  -0.085177  -0.082138  0  3.990252  0
C  C113  1  0.57748931  0.86957892  0.17367253  1  -0.102112  0  -0.085217  -0.082168  0  3.9902  0
C  C114  1  0.90500638  0.45161565  0.70912286  1  -0.020159  0  -0.08556  -0.096612  0  3.971271  0
C  C115  1  0.40500286  0.04838445  0.79087679  1  -0.020273  0  -0.085507  -0.096494  0  3.971178  0
C  C116  1  0.09499148  0.54838287  0.29087487  1  -0.021019  0  -0.08555  -0.096586  0  3.971347  0
C  C117  1  0.59499584  0.95161735  0.20912322  1  -0.020049  0  -0.085535  -0.096545  0  3.971215  0
C  C118  1  0.94056424  0.46708202  0.77790199  1  -0.026645  0  -0.012726  -0.012488  0  3.95381  0
C  C119  1  0.44056135  0.03291744  0.72209869  1  -0.02666  0  -0.012737  -0.012457  0  3.953885  0
C  C120  1  0.05943532  0.53291584  0.22209467  1  -0.026618  0  -0.012679  -0.012357  0  3.953891  0
C  C121  1  0.55943821  0.96708369  0.27790282  1  -0.026669  0  -0.012722  -0.012504  0  3.953923  0
C  C122  1  0.99098214  0.39894626  0.81146719  1  -0.049297  0  -0.080282  -0.090059  0  3.956949  0
C  C123  1  0.49097924  0.10105391  0.68853359  1  -0.04903  0  -0.080289  -0.090125  0  3.957015  0
C  C124  1  0.00901487  0.60105357  0.18853166  1  -0.049192  0  -0.08034  -0.090195  0  3.957064  0
C  C125  1  0.50901947  0.89894723  0.31146638  1  -0.049054  0  -0.080281  -0.090117  0  3.957093  0
C  C126  1  0.00996340  0.31719272  0.77602221  1  -0.025351  0  -0.082422  -0.079108  0  3.997058  0
C  C127  1  0.50996150  0.18280700  0.72397956  1  -0.025192  0  -0.082499  -0.079185  0  3.997016  0
C  C128  1  0.99003446  0.68280579  0.22397758  1  -0.025343  0  -0.082408  -0.079009  0  3.99701  0
C  C129  1  0.49003721  0.81719413  0.27602195  1  -0.025345  0  -0.082406  -0.079034  0  3.996986  0
C  C130  1  0.92981517  0.55702370  0.81495136  1  1.543721  0  0.185062  0.547669  0  4.254979  0
C  C131  1  0.42981526  0.94297597  0.68504837  1  1.543728  0  0.185066  0.54764  0  4.254935  0
C  C132  1  0.07018269  0.44297482  0.18504534  1  1.543108  0  0.185096  0.547623  0  4.255128  0
C  C133  1  0.57018685  0.05702649  0.31495219  1  1.543478  0  0.185102  0.547702  0  4.255025  0
C  C134  1  0.01275140  0.11449429  0.70846231  1  -0.623001  0  -0.023721  -0.137526  0  3.997913  0
C  C135  1  0.51275338  0.38550610  0.79153795  1  -0.623136  0  -0.023744  -0.137558  0  3.998016  0
C  C136  1  0.98724900  0.88550619  0.29153864  1  -0.623094  0  -0.023751  -0.137639  0  3.997995  0
C  C137  1  0.48724788  0.61449372  0.20846244  1  -0.623121  0  -0.023731  -0.13757  0  3.997957  0
C  C138  1  0.09534892  0.09950646  0.75827915  1  -0.072387  0  -0.079157  -0.076537  0  3.982564  0
C  C139  1  0.59534906  0.40049269  0.74172112  1  -0.072133  0  -0.079158  -0.076537  0  3.982535  0
C  C140  1  0.90465234  0.90049401  0.24172231  1  -0.07216  0  -0.079141  -0.076509  0  3.982488  0
C  C141  1  0.40465220  0.59950713  0.25827978  1  -0.072132  0  -0.079131  -0.076509  0  3.982569  0
C  C142  1  0.07948146  0.03255508  0.80228989  1  0.016544  0  -0.077576  -0.077588  0  3.945376  0
C  C143  1  0.57948155  0.46744471  0.69770938  1  0.016616  0  -0.077554  -0.077546  0  3.945321  0
C  C144  1  0.92051980  0.96744539  0.19771106  1  0.016612  0  -0.077579  -0.077587  0  3.94547  0
C  C145  1  0.42051970  0.53255511  0.30229050  1  0.016577  0  -0.077567  -0.077581  0  3.945481  0
C  C146  1  0.98400934  0.97767055  0.79447871  1  -0.085436  0  -0.013263  -0.025297  0  3.964873  0
C  C147  1  0.48400808  0.52232785  0.70552152  1  -0.085476  0  -0.013264  -0.025279  0  3.964847  0
C  C148  1  0.01599362  0.02232860  0.20552267  1  -0.085449  0  -0.013215  -0.025239  0  3.964993  0
C  C149  1  0.51599232  0.47767132  0.29447832  1  -0.085461  0  -0.013285  -0.025279  0  3.964986  0
C  C150  1  0.90317148  0.99130913  0.74334471  1  -0.004044  0  -0.083253  -0.09277  0  3.969234  0
C  C151  1  0.40317291  0.50869051  0.75665550  1  -0.004191  0  -0.083272  -0.092867  0  3.969206  0
C  C152  1  0.09682978  0.00869068  0.25665619  1  -0.004204  0  -0.083298  -0.092828  0  3.96923  0
C  C153  1  0.59682835  0.49130931  0.24334489  1  -0.004199  0  -0.083277  -0.092841  0  3.969168  0
C  C154  1  0.91610637  0.06043055  0.70136164  1  -0.004754  0  -0.079157  -0.074912  0  3.984168  0
C  C155  1  0.41610850  0.43956955  0.79864007  1  -0.004473  0  -0.079102  -0.074858  0  3.984111  0
C  C156  1  0.08389403  0.93956927  0.29863978  1  -0.004467  0  -0.079125  -0.07487  0  3.984062  0
C  C157  1  0.58389275  0.56043093  0.20136036  1  -0.00448  0  -0.079133  -0.074902  0  3.984076  0
C  C158  1  0.96974936  0.90125796  0.83770715  1  1.557513  0  0.201086  0.562825  0  4.231901  0
C  C159  1  0.46974893  0.59874175  0.66229263  1  1.557529  0  0.201068  0.56282  0  4.231851  0
C  C160  1  0.03025190  0.09874120  0.16229371  1  1.557474  0  0.201069  0.56288  0  4.23168  0
C  C161  1  0.53025233  0.40125808  0.33770673  1  1.557462  0  0.201066  0.562811  0  4.231827  0
C  C162  1  0.16876631  0.22436537  0.63516110  1  -0.65032  0  -0.026109  -0.137433  0  3.983378  0
C  C163  1  0.66876581  0.27563516  0.86483883  1  -0.650311  0  -0.026097  -0.137351  0  3.983307  0
C  C164  1  0.83123409  0.77563577  0.36483835  1  -0.650432  0  -0.025996  -0.137314  0  3.983267  0
C  C165  1  0.33123205  0.72436399  0.13516203  1  -0.650361  0  -0.026035  -0.13744  0  3.983424  0
C  C166  1  0.22846861  0.15916135  0.59452524  1  -0.023045  0  -0.07907  -0.073543  0  3.977625  0
C  C167  1  0.72846917  0.34083924  0.90547528  1  -0.023044  0  -0.079095  -0.073604  0  3.977611  0
C  C168  1  0.77153010  0.84084045  0.40547477  1  -0.023185  0  -0.079174  -0.073768  0  3.97773  0
C  C169  1  0.27152869  0.65915992  0.09452507  1  -0.022994  0  -0.07915  -0.073647  0  3.977692  0
C  C170  1  0.33419229  0.17818297  0.56719744  1  -0.052665  0  -0.079754  -0.092077  0  3.975229  0
C  C171  1  0.83419291  0.32181640  0.93280208  1  -0.05273  0  -0.079773  -0.092128  0  3.97532  0
C  C172  1  0.66580641  0.82181817  0.43280252  1  -0.05266  0  -0.079744  -0.092038  0  3.97519  0
C  C173  1  0.16580580  0.67818276  0.06719776  1  -0.052733  0  -0.079748  -0.09208  0  3.975157  0
C  C174  1  0.38166645  0.26246908  0.57958623  1  -0.051096  0  -0.01731  -0.036738  0  3.9547  0
C  C175  1  0.88166692  0.23753033  0.92041386  1  -0.05112  0  -0.01724  -0.036679  0  3.954758  0
C  C176  1  0.61833225  0.73753140  0.42041369  1  -0.051071  0  -0.017264  -0.036647  0  3.954553  0
C  C177  1  0.11833179  0.76246882  0.07958700  1  -0.046102  0  -0.017288  -0.036704  0  3.954589  0
C  C178  1  0.32584305  0.32519450  0.62402772  1  -0.031958  0  -0.086534  -0.091568  0  3.981105  0
C  C179  1  0.82584330  0.17480552  0.87597235  1  -0.031943  0  -0.086527  -0.091507  0  3.981125  0
C  C180  1  0.67415651  0.67480664  0.37597225  1  -0.031958  0  -0.086553  -0.091644  0  3.981153  0
C  C181  1  0.17415541  0.82519298  0.12402847  1  -0.031966  0  -0.086564  -0.091562  0  3.981124  0
C  C182  1  0.22010916  0.30662045  0.65160922  1  -0.026311  0  -0.086724  -0.084649  0  3.993278  0
C  C183  1  0.72011020  0.19338012  0.84839180  1  -0.026325  0  -0.086709  -0.084683  0  3.993304  0
C  C184  1  0.77989039  0.69338069  0.34839125  1  -0.026333  0  -0.086772  -0.0847  0  3.993328  0
C  C185  1  0.27988935  0.80661903  0.15161010  1  -0.026331  0  -0.086732  -0.084681  0  3.993313  0
C  C186  1  0.48698379  0.28820283  0.54139628  1  1.597758  0  0.205047  0.586967  0  4.218774  0
C  C187  1  0.98698349  0.21179667  0.95860342  1  1.597751  0  0.205074  0.587051  0  4.218652  0
C  C188  1  0.51301662  0.71179699  0.45860360  1  1.597748  0  0.2051  0.587066  0  4.218628  0
C  C189  1  0.01301522  0.78820315  0.04139646  1  1.59279  0  0.205051  0.587005  0  4.218668  0
C  C190  1  0.67721678  0.69129746  0.93895145  1  0.438644  0  0.053817  0.105384  0  3.934558  0
C  C191  1  0.17721632  0.80870263  0.56104958  1  0.438663  0  0.053773  0.105311  0  3.934527  0
C  C192  1  0.32278277  0.30870236  0.06104894  1  0.438625  0  0.053824  0.105395  0  3.93456  0
C  C193  1  0.82278408  0.19129785  0.43895086  1  0.438679  0  0.053792  0.105297  0  3.934633  0
C  C194  1  0.55958012  0.68268917  0.93404985  1  0.015231  0  -0.081479  -0.173195  0  3.922652  0
C  C195  1  0.05957969  0.81731082  0.56595104  1  0.015259  0  -0.081461  -0.173133  0  3.922662  0
C  C196  1  0.44041859  0.31731065  0.06595054  1  0.015239  0  -0.081496  -0.173226  0  3.922613  0
C  C197  1  0.94042072  0.18269032  0.43404943  1  0.015095  0  -0.081452  -0.173147  0  3.922592  0
C  C198  1  0.50252564  0.71591504  0.87824709  1  -0.036871  0  0.011581  0.097071  0  3.97674  0
C  C199  1  0.00252533  0.78408554  0.62175430  1  -0.036872  0  0.011567  0.097022  0  3.976803  0
C  C200  1  0.49747392  0.28408543  0.12175386  1  -0.036865  0  0.011592  0.097057  0  3.976758  0
C  C201  1  0.99747423  0.21591559  0.37824617  1  -0.036886  0  0.011541  0.097047  0  3.976827  0
C  C202  1  0.56771522  0.75756055  0.82969757  1  -0.038152  0  -0.079097  -0.164747  0  3.910902  0
C  C203  1  0.06771585  0.74243945  0.67030282  1  -0.038132  0  -0.079095  -0.164737  0  3.910937  0
C  C204  1  0.43228433  0.24243993  0.17030287  1  -0.038152  0  -0.07907  -0.164689  0  3.910878  0
C  C205  1  0.93228540  0.25756103  0.32969710  1  -0.038134  0  -0.079063  -0.16469  0  3.910914  0
C  C206  1  0.68466588  0.76291344  0.83836335  1  0.457523  0  0.04209  0.087715  0  3.955488  0
C  C207  1  0.18466648  0.73708600  0.66163713  1  0.457477  0  0.042102  0.087766  0  3.95551  0
C  C208  1  0.31533368  0.23708638  0.16163755  1  0.45746  0  0.042086  0.087699  0  3.955459  0
C  C209  1  0.81533393  0.26291448  0.33836279  1  0.457468  0  0.0421  0.087716  0  3.955463  0
C  C210  1  0.37746443  0.71140284  0.87234924  1  -0.047342  0  0.013507  0.105319  0  3.974922  0
C  C211  1  0.87746408  0.78859678  0.62765147  1  -0.04742  0  0.013503  0.105317  0  3.974917  0
C  C212  1  0.62253598  0.28859698  0.12765116  1  -0.047343  0  0.013511  0.105335  0  3.974918  0
C  C213  1  0.12253548  0.21140370  0.37234897  1  -0.047413  0  0.013534  0.105351  0  3.974894  0
C  C214  1  0.31799324  0.77523627  0.83854596  1  -0.089423  0  -0.079296  -0.170226  0  3.915714  0
C  C215  1  0.81799375  0.72476264  0.66145361  1  -0.089451  0  -0.079294  -0.170213  0  3.91572  0
C  C216  1  0.68200632  0.22476289  0.16145336  1  -0.089518  0  -0.079278  -0.170209  0  3.915688  0
C  C217  1  0.18200750  0.27523719  0.33854627  1  -0.089451  0  -0.079283  -0.170203  0  3.915788  0
C  C218  1  0.20012706  0.77300523  0.83749248  1  0.53746  0  0.04561  0.096638  0  3.965177  0
C  C219  1  0.70012674  0.72699357  0.66250694  1  0.537478  0  0.045577  0.096591  0  3.965233  0
C  C220  1  0.79987334  0.22699394  0.16250683  1  0.537479  0  0.045595  0.0966  0  3.965178  0
C  C221  1  0.29987367  0.27300625  0.33749293  1  0.537468  0  0.045599  0.096629  0  3.965219  0
C  C222  1  0.19546271  0.64751280  0.89659450  1  0.469355  0  0.046801  0.090002  0  3.958543  0
C  C223  1  0.69546407  0.85248665  0.60340548  1  0.469385  0  0.04677  0.089943  0  3.958536  0
C  C224  1  0.80453684  0.35248702  0.10340538  1  0.469273  0  0.046761  0.089907  0  3.958611  0
C  C225  1  0.30453718  0.14751317  0.39659388  1  0.469387  0  0.046799  0.090032  0  3.958539  0
C  C226  1  0.31351590  0.64547484  0.90087074  1  -0.077054  0  -0.078447  -0.171576  0  3.94323  0
C  C227  1  0.81351641  0.85452472  0.59912938  1  -0.077069  0  -0.078442  -0.171551  0  3.943269  0
C  C228  1  0.68648365  0.35452498  0.09912914  1  -0.077079  0  -0.07844  -0.171545  0  3.943275  0
C  C229  1  0.18648400  0.14547510  0.40087050  1  -0.077035  0  -0.078478  -0.171631  0  3.943219  0
C  C230  1  0.74530030  0.92698769  0.99250113  1  0.488386  0  0.050862  0.105845  0  3.926656  0
C  C231  1  0.24530107  0.57301313  0.50749744  1  0.488413  0  0.050814  0.105726  0  3.926709  0
C  C232  1  0.25470095  0.07301147  0.00749921  1  0.488405  0  0.050861  0.105773  0  3.926764  0
C  C233  1  0.75470104  0.42698802  0.49250097  1  0.488391  0  0.050842  0.105767  0  3.926791  0
C  C234  1  0.62734487  0.92291097  0.99153007  1  -0.017844  0  -0.078342  -0.164211  0  3.922156  0
C  C235  1  0.12734309  0.57708909  0.50846884  1  -0.01787  0  -0.078324  -0.164212  0  3.922195  0
C  C236  1  0.37265639  0.07708885  0.00847084  1  -0.01789  0  -0.078329  -0.164214  0  3.922198  0
C  C237  1  0.87265561  0.42291140  0.49152953  1  -0.01788  0  -0.078315  -0.164183  0  3.922217  0
C  C238  1  0.56301511  0.00078320  0.00040466  1  0.053751  0  0.015955  0.106374  0  3.955449  0
C  C239  1  0.06301452  0.49921743  0.49959385  1  0.053766  0  0.016003  0.106528  0  3.955524  0
C  C240  1  0.43698700  0.99921661  0.99959625  1  -0.08007  0  0.016028  0.106523  0  3.955454  0
C  C241  1  0.93698673  0.50078373  0.50040251  1  -0.080061  0  0.01599  0.106448  0  3.955367  0
C  C242  1  0.62391618  0.08010769  0.01043725  1  0.022544  0  -0.077839  -0.165465  0  3.91733  0
C  C243  1  0.12391546  0.41989300  0.48956133  1  0.022662  0  -0.077851  -0.16556  0  3.917324  0
C  C244  1  0.37608507  0.91989279  0.98956319  1  0.022555  0  -0.077846  -0.165525  0  3.917381  0
C  C245  1  0.87608409  0.58010815  0.51043606  1  0.022553  0  -0.077865  -0.165513  0  3.917253  0
C  C246  1  0.74200677  0.07866144  0.01106122  1  0.449995  0  0.05114  0.103963  0  3.958678  0
C  C247  1  0.24200775  0.42134001  0.48893805  1  0.450064  0  0.051168  0.104005  0  3.958623  0
C  C248  1  0.25799533  0.92133772  0.98893862  1  0.450007  0  0.051111  0.10395  0  3.95857  0
C  C249  1  0.75799435  0.57866179  0.51106092  1  0.450006  0  0.05114  0.103959  0  3.958592  0
N  N250  1  0.13896934  0.71140183  0.86682300  1  -1.213666  0  -0.326388  -0.244232  0  3.485598  0
N  N251  1  0.63896900  0.78859692  0.63317687  1  -1.213653  0  -0.326402  -0.244225  0  3.485581  0
N  N252  1  0.86102937  0.28859734  0.13317631  1  -1.213561  0  -0.32641  -0.244193  0  3.485632  0
N  N253  1  0.36102970  0.21140224  0.36682348  1  -1.213664  0  -0.326394  -0.244226  0  3.48559  0
N  N254  1  0.73897547  0.73018691  0.89175803  1  -1.240714  0  -0.328402  -0.247614  0  3.52238  0
N  N255  1  0.23897595  0.76981258  0.60824252  1  -1.240723  0  -0.328359  -0.247584  0  3.522256  0
N  N256  1  0.26102494  0.26981225  0.10824232  1  -1.240704  0  -0.328423  -0.247659  0  3.522391  0
N  N257  1  0.76102531  0.23018790  0.39175792  1  -1.240705  0  -0.328406  -0.247589  0  3.522396  0
N  N258  1  0.80215285  0.00367389  0.00175098  1  -1.232687  0  -0.325144  -0.240205  0  3.498592  0
N  N259  1  0.30215226  0.49632630  0.49824879  1  -1.232708  0  -0.325125  -0.240146  0  3.498601  0
N  N260  1  0.19784840  0.99632593  0.99824941  1  -1.232641  0  -0.325118  -0.240155  0  3.498504  0
N  N261  1  0.69784815  0.50367419  0.50175062  1  -1.23266  0  -0.325144  -0.240207  0  3.498569  0
O  O262  1  0.91024390  0.62194460  0.77909816  1  -1.189381  0  -0.334748  -0.571995  0  2.218172  0
O  O263  1  0.41024657  0.87805439  0.72090151  1  -1.189395  0  -0.334802  -0.572051  0  2.218121  0
O  O264  1  0.08975140  0.37805325  0.22089953  1  -1.189285  0  -0.334839  -0.5721  0  2.218027  0
O  O265  1  0.58975214  0.12194741  0.27909850  1  -1.189438  0  -0.334781  -0.572034  0  2.218194  0
O  O266  1  0.94453515  0.56505925  0.88024199  1  -1.131614  0  -0.341132  -0.559073  0  2.150705  0
O  O267  1  0.44453504  0.93494043  0.61975828  1  -1.131618  0  -0.34109  -0.559033  0  2.150768  0
O  O268  1  0.05546610  0.43494058  0.11975531  1  -1.131125  0  -0.3411  -0.558986  0  2.150905  0
O  O269  1  0.55547047  0.06506005  0.38024319  1  -1.131348  0  -0.341143  -0.559085  0  2.150754  0
O  O270  1  0.00667249  0.90506423  0.89956170  1  -1.190354  0  -0.337149  -0.599077  0  2.332187  0
O  O271  1  0.50667095  0.59493571  0.60043810  1  -1.19029  0  -0.337135  -0.599066  0  2.332196  0
O  O272  1  0.99332792  0.09493559  0.10043920  1  -1.190231  0  -0.337175  -0.599172  0  2.332245  0
O  O273  1  0.49332946  0.40506411  0.39956177  1  -1.19023  0  -0.337115  -0.599045  0  2.332219  0
O  O274  1  0.92392178  0.83243123  0.80821588  1  -1.148431  0  -0.314996  -0.533776  0  2.263587  0
O  O275  1  0.42392152  0.66756843  0.69178437  1  -1.148428  0  -0.314983  -0.533767  0  2.263559  0
O  O276  1  0.07607863  0.16756858  0.19178503  1  -1.148387  0  -0.31496  -0.533765  0  2.263458  0
O  O277  1  0.57607888  0.33243140  0.30821499  1  -1.1484  0  -0.314983  -0.533777  0  2.263502  0
O  O278  1  0.53401659  0.22819805  0.50168315  1  -1.178644  0  -0.342473  -0.568577  0  2.264234  0
O  O279  1  0.03401740  0.27180105  0.99831654  1  -1.178633  0  -0.342505  -0.568624  0  2.26413  0
O  O280  1  0.46598297  0.77180045  0.49831716  1  -1.178626  0  -0.34252  -0.568664  0  2.264166  0
O  O281  1  0.96598046  0.72819943  0.00168338  1  -1.178642  0  -0.342475  -0.568606  0  2.264167  0
O  O282  1  0.51987152  0.36774799  0.55090363  1  -1.195467  0  -0.341413  -0.594585  0  2.319624  0
O  O283  1  0.01987115  0.13225175  0.94909557  1  -1.195476  0  -0.341456  -0.594648  0  2.319576  0
O  O284  1  0.48012888  0.63225183  0.44909573  1  -1.195469  0  -0.341451  -0.594639  0  2.319541  0
O  O285  1  0.98012841  0.86774807  0.05090482  1  -1.195483  0  -0.34143  -0.594619  0  2.319586  0
O  O286  1  0.94984743  0.18898689  0.58933719  1  -1.434234  0  -0.375982  -0.654735  0  2.098939  0
O  O287  1  0.44984973  0.31101389  0.91066358  1  -1.434253  0  -0.375944  -0.654711  0  2.099024  0
O  O288  1  0.05015383  0.81101095  0.41066256  1  -1.434264  0  -0.375956  -0.654719  0  2.098935  0
O  O289  1  0.55015068  0.68898724  0.08933690  1  -1.434242  0  -0.375963  -0.654723  0  2.098941  0
