# generated using pymatgen
data_ZnH18C28O5
_symmetry_space_group_name_H-M   'P 1'
_cell_length_a   9.75194736
_cell_length_b   10.19152031
_cell_length_c   13.46677538
_cell_angle_alpha   85.60078434
_cell_angle_beta   72.17422132
_cell_angle_gamma   81.29064324
_symmetry_Int_Tables_number   1
_chemical_formula_structural   ZnH18C28O5
_chemical_formula_sum   'Zn2 H36 C56 O10'
_cell_volume   1258.82174386
_cell_formula_units_Z   2
loop_
 _symmetry_equiv_pos_site_id
 _symmetry_equiv_pos_as_xyz
  1  'x, y, z'
loop_
 _atom_site_type_symbol
 _atom_site_label
 _atom_site_symmetry_multiplicity
 _atom_site_fract_x
 _atom_site_fract_y
 _atom_site_fract_z
 _atom_site_occupancy
 _atom_site_pbe_bader_charge
 _atom_site_pbe_bader_spin_density
 _atom_site_pbe_cm5_charge
 _atom_site_pbe_ddec_charge
 _atom_site_pbe_ddec_spin_density
 _atom_site_pbe_ddec_sum_bond_order
 _atom_site_pbe_magmom
Zn  Zn0  1  0.30396041  0.99055170  0.50646233  1  1.339542  0  0.697933  0.977433  0  2.240121  0
Zn  Zn1  1  0.69603711  0.00944923  0.49354089  1  1.3396  0  0.697908  0.977337  0  2.240191  0
H  H2  1  0.11799891  0.86158741  0.44445621  1  0.669764  0  0.293378  0.40497  0  0.936505  0
H  H3  1  0.88200426  0.13841845  0.55554168  1  0.669817  0  0.293332  0.404946  0  0.936543  0
H  H4  1  0.23783785  0.76361600  0.48843133  1  0.622415  0  0.331379  0.408349  0  0.867773  0
H  H5  1  0.76216032  0.23638694  0.51156717  1  0.622239  0  0.331323  0.408283  0  0.86784  0
H  H6  1  0.78569684  0.21427094  0.70751665  1  0.091628  0  0.101217  0.10006  0  1.053047  0
H  H7  1  0.21429383  0.78573204  0.29248511  1  0.091802  0  0.101245  0.100082  0  1.053023  0
H  H8  1  0.65103210  0.35030968  0.85960381  1  0.082497  0  0.097498  0.10083  0  1.038629  0
H  H9  1  0.34895718  0.64968833  0.14040079  1  0.082938  0  0.097509  0.100848  0  1.038584  0
H  H10  1  0.03746128  0.31623485  0.95661344  1  0.08279  0  0.098616  0.100372  0  1.045717  0
H  H11  1  0.96252958  0.68375920  0.04338953  1  0.082858  0  0.098637  0.100376  0  1.045746  0
H  H12  1  0.17330688  0.17805959  0.80354021  1  0.122926  0  0.103343  0.109417  0  1.038157  0
H  H13  1  0.82668074  0.82193448  0.19646352  1  0.12281  0  0.103308  0.109345  0  1.038218  0
H  H14  1  0.49363024  0.36232790  0.06320714  1  0.056363  0  0.097519  0.09756  0  1.046597  0
H  H15  1  0.50636363  0.63766809  0.93679649  1  0.056312  0  0.097489  0.09753  0  1.046589  0
H  H16  1  0.37860233  0.24187999  0.22867455  1  0.111197  0  0.101648  0.100406  0  1.06261  0
H  H17  1  0.62139643  0.75811993  0.77132918  1  0.1113  0  0.101618  0.100385  0  1.062552  0
H  H18  1  0.75840810  0.24628511  0.32683680  1  0.075879  0  0.097284  0.085511  0  1.049903  0
H  H19  1  0.24158760  0.75372080  0.67316509  1  0.075738  0  0.097297  0.085558  0  1.049919  0
H  H20  1  0.87330089  0.36663519  0.16287619  1  0.123307  0  0.097553  0.101823  0  1.042506  0
H  H21  1  0.12669583  0.63336279  0.83712368  1  0.123233  0  0.097536  0.101826  0  1.042519  0
H  H22  1  0.92947931  0.49791618  0.76956409  1  0.0838  0  0.096138  0.099015  0  1.054403  0
H  H23  1  0.07052395  0.50208077  0.23043206  1  0.083945  0  0.096131  0.099003  0  1.054413  0
H  H24  1  0.99519815  0.66295488  0.62570682  1  0.015424  0  0.095253  0.090618  0  1.00347  0
H  H25  1  0.00480063  0.33704310  0.37428959  1  0.015494  0  0.095237  0.090646  0  1.003355  0
H  H26  1  0.92788857  0.90386606  0.65597163  1  0.074136  0  0.097716  0.101824  0  1.025322  0
H  H27  1  0.07211436  0.09613289  0.34402300  1  0.074221  0  0.097716  0.101808  0  1.025353  0
H  H28  1  0.78879602  0.98394461  0.83426892  1  0.076068  0  0.099504  0.102475  0  1.026361  0
H  H29  1  0.21121584  0.01605325  0.16572885  1  0.076209  0  0.099505  0.102482  0  1.026295  0
H  H30  1  0.63564946  0.01720849  0.02481149  1  0.078561  0  0.101763  0.10541  0  1.00513  0
H  H31  1  0.36437791  0.98279421  0.97518306  1  0.078669  0  0.101759  0.105349  0  1.005131  0
H  H32  1  0.49542124  0.99940998  0.21349789  1  0.08768  0  0.096278  0.097809  0  1.050645  0
H  H33  1  0.50460141  0.00059572  0.78649761  1  0.087743  0  0.09635  0.097881  0  1.050609  0
H  H34  1  0.47893017  0.78059184  0.30495641  1  0.089331  0  0.097568  0.100856  0  1.011  0
H  H35  1  0.52107297  0.21941403  0.69504074  1  0.08934  0  0.097583  0.100898  0  1.011043  0
H  H36  1  0.59256290  0.57340839  0.21085405  1  0.09258  0  0.097093  0.100018  0  1.039345  0
H  H37  1  0.40743365  0.42659756  0.78914094  1  0.092591  0  0.097082  0.10001  0  1.039283  0
C  C38  1  0.07779316  0.11981978  0.64707669  1  1.553576  0  0.214024  0.580897  0  4.188845  0
C  C39  1  0.92220017  0.88018715  0.35292347  1  1.55358  0  0.214072  0.580947  0  4.188677  0
C  C40  1  0.99031309  0.19091157  0.74348570  1  -0.020984  0  -0.022839  -0.054953  0  3.99076  0
C  C41  1  0.00967805  0.80908842  0.25651760  1  -0.02053  0  -0.022888  -0.055121  0  3.990899  0
C  C42  1  0.84191698  0.23679887  0.76134478  1  -0.08842  0  -0.087095  -0.095731  0  3.987993  0
C  C43  1  0.15807759  0.76319913  0.23865559  1  -0.088487  0  -0.087094  -0.095706  0  3.988066  0
C  C44  1  0.76549826  0.31279226  0.84755260  1  0.025194  0  -0.088823  -0.133079  0  3.967354  0
C  C45  1  0.23449312  0.68720575  0.15245002  1  0.024904  0  -0.088847  -0.133144  0  3.967359  0
C  C46  1  0.83695532  0.34603936  0.91613679  1  -0.104688  0  0.000609  0.086903  0  3.994685  0
C  C47  1  0.16303624  0.65395668  0.08386292  1  -0.104954  0  0.000599  0.086983  0  3.994434  0
C  C48  1  0.98266658  0.29313752  0.90204288  1  -0.029486  0  -0.087658  -0.130727  0  3.953204  0
C  C49  1  0.01732630  0.70685750  0.09795955  1  -0.029609  0  -0.087733  -0.13086  0  3.953204  0
C  C50  1  0.05898885  0.21624992  0.81637164  1  -0.044965  0  -0.076772  -0.069054  0  3.937001  0
C  C51  1  0.94100277  0.78374708  0.18363395  1  -0.044908  0  -0.076668  -0.068836  0  3.936837  0
C  C52  1  0.76069772  0.43960873  0.00137067  1  -0.030142  0  0.014159  0.011688  0  3.896027  0
C  C53  1  0.23929699  0.56038827  0.99862973  1  -0.029928  0  0.014122  0.011627  0  3.896186  0
C  C54  1  0.69054659  0.37326624  0.10245979  1  -0.092625  0  0.002017  0.089172  0  3.986735  0
C  C55  1  0.30944461  0.62673277  0.89754133  1  -0.092148  0  0.002022  0.089207  0  3.986865  0
C  C56  1  0.55120682  0.33725952  0.12133362  1  0.004773  0  -0.087696  -0.13163  0  3.951331  0
C  C57  1  0.44878585  0.66273747  0.87867098  1  0.004548  0  -0.087699  -0.131643  0  3.95139  0
C  C58  1  0.48656627  0.27005698  0.21369213  1  -0.021942  0  -0.080272  -0.075954  0  3.960962  0
C  C59  1  0.51343104  0.72993798  0.78631296  1  -0.021719  0  -0.080192  -0.075902  0  3.960805  0
C  C60  1  0.56040406  0.23726714  0.28858410  1  -0.019642  0  -0.022949  -0.056653  0  3.986548  0
C  C61  1  0.43958905  0.76273480  0.71142159  1  -0.02187  0  -0.022918  -0.05652  0  3.986555  0
C  C62  1  0.69948882  0.27334612  0.26978304  1  -0.059403  0  -0.081733  -0.076063  0  3.978555  0
C  C63  1  0.30050958  0.72665580  0.73021843  1  -0.059126  0  -0.08176  -0.076126  0  3.978732  0
C  C64  1  0.76462320  0.34003069  0.17723637  1  -0.077136  0  -0.087437  -0.127186  0  3.94947  0
C  C65  1  0.23537250  0.65996729  0.82276523  1  -0.077331  0  -0.087415  -0.127265  0  3.94948  0
C  C66  1  0.49407038  0.15925741  0.38458970  1  1.545206  0  0.224923  0.609676  0  4.150214  0
C  C67  1  0.50592753  0.84074054  0.61541285  1  1.546977  0  0.224917  0.609636  0  4.150091  0
C  C68  1  0.75484682  0.57341173  0.98550060  1  -0.003639  0  -0.010616  -0.050305  0  3.998457  0
C  C69  1  0.24515419  0.42658622  0.01449750  1  -0.00371  0  -0.01063  -0.050272  0  3.998566  0
C  C70  1  0.81714194  0.64616676  0.88561595  1  -0.079779  0  -0.01445  0.013427  0  3.982481  0
C  C71  1  0.18286216  0.35383313  0.11438503  1  -0.079815  0  -0.014433  0.013368  0  3.982473  0
C  C72  1  0.89732602  0.60280391  0.78561904  1  0.019766  0  -0.092352  -0.125594  0  3.991553  0
C  C73  1  0.10267628  0.39719302  0.21438105  1  0.019529  0  -0.09237  -0.125534  0  3.99152  0
C  C74  1  0.93589415  0.69689543  0.70415111  1  -0.072569  0  -0.097743  -0.095196  0  4.031897  0
C  C75  1  0.06410761  0.30309658  0.29584492  1  -0.072764  0  -0.097678  -0.095256  0  4.031796  0
C  C76  1  0.89780876  0.83309080  0.72117737  1  0.003655  0  -0.090965  -0.071664  0  3.995208  0
C  C77  1  0.10219935  0.16690214  0.27881784  1  0.004055  0  -0.090966  -0.071634  0  3.995085  0
C  C78  1  0.81942136  0.87790200  0.82088433  1  -0.092832  0  -0.088446  -0.119033  0  3.963001  0
C  C79  1  0.18059011  0.12209787  0.17910970  1  -0.092908  0  -0.08853  -0.119081  0  3.962883  0
C  C80  1  0.77841045  0.78476465  0.90223772  1  -0.025842  0  -0.011599  0.020264  0  4.000782  0
C  C81  1  0.22160228  0.21523421  0.09775755  1  -0.025961  0  -0.011501  0.020418  0  4.000805  0
C  C82  1  0.69177605  0.80379498  0.01130549  1  -0.028656  0  -0.011799  0.019201  0  4.000498  0
C  C83  1  0.30823737  0.19620684  0.98869019  1  -0.028667  0  -0.011785  0.019046  0  4.000785  0
C  C84  1  0.62642208  0.92012973  0.06465697  1  -0.04908  0  -0.086606  -0.117472  0  3.973008  0
C  C85  1  0.37359437  0.07987403  0.93534011  1  -0.049403  0  -0.086556  -0.117243  0  3.97298  0
C  C86  1  0.54819928  0.91024682  0.17033456  1  -0.070039  0  -0.09035  -0.077456  0  3.992154  0
C  C87  1  0.45181969  0.08975493  0.82966426  1  -0.070057  0  -0.090484  -0.077622  0  3.992314  0
C  C88  1  0.53790831  0.78588444  0.22199074  1  0.002208  0  -0.093957  -0.082916  0  4.000685  0
C  C89  1  0.46209575  0.21411449  0.77800510  1  0.002118  0  -0.094017  -0.083024  0  4.000737  0
C  C90  1  0.60222208  0.66877372  0.16893893  1  -0.116122  0  -0.091772  -0.126855  0  3.99094  0
C  C91  1  0.39778033  0.33122919  0.83105634  1  -0.116227  0  -0.091742  -0.126826  0  3.99075  0
C  C92  1  0.67847915  0.67703467  0.06257769  1  -0.049156  0  -0.016563  0.010892  0  3.997279  0
C  C93  1  0.32153105  0.32296620  0.93741510  1  -0.048942  0  -0.016583  0.010891  0  3.997377  0
O  O94  1  0.02942554  0.11256670  0.57017863  1  -1.19301  0  -0.317766  -0.571957  0  2.233393  0
O  O95  1  0.97057393  0.88744218  0.42981847  1  -1.193408  0  -0.317744  -0.571913  0  2.233317  0
O  O96  1  0.20794219  0.06748150  0.64339808  1  -1.149883  0  -0.31651  -0.544954  0  2.300845  0
O  O97  1  0.79204783  0.93251947  0.35660841  1  -1.150145  0  -0.316567  -0.544958  0  2.30076  0
O  O98  1  0.38456999  0.10312327  0.38517528  1  -1.152863  0  -0.303753  -0.530798  0  2.329678  0
O  O99  1  0.61542666  0.89687665  0.61483043  1  -1.152754  0  -0.303754  -0.530783  0  2.32972  0
O  O100  1  0.54652514  0.15072352  0.46123047  1  -1.203287  0  -0.337165  -0.60451  0  2.34975  0
O  O101  1  0.45346770  0.84928041  0.53877518  1  -1.203208  0  -0.337194  -0.604552  0  2.349727  0
O  O102  1  0.22065629  0.84931656  0.45434339  1  -1.254081  0  -0.558673  -0.757055  0  2.156872  0
O  O103  1  0.77934395  0.15068733  0.54565605  1  -1.253986  0  -0.5586  -0.756978  0  2.156889  0
