# generated using pymatgen
data_Al3H23(C5O2)7
_symmetry_space_group_name_H-M   'P 1'
_cell_length_a   12.06687813
_cell_length_b   12.32047048
_cell_length_c   26.98995593
_cell_angle_alpha   82.77308262
_cell_angle_beta   82.48085646
_cell_angle_gamma   62.99272263
_symmetry_Int_Tables_number   1
_chemical_formula_structural   Al3H23(C5O2)7
_chemical_formula_sum   'Al6 H46 C70 O28'
_cell_volume   3534.24687575
_cell_formula_units_Z   2
loop_
 _symmetry_equiv_pos_site_id
 _symmetry_equiv_pos_as_xyz
  1  'x, y, z'
loop_
 _atom_site_type_symbol
 _atom_site_label
 _atom_site_symmetry_multiplicity
 _atom_site_fract_x
 _atom_site_fract_y
 _atom_site_fract_z
 _atom_site_occupancy
 _atom_site_pbe_bader_charge
 _atom_site_pbe_bader_spin_density
 _atom_site_pbe_cm5_charge
 _atom_site_pbe_ddec_charge
 _atom_site_pbe_ddec_spin_density
 _atom_site_pbe_ddec_sum_bond_order
 _atom_site_pbe_magmom
Al  Al0  1  0.40203927  0.40344808  0.50963900  1  2.492338  0  0.400629  1.682734  0  2.557867  0
Al  Al1  1  0.66155612  0.42133517  0.49565945  1  2.480711  0  0.511772  1.661027  0  2.507837  0
Al  Al2  1  0.42361469  0.65601299  0.49711590  1  2.478784  0  0.50991  1.660972  0  2.512019  0
Al  Al3  1  0.93259351  0.93441946  0.97852516  1  2.492903  0  0.400287  1.681001  0  2.560081  0
Al  Al4  1  0.91377021  0.68022564  0.99550754  1  2.481117  0  0.509563  1.661604  0  2.510055  0
Al  Al5  1  0.67460068  0.91333346  0.99410179  1  2.480009  0  0.51044  1.665046  0  2.505087  0
H  H6  1  0.36175274  0.66035238  0.27067144  1  0.048918  0  0.091056  0.089644  0  0.995791  0
H  H7  1  0.79163824  0.26597582  0.26622143  1  0.044316  0  0.094831  0.093573  0  0.979076  0
H  H8  1  0.23857589  0.80992677  0.26978494  1  0.051143  0  0.094649  0.096806  0  0.992621  0
H  H9  1  0.86808240  0.10627810  0.27954549  1  0.026165  0  0.09315  0.090803  0  0.987061  0
H  H10  1  0.78898333  0.23916888  0.18202415  1  0.035746  0  0.097317  0.098204  0  0.970347  0
H  H11  1  0.55511791  0.37597857  0.26968369  1  0.00681  0  0.092728  0.089616  0  0.98325  0
H  H12  1  0.55162466  0.34216164  0.18660381  1  0.026207  0  0.094388  0.092541  0  0.980253  0
H  H13  1  0.87066711  0.08005956  0.19489866  1  0.037729  0  0.092394  0.087949  0  1.017499  0
H  H14  1  0.48410074  0.73335589  0.80274901  1  0.038571  0  0.10003  0.101184  0  0.970378  0
H  H15  1  0.46732532  0.71577823  0.71912667  1  0.045186  0  0.097409  0.096624  0  0.978248  0
H  H16  1  0.73830478  0.78644679  0.67975805  1  0.023869  0  0.097761  0.097715  0  0.973837  0
H  H17  1  0.33982362  0.63162307  0.19080832  1  0.015476  0  0.095063  0.062846  0  0.9675  0
H  H18  1  0.57429039  0.85090093  0.69117566  1  0.029426  0  0.099635  0.100444  0  0.970699  0
H  H19  1  0.59190406  0.86874181  0.77469442  1  0.054279  0  0.098549  0.098683  0  0.974458  0
H  H20  1  0.97757573  0.73398425  0.30918671  1  0.053879  0  0.095245  0.093825  0  0.988807  0
H  H21  1  0.75611267  0.80254703  0.76325106  1  0.021301  0  0.095468  0.093109  0  0.981521  0
H  H22  1  0.79131342  0.46104305  0.71182559  1  0.047554  0  0.097577  0.097436  0  0.974709  0
H  H23  1  0.86798795  0.55332329  0.69173040  1  0.024938  0  0.098287  0.098641  0  0.973359  0
H  H24  1  0.81105741  0.47847780  0.79513629  1  0.046274  0  0.099993  0.101629  0  0.969923  0
H  H25  1  0.55667366  0.55565976  0.72763326  1  0.015685  0  0.095612  0.093368  0  0.98085  0
H  H26  1  0.57285198  0.57330234  0.81111520  1  0.046164  0  0.098441  0.098166  0  0.972988  0
H  H27  1  0.88423881  0.57390457  0.77508157  1  0.034601  0  0.096136  0.095055  0  0.980426  0
H  H28  1  0.10458263  0.52833743  0.22083747  1  8.6e-05  0  0.094262  0.094672  0  0.991137  0
H  H29  1  0.02505838  0.85114032  0.29537707  1  0.039325  0  0.092574  0.087752  0  0.993101  0
H  H30  1  0.98748888  0.86047393  0.21180733  1  0.038417  0  0.090919  0.085554  0  1.034222  0
H  H31  1  0.95234650  0.73527951  0.22476561  1  0.016691  0  0.091236  0.086124  0  0.991964  0
H  H32  1  0.30913866  0.48512966  0.28247500  1  -0.008525  0  0.094094  0.062556  0  0.989388  0
H  H33  1  0.26338300  0.48622187  0.20148566  1  0.038815  0  0.092888  0.092769  0  0.994437  0
H  H34  1  0.06581554  0.95434284  0.16250857  1  0.042752  0  0.086119  0.111106  0  1.025429  0
H  H35  1  0.11963873  0.96374375  0.21955696  1  -0.003973  0  0.081506  0.103354  0  1.022379  0
H  H36  1  0.16849466  0.02060734  0.16171946  1  0.052909  0  0.091849  0.122193  0  0.990689  0
H  H37  1  0.34443958  0.82688246  0.17984194  1  0.021675  0  0.087415  0.078478  0  0.982841  0
H  H38  1  0.27147537  0.80402132  0.13250028  1  0.045116  0  0.09246  0.087431  0  0.983247  0
H  H39  1  0.46925371  0.25495630  0.20684390  1  0.038954  0  0.095375  0.094361  0  0.981902  0
H  H40  1  0.17652162  0.33549320  0.26423631  1  -0.006361  0  0.081257  0.10301  0  1.018503  0
H  H41  1  0.28552196  0.29118231  0.31005131  1  0.042627  0  0.084218  0.107938  0  1.019817  0
H  H42  1  0.13431218  0.30266445  0.32786512  1  0.011659  0  0.092467  0.122714  0  0.991616  0
H  H43  1  0.15251935  0.48279592  0.35292135  1  0.057986  0  0.096275  0.098023  0  0.98114  0
H  H44  1  0.03916785  0.52850885  0.30932718  1  0.011606  0  0.085348  0.072822  0  0.992693  0
H  H45  1  0.46727468  0.29413073  0.28961459  1  0.045432  0  0.094386  0.089764  0  1.015476  0
H  H46  1  0.74113053  0.98830391  0.30736825  1  0.053436  0  0.095021  0.095476  0  0.98056  0
H  H47  1  0.57665956  0.06560803  0.30988592  1  0.04181  0  0.098712  0.10009  0  0.972498  0
H  H48  1  0.58615120  0.02672826  0.22630547  1  0.0451  0  0.094676  0.09289  0  0.980362  0
H  H49  1  0.75081390  0.95513241  0.22313871  1  0.028027  0  0.092115  0.089869  0  1.000792  0
H  H50  1  0.28705443  0.30519572  0.55212331  1  0.587481  0  0.296521  0.388109  0  0.915119  0
H  H51  1  0.04951919  0.03104861  0.99580431  1  0.575203  0  0.295708  0.385625  0  0.918354  0
C  C52  1  0.62124937  0.28101098  0.43511621  1  1.665526  0  0.280784  0.718525  0  4.15665  0
C  C53  1  0.25637173  0.71160171  0.20454179  1  0.031385  0  -0.07819  -0.012997  0  3.77639  0
C  C54  1  0.14564892  0.68204452  0.19951931  1  0.132809  0  0.00216  0.138068  0  3.871306  0
C  C55  1  0.61607070  0.61435768  0.41752534  1  1.685168  0  0.286037  0.698676  0  4.175908  0
C  C56  1  0.18198335  0.55077524  0.22350801  1  -0.013021  0  -0.153659  -0.231069  0  3.850789  0
C  C57  1  0.20839856  0.54059830  0.27902302  1  0.032404  0  -0.080115  -0.013277  0  3.768512  0
C  C58  1  0.12319301  0.69027520  0.14749296  1  -0.480569  0  -0.003718  0.007656  0  4.004372  0
C  C59  1  0.20067066  0.66321739  0.34616626  1  -0.218666  0  -0.004289  0.003087  0  4.010363  0
C  C60  1  0.22586132  0.65174295  0.38925938  1  -0.078902  0  -0.050538  -0.232934  0  3.968163  0
C  C61  1  0.55225540  0.28884874  0.26739849  1  -0.017452  0  -0.152684  -0.188642  0  3.844608  0
C  C62  1  0.66232320  0.06199076  0.28873950  1  -0.04962  0  -0.150649  -0.183814  0  3.83704  0
C  C63  1  0.66086406  0.66611031  0.26854133  1  0.066696  0  0.002864  -0.000191  0  4.176032  0
C  C64  1  0.66743157  0.03876309  0.23326648  1  -0.032096  0  -0.152201  -0.1848  0  3.838532  0
C  C65  1  0.68493017  0.10218529  0.10313766  1  0.132492  0  -0.05383  -0.230556  0  3.975866  0
C  C66  1  0.66661892  0.18465347  0.29195820  1  0.140931  0  0.001295  0.166468  0  3.904983  0
C  C67  1  0.27776806  0.61902495  0.43684177  1  1.67469  0  0.279387  0.720537  0  4.156701  0
C  C68  1  0.55238506  0.26543223  0.21242840  1  -0.015177  0  -0.152692  -0.188016  0  3.852301  0
C  C69  1  0.67018838  0.14778819  0.19830540  1  0.134128  0  0.00104  0.166277  0  3.903944  0
C  C70  1  0.78744043  0.16182408  0.20674430  1  -0.021918  0  -0.153746  -0.18631  0  3.840663  0
C  C71  1  0.78697188  0.18046358  0.26236614  1  -0.034719  0  -0.153768  -0.188265  0  3.855778  0
C  C72  1  0.67495592  0.12484793  0.14651997  1  -0.380774  0  -0.008638  -0.010399  0  4.009299  0
C  C73  1  0.66020954  0.20796174  0.34381951  1  -0.573027  0  -0.008654  -0.010821  0  4.00586  0
C  C74  1  0.65137882  0.65308181  0.31883975  1  0.218025  0  -0.002599  0.028581  0  4.237047  0
C  C75  1  0.64973455  0.23185271  0.38704380  1  0.285532  0  -0.049261  -0.22573  0  3.974534  0
C  C76  1  0.55547662  0.64356953  0.73214367  1  -0.013031  0  -0.148868  -0.184395  0  3.839037  0
C  C77  1  0.66201035  0.77812862  0.70431204  1  0.004042  0  -0.149054  -0.185097  0  3.839036  0
C  C78  1  0.67334609  0.78951237  0.75972352  1  -0.022957  0  -0.149308  -0.185153  0  3.838852  0
C  C79  1  0.61554663  0.28199449  0.57719695  1  1.698855  0  0.276329  0.6905  0  4.187117  0
C  C80  1  0.70048556  0.69463955  0.88764878  1  0.281684  0  -0.051504  -0.244145  0  3.958953  0
C  C81  1  0.66587354  0.65291054  0.69837956  1  0.129795  0  0.002685  0.158691  0  3.903089  0
C  C82  1  0.56641426  0.65512901  0.78759500  1  -0.013969  0  -0.147787  -0.183243  0  3.834904  0
C  C83  1  0.68426228  0.67218621  0.79213527  1  0.136868  0  0.002526  0.158515  0  3.902694  0
C  C84  1  0.80119936  0.56129854  0.77158128  1  -0.029126  0  -0.15089  -0.187491  0  3.843148  0
C  C85  1  0.64131608  0.64012579  0.36482014  1  -0.265373  0  0.011188  -0.119332  0  3.794493  0
C  C86  1  0.78968830  0.54917766  0.71629215  1  -0.017384  0  -0.151294  -0.187747  0  3.844538  0
C  C87  1  0.69313170  0.68400735  0.84409391  1  -0.505552  0  0.012279  0.028858  0  3.964308  0
C  C88  1  0.65453807  0.64285879  0.64648141  1  -0.367056  0  0.012133  0.028533  0  3.965066  0
C  C89  1  0.64500359  0.63373739  0.60299283  1  0.138664  0  -0.051995  -0.244974  0  3.96175  0
C  C90  1  0.10822184  0.69094363  0.86348616  1  0.021  0  0.008445  -0.122215  0  3.817153  0
C  C91  1  0.62133261  0.61079976  0.55578561  1  1.610758  0  0.287663  0.739133  0  4.131376  0
C  C92  1  0.13258293  0.67832866  0.81839580  1  -0.117221  0  -0.005512  0.026262  0  4.254906  0
C  C93  1  0.15661289  0.66697418  0.76896793  1  0.001441  0  0.00086  -0.001836  0  4.196205  0
C  C94  1  0.17627122  0.65893942  0.72323833  1  -0.023178  0  -0.000457  -0.005957  0  4.198541  0
C  C95  1  0.20107527  0.64913477  0.67373169  1  -0.045839  0  -0.006342  0.026944  0  4.260113  0
C  C96  1  0.26521791  0.71614264  0.26081351  1  -0.075471  0  -0.153069  -0.227206  0  3.852764  0
C  C97  1  0.22633392  0.63960142  0.62847999  1  -0.070205  0  0.004037  -0.128506  0  3.821103  0
C  C98  1  0.69117545  0.10284632  0.86212985  1  0.298252  0  0.007618  -0.123532  0  3.814726  0
C  C99  1  0.68212456  0.12841290  0.81694860  1  -0.409327  0  -0.004549  0.027094  0  4.252675  0
C  C100  1  0.67300975  0.15470403  0.76750847  1  0.2072  0  0.00094  -0.002553  0  4.193036  0
C  C101  1  0.66589316  0.17710922  0.72184535  1  -0.145048  0  -0.000119  -0.003566  0  4.19369  0
C  C102  1  0.65560143  0.20412231  0.67249198  1  0.206235  0  -0.007074  0.024958  0  4.256141  0
C  C103  1  0.27817916  0.61401091  0.57783867  1  1.707459  0  0.276925  0.691476  0  4.189865  0
C  C104  1  0.64444184  0.23100965  0.62747123  1  -0.369986  0  0.005267  -0.125936  0  3.817328  0
C  C105  1  0.05522779  0.72289060  0.05558247  1  1.636437  0  0.277361  0.725003  0  4.156289  0
C  C106  1  0.71466109  0.72551458  0.07324204  1  1.718122  0  0.285592  0.699221  0  4.176354  0
C  C107  1  0.04211524  0.76131428  0.28468304  1  -0.060054  0  -0.153492  -0.184405  0  3.856824  0
C  C108  1  0.71518035  0.05454940  0.05468287  1  1.615775  0  0.2779  0.724839  0  4.151236  0
C  C109  1  0.05737914  0.72188629  0.91377901  1  1.71937  0  0.280104  0.687441  0  4.192007  0
C  C110  1  0.72269623  0.71851367  0.93494163  1  1.607247  0  0.287336  0.739235  0  4.131667  0
C  C111  1  0.71744594  0.05332207  0.91275294  1  1.697614  0  0.282086  0.687969  0  4.188556  0
C  C112  1  0.68829346  0.70057809  0.12591764  1  -0.083901  0  0.009706  -0.123117  0  3.79527  0
C  C113  1  0.67788397  0.68881659  0.17192656  1  0.01788  0  -0.002552  0.029367  0  4.238817  0
C  C114  1  0.66815485  0.67669537  0.22223521  1  -0.146376  0  0.00209  -0.004141  0  4.178832  0
C  C115  1  0.25908334  0.82246911  0.17220743  1  -0.025919  0  -0.164124  -0.128062  0  3.949401  0
C  C116  1  0.14692539  0.94662188  0.17969275  1  -0.095665  0  -0.244518  -0.350781  0  3.965072  0
C  C117  1  0.14015893  0.47798710  0.31372669  1  -0.03897  0  -0.165587  -0.133361  0  3.952201  0
C  C118  1  0.02224422  0.76687146  0.22888593  1  -0.008699  0  -0.154147  -0.183348  0  3.83924  0
C  C119  1  0.18638102  0.34468646  0.30324370  1  -0.0351  0  -0.242545  -0.345092  0  3.972475  0
C  C120  1  0.10171679  0.69885745  0.10403455  1  0.20002  0  -0.052175  -0.234708  0  3.964013  0
C  C121  1  0.17825959  0.66991897  0.29418893  1  0.139263  0  0.002151  0.134857  0  3.888616  0
O  O122  1  0.30363696  0.51242784  0.45625107  1  -1.220486  0  -0.202126  -0.544209  0  2.285853  0
O  O123  1  0.63724828  0.82625284  0.05275739  1  -1.231542  0  -0.218456  -0.570052  0  2.245984  0
O  O124  1  0.63184543  0.03448860  0.03720929  1  -1.258695  0  -0.245863  -0.613542  0  2.22708  0
O  O125  1  0.51587859  0.30196014  0.45763237  1  -1.221987  0  -0.200683  -0.539242  0  2.283963  0
O  O126  1  0.82076748  0.03557159  0.92631525  1  -1.19713  0  -0.193115  -0.520023  0  2.282384  0
O  O127  1  0.03151138  0.82811793  0.92419141  1  -1.198683  0  -0.194067  -0.524285  0  2.288526  0
O  O128  1  0.03811725  0.63963629  0.94283572  1  -1.25147  0  -0.236458  -0.595166  0  2.239506  0
O  O129  1  0.82493791  0.64274509  0.95368015  1  -1.247193  0  -0.229108  -0.596436  0  2.240518  0
O  O130  1  0.64243558  0.81683522  0.95448473  1  -1.252059  0  -0.230106  -0.598729  0  2.242462  0
O  O131  1  0.63428350  0.02704840  0.93894782  1  -1.247786  0  -0.235504  -0.594403  0  2.237917  0
O  O132  1  0.83919886  0.84135791  0.98969386  1  -1.608637  0  -0.390508  -1.27464  0  2.292983  0
O  O133  1  0.69896844  0.51048334  0.53689460  1  -1.249  0  -0.228614  -0.595466  0  2.238651  0
O  O134  1  0.70456898  0.30465443  0.45056159  1  -1.254969  0  -0.244276  -0.611041  0  2.230183  0
O  O135  1  0.69497600  0.51473557  0.43803104  1  -1.232974  0  -0.217644  -0.567946  0  2.24698  0
O  O136  1  0.51331198  0.69075549  0.43826625  1  -1.235522  0  -0.216959  -0.56768  0  2.246458  0
O  O137  1  0.29868111  0.69963664  0.45503968  1  -1.257588  0  -0.24549  -0.614023  0  2.232478  0
O  O138  1  0.29519266  0.51379135  0.56331649  1  -1.210239  0  -0.205239  -0.553527  0  2.292694  0
O  O139  1  0.50847036  0.30609448  0.56552666  1  -1.205558  0  -0.203836  -0.549227  0  2.294015  0
O  O140  1  0.70011700  0.30283390  0.54934732  1  -1.25015  0  -0.235386  -0.591993  0  2.2361  0
O  O141  1  0.52100239  0.68895412  0.53646855  1  -1.248725  0  -0.228652  -0.595537  0  2.241891  0
O  O142  1  0.30763252  0.69461238  0.55273241  1  -1.251567  0  -0.233513  -0.588004  0  2.239839  0
O  O143  1  0.49690846  0.49485622  0.50102064  1  -1.604905  0  -0.390768  -1.274052  0  2.293178  0
O  O144  1  0.82262313  0.03136758  0.03371847  1  -1.222916  0  -0.211017  -0.567173  0  2.297299  0
O  O145  1  0.03809016  0.82315109  0.03136917  1  -1.228952  0  -0.213186  -0.572789  0  2.292388  0
O  O146  1  0.02956336  0.64086848  0.04148087  1  -1.248898  0  -0.244071  -0.609146  0  2.229993  0
O  O147  1  0.81639032  0.64787425  0.05243052  1  -1.23279  0  -0.217396  -0.568561  0  2.249746  0
O  O148  1  0.31707992  0.31859317  0.51803522  1  -1.364268  0  -0.572343  -0.988654  0  1.788394  0
O  O149  1  0.01754277  0.01928719  0.96695546  1  -1.354073  0  -0.571937  -0.986429  0  1.792321  0
