# generated using pymatgen
data_CuH12C11NO4
_symmetry_space_group_name_H-M   'P 1'
_cell_length_a   8.67715263
_cell_length_b   13.12277092
_cell_length_c   14.27172479
_cell_angle_alpha   117.38056814
_cell_angle_beta   93.91803501
_cell_angle_gamma   89.98963880
_symmetry_Int_Tables_number   1
_chemical_formula_structural   CuH12C11NO4
_chemical_formula_sum   'Cu4 H48 C44 N4 O16'
_cell_volume   1438.77126626
_cell_formula_units_Z   4
loop_
 _symmetry_equiv_pos_site_id
 _symmetry_equiv_pos_as_xyz
  1  'x, y, z'
loop_
 _atom_site_type_symbol
 _atom_site_label
 _atom_site_symmetry_multiplicity
 _atom_site_fract_x
 _atom_site_fract_y
 _atom_site_fract_z
 _atom_site_occupancy
 _atom_site_pbe_bader_charge
 _atom_site_pbe_bader_spin_density
 _atom_site_pbe_cm5_charge
 _atom_site_pbe_ddec_charge
 _atom_site_pbe_ddec_spin_density
 _atom_site_pbe_ddec_sum_bond_order
 _atom_site_pbe_magmom
Cu  Cu0  1  0.06059400  0.99645085  0.58324503  1  1.066773  0.577487  0.678485  0.752611  0.732918  2.385371  0.579
Cu  Cu1  1  0.43939344  0.41313303  0.41673278  1  1.069959  0.577685  0.678663  0.753207  0.733196  2.38581  0.579
Cu  Cu2  1  0.93940159  0.00354508  0.41675354  1  1.066751  0.577485  0.678429  0.752569  0.732914  2.38539  0.579
Cu  Cu3  1  0.56060085  0.58686643  0.58326676  1  1.069584  0.577676  0.678708  0.753322  0.733207  2.385541  0.579
H  H4  1  0.48397485  0.96671928  0.37352982  1  0.089655  0.000199  0.105894  0.131319  7e-06  0.984759  0.0
H  H5  1  0.37384998  0.85233034  0.26926313  1  0.057522  0.002252  0.09399  0.107196  0.001165  0.982278  0.001
H  H6  1  0.58604746  0.78412245  0.35466274  1  0.04134  0.001151  0.090164  0.088086  0.000527  0.996249  0.001
H  H7  1  0.50810394  0.85973456  0.47838383  1  0.084843  0.000423  0.09353  0.093329  0.000334  1.002747  0.0
H  H8  1  0.25925083  0.74303694  0.40485181  1  0.088201  0.000156  0.106128  0.130035  -0.00012  0.986705  0.0
H  H9  1  0.34322249  0.65691531  0.28467303  1  0.023435  0.002091  0.095445  0.109404  0.001058  0.973028  0.001
H  H10  1  0.22973579  0.16695796  0.79085206  1  0.110239  -4.2e-05  0.114296  0.089896  -2e-06  1.004079  0.0
H  H11  1  0.42911886  0.17049575  0.92824004  1  0.0486  -2.5e-05  0.105177  0.111846  -2.4e-05  0.991522  0.0
H  H12  1  0.38265352  0.79956061  0.77540854  1  0.114375  1.8e-05  0.106765  0.12657  5.2e-05  1.026544  0.0
H  H13  1  0.18607092  0.81295316  0.64699239  1  0.123579  -2.4e-05  0.118958  0.095271  -1.1e-05  0.987246  0.0
H  H14  1  0.58797055  0.89935831  0.91945938  1  0.043718  -8e-06  0.093463  0.093907  -8e-06  1.013499  0.0
H  H15  1  0.63248750  0.04645713  0.96293401  1  0.026317  -1.8e-05  0.093578  0.093202  -1.6e-05  0.995285  0.0
H  H16  1  0.01610716  0.59343491  0.62645629  1  0.068063  0.000213  0.106023  0.131596  4e-06  0.984773  0.0
H  H17  1  0.12622678  0.58322663  0.73067183  1  0.056143  0.002254  0.093836  0.107033  0.001162  0.981878  0.001
H  H18  1  0.91392001  0.42969233  0.64522914  1  0.051925  0.001137  0.090306  0.088224  0.000527  0.995968  0.001
H  H19  1  0.99193186  0.38152790  0.52152465  1  0.03393  0.000442  0.093411  0.093018  0.000334  1.003656  0.0
H  H20  1  0.24071460  0.33830164  0.59509124  1  0.085477  0.000159  0.105915  0.129639  -0.00012  0.987025  0.0
H  H21  1  0.15677631  0.37254145  0.71529336  1  0.01166  0.002119  0.095445  0.109161  0.001058  0.973234  0.001
H  H22  1  0.27000536  0.37636303  0.20911317  1  0.116998  -4.1e-05  0.114324  0.08972  -1e-06  1.003939  0.0
H  H23  1  0.07065538  0.24242444  0.07161029  1  0.055142  -2.5e-05  0.104923  0.111566  -2.4e-05  0.99223  0.0
H  H24  1  0.11717342  0.02431058  0.22440833  1  0.13824  1.5e-05  0.106703  0.126461  5.1e-05  1.026008  0.0
H  H25  1  0.31376704  0.16613275  0.35285145  1  0.116831  -2.5e-05  0.119012  0.095315  -1.3e-05  0.987313  0.0
H  H26  1  0.91172188  0.98025416  0.08057360  1  0.03518  -8e-06  0.093646  0.094294  -8e-06  1.013534  0.0
H  H27  1  0.86750854  0.08362551  0.03672266  1  0.022783  -1.8e-05  0.093341  0.093066  -1.6e-05  0.994936  0.0
H  H28  1  0.51601829  0.03328381  0.62647426  1  0.08965  0.000199  0.105899  0.131315  7e-06  0.984752  0.0
H  H29  1  0.62615342  0.14767034  0.73073504  1  0.057487  0.002252  0.094013  0.107177  0.001165  0.982313  0.001
H  H30  1  0.41395017  0.21588235  0.64534046  1  0.041343  0.001151  0.090171  0.088064  0.000527  0.996242  0.001
H  H31  1  0.49188797  0.14026809  0.52161807  1  0.08489  0.000423  0.093501  0.093292  0.000334  1.002678  0.0
H  H32  1  0.74074685  0.25696228  0.59514576  1  0.088253  0.000156  0.106097  0.129991  -0.00012  0.986705  0.0
H  H33  1  0.65677863  0.34308616  0.71532681  1  0.023404  0.00209  0.095438  0.10938  0.001058  0.973078  0.001
H  H34  1  0.77026315  0.83304331  0.20915016  1  0.110258  -4.2e-05  0.114306  0.089915  -2e-06  1.004044  0.0
H  H35  1  0.57088336  0.82950837  0.07176159  1  0.048695  -2.5e-05  0.105148  0.11178  -2.4e-05  0.991575  0.0
H  H36  1  0.61735340  0.20044341  0.22459472  1  0.114336  1.8e-05  0.106777  0.1266  5.2e-05  1.026538  0.0
H  H37  1  0.81393386  0.18704876  0.35301221  1  0.123513  -2.4e-05  0.118947  0.095241  -1.1e-05  0.987303  0.0
H  H38  1  0.41203505  0.10064695  0.08054168  1  0.04371  -8e-06  0.093447  0.093831  -8e-06  1.013456  0.0
H  H39  1  0.36751936  0.95354580  0.03706642  1  0.02641  -1.8e-05  0.093581  0.09318  -1.6e-05  0.995262  0.0
H  H40  1  0.98388520  0.40655628  0.37354182  1  0.068291  0.000213  0.106005  0.13158  4e-06  0.984777  0.0
H  H41  1  0.87377019  0.41676616  0.26932789  1  0.056145  0.002254  0.093815  0.107055  0.001162  0.981788  0.001
H  H42  1  0.08608522  0.57029814  0.35477167  1  0.052098  0.001136  0.090302  0.088224  0.000527  0.99601  0.001
H  H43  1  0.00806641  0.61846205  0.47847479  1  0.033898  0.000442  0.093407  0.093039  0.000334  1.00368  0.0
H  H44  1  0.75928797  0.66169341  0.40490729  1  0.085541  0.000158  0.105884  0.129616  -0.00012  0.987118  0.0
H  H45  1  0.84323314  0.62745511  0.28470582  1  0.011705  0.002119  0.095454  0.109177  0.001058  0.973275  0.001
H  H46  1  0.72998987  0.62363897  0.79088462  1  0.117055  -4.1e-05  0.114357  0.089762  -1e-06  1.003919  0.0
H  H47  1  0.92934341  0.75757534  0.92838698  1  0.055202  -2.5e-05  0.104933  0.111608  -2.4e-05  0.992251  0.0
H  H48  1  0.88283112  0.97568786  0.77558672  1  0.138332  1.4e-05  0.106678  0.126445  5.1e-05  1.026019  0.0
H  H49  1  0.68623167  0.83386732  0.64714439  1  0.116747  -2.5e-05  0.119014  0.095335  -1.3e-05  0.987299  0.0
H  H50  1  0.08828049  0.01974199  0.91942173  1  0.035454  -8e-06  0.093661  0.094283  -8e-06  1.013485  0.0
H  H51  1  0.13249495  0.91637049  0.96327165  1  0.022985  -1.8e-05  0.093337  0.09309  -1.6e-05  0.994928  0.0
C  C52  1  0.25500231  0.94347140  0.40881536  1  1.539862  -0.000886  0.213175  0.623621  -0.001879  4.114313  -0.004
C  C53  1  0.40229615  0.89460322  0.35527921  1  -0.064149  0.018734  -0.162014  -0.290689  0.013443  3.90301  0.014
C  C54  1  0.47761336  0.81301801  0.39292654  1  -0.035203  0.004657  -0.165789  -0.100026  0.003289  3.927783  0.003
C  C55  1  0.36980714  0.71082115  0.37007938  1  -0.0359  0.017844  -0.163768  -0.289613  0.012863  3.904771  0.014
C  C56  1  0.42603513  0.63401300  0.41770278  1  1.541188  -0.001204  0.215478  0.629412  -0.002217  4.113349  -0.004
C  C57  1  0.26610840  0.08803918  0.79225707  1  0.457866  -0.000463  0.039381  0.087197  -0.000593  3.987965  0.0
C  C58  1  0.37716349  0.08898681  0.86761206  1  -0.020334  0.000298  -0.092561  -0.202161  0.000188  3.988471  0.0
C  C59  1  0.42205413  0.98504308  0.86461793  1  -0.073146  -0.00055  0.007673  0.157639  -0.000609  3.96865  0.0
C  C60  1  0.35203385  0.88383820  0.78396137  1  -0.009255  0.00034  -0.085357  -0.18526  0.00022  3.919099  0.0
C  C61  1  0.24180285  0.89034108  0.71135975  1  0.479649  -0.000532  0.052114  0.115687  -0.000626  3.925729  0.0
C  C62  1  0.53719940  0.98416796  0.94762783  1  0.010724  -2.7e-05  -0.156196  -0.194831  -5.5e-05  3.939743  0.0
C  C63  1  0.24497393  0.53475519  0.59110640  1  1.547574  -0.000937  0.212663  0.623411  -0.001867  4.11572  -0.004
C  C64  1  0.09773072  0.53949578  0.64465717  1  -0.045773  0.018723  -0.16204  -0.290902  0.013438  3.903094  0.014
C  C65  1  0.02238503  0.42026762  0.60699006  1  0.006933  0.004641  -0.165407  -0.099711  0.00329  3.926896  0.003
C  C66  1  0.13016718  0.34089392  0.62987693  1  -0.014496  0.017791  -0.163932  -0.288864  0.012894  3.902829  0.014
C  C67  1  0.07398351  0.21641723  0.58237861  1  1.547346  -0.001154  0.215525  0.628822  -0.002223  4.113926  -0.004
C  C68  1  0.23363170  0.29600933  0.20763715  1  0.439997  -0.000461  0.039879  0.08839  -0.00059  3.986642  0.0
C  C69  1  0.12261918  0.22157247  0.13225225  1  -0.0393  0.0003  -0.092906  -0.202486  0.000189  3.989139  0.0
C  C70  1  0.07777040  0.12063001  0.13526937  1  -0.006924  -0.000549  0.008  0.157144  -0.000609  3.970523  0.0
C  C71  1  0.14782495  0.10003230  0.21587487  1  -0.075241  0.00034  -0.085281  -0.185172  0.000219  3.919682  0.0
C  C72  1  0.25801994  0.17914696  0.28849908  1  0.514074  -0.00053  0.052466  0.116499  -0.000625  3.925683  0.0
C  C73  1  0.96267096  0.03672121  0.05228489  1  -0.014477  -2.8e-05  -0.156202  -0.194699  -5.5e-05  3.940109  0.0
C  C74  1  0.74499083  0.05652731  0.59118343  1  1.540165  -0.000884  0.213161  0.623569  -0.001879  4.114141  -0.004
C  C75  1  0.59769791  0.10540013  0.64471994  1  -0.064005  0.018733  -0.162051  -0.290649  0.013443  3.90289  0.014
C  C76  1  0.52238090  0.18698424  0.60707582  1  -0.035285  0.004657  -0.165758  -0.099931  0.003289  3.927558  0.003
C  C77  1  0.63018948  0.28918071  0.62992344  1  -0.035628  0.017845  -0.163754  -0.289599  0.012864  3.904648  0.014
C  C78  1  0.57396473  0.36599729  0.58230507  1  1.541123  -0.001202  0.215521  0.629433  -0.002217  4.113191  -0.004
C  C79  1  0.73389280  0.91196339  0.20774559  1  0.45789  -0.000463  0.039416  0.087186  -0.000593  3.987921  0.0
C  C80  1  0.62283877  0.91101680  0.13238993  1  -0.020357  0.000298  -0.092539  -0.202041  0.000188  3.988473  0.0
C  C81  1  0.57795159  0.01496139  0.13538492  1  -0.073094  -0.00055  0.007607  0.157473  -0.000609  3.968772  0.0
C  C82  1  0.64797307  0.11616652  0.21604259  1  -0.009245  0.00034  -0.085267  -0.185135  0.00022  3.919003  0.0
C  C83  1  0.75820070  0.10966109  0.28864338  1  0.479588  -0.000532  0.052093  0.115638  -0.000626  3.925856  0.0
C  C84  1  0.46280647  0.01583292  0.05237399  1  -0.005893  -2.7e-05  -0.156197  -0.194728  -5.5e-05  3.939772  0.0
C  C85  1  0.75502493  0.46525007  0.40889897  1  1.547607  -0.000937  0.212565  0.623312  -0.001867  4.115923  -0.004
C  C86  1  0.90226491  0.46050034  0.35534247  1  -0.046123  0.018724  -0.162029  -0.290914  0.013438  3.903039  0.014
C  C87  1  0.97761998  0.57972673  0.39301036  1  0.00715  0.004641  -0.165372  -0.099748  0.00329  3.926986  0.003
C  C88  1  0.86983539  0.65910112  0.37012160  1  -0.014918  0.017793  -0.163873  -0.288755  0.012895  3.902892  0.014
C  C89  1  0.92602263  0.78357927  0.41762396  1  1.547237  -0.001155  0.215566  0.628716  -0.002223  4.113558  -0.004
C  C90  1  0.76636468  0.70399273  0.79236069  1  0.43989  -0.000461  0.039861  0.088359  -0.00059  3.986661  0.0
C  C91  1  0.87738187  0.77842790  0.86774475  1  -0.038949  0.000301  -0.092924  -0.202549  0.000189  3.989162  0.0
C  C92  1  0.92223303  0.87936788  0.86472599  1  -0.007165  -0.000549  0.007988  0.15718  -0.000609  3.970446  0.0
C  C93  1  0.85217842  0.89996678  0.78412083  1  -0.07598  0.00034  -0.085186  -0.185078  0.000219  3.919546  0.0
C  C94  1  0.74197996  0.82085267  0.71149717  1  0.514691  -0.00053  0.052354  0.116412  -0.000625  3.925629  0.0
C  C95  1  0.03733137  0.96327473  0.94770937  1  0.002673  -2.7e-05  -0.156213  -0.194729  -5.5e-05  3.94008  0.0
N  N96  1  0.19824136  0.99047312  0.71524294  1  -1.222746  -0.00144  -0.338612  -0.255516  -0.000763  3.512775  0.0
N  N97  1  0.30150722  0.27540561  0.28462433  1  -1.232308  -0.001437  -0.338927  -0.256774  -0.000752  3.513089  0.0
N  N98  1  0.80175993  0.00952775  0.28475974  1  -1.222726  -0.00144  -0.338635  -0.255496  -0.000763  3.512893  0.0
N  N99  1  0.69848930  0.72459425  0.71537390  1  -1.232467  -0.001436  -0.338882  -0.256799  -0.000752  3.513063  0.0
O  O100  1  0.25163587  0.96065316  0.50399772  1  -1.1171  0.089719  -0.311237  -0.521635  0.056816  2.377153  0.082
O  O101  1  0.14530142  0.96199279  0.35490248  1  -1.120558  0.096864  -0.318638  -0.533892  0.061473  2.34184  0.088
O  O102  1  0.39318544  0.52687409  0.36222236  1  -1.126789  0.100548  -0.318043  -0.539616  0.063789  2.36834  0.092
O  O103  1  0.49697814  0.68106420  0.50960398  1  -1.116621  0.092379  -0.311742  -0.523088  0.058656  2.332467  0.084
O  O104  1  0.24838994  0.45663420  0.49596846  1  -1.122352  0.089681  -0.311016  -0.5218  0.056769  2.378195  0.082
O  O105  1  0.35463110  0.60721711  0.64497658  1  -1.120715  0.0968  -0.318488  -0.533826  0.061328  2.343013  0.088
O  O106  1  0.10689723  0.16481635  0.63787449  1  -1.127562  0.100519  -0.317786  -0.539408  0.063817  2.36901  0.092
O  O107  1  0.00303167  0.17146753  0.49046395  1  -1.125489  0.092458  -0.311807  -0.522812  0.058748  2.332313  0.084
O  O108  1  0.74835729  0.03934277  0.49599826  1  -1.117135  0.089728  -0.311242  -0.521639  0.056821  2.376929  0.082
O  O109  1  0.85469265  0.03800916  0.64509527  1  -1.120877  0.096852  -0.318637  -0.533902  0.061466  2.342014  0.088
O  O110  1  0.60680881  0.47312956  0.63778141  1  -1.12705  0.100535  -0.318047  -0.539589  0.06378  2.368493  0.092
O  O111  1  0.50302054  0.31894006  0.49039608  1  -1.116667  0.092389  -0.311764  -0.523112  0.058663  2.332206  0.084
O  O112  1  0.75161128  0.54336558  0.50403139  1  -1.122452  0.08967  -0.310982  -0.521783  0.056762  2.378431  0.082
O  O113  1  0.64536202  0.39278439  0.35502502  1  -1.120598  0.096814  -0.318472  -0.533818  0.061336  2.342932  0.088
O  O114  1  0.89310657  0.83517985  0.36212692  1  -1.12745  0.100516  -0.31785  -0.539396  0.063814  2.368726  0.092
O  O115  1  0.99696638  0.82852999  0.50953968  1  -1.12539  0.092461  -0.311794  -0.522772  0.05875  2.332283  0.084
