# generated using pymatgen
data_ZnH8C12(NO2)2
_symmetry_space_group_name_H-M   'P 1'
_cell_length_a   8.31371392
_cell_length_b   11.71421373
_cell_length_c   12.69697359
_cell_angle_alpha   90.00001850
_cell_angle_beta   89.99984047
_cell_angle_gamma   90.00003491
_symmetry_Int_Tables_number   1
_chemical_formula_structural   ZnH8C12(NO2)2
_chemical_formula_sum   'Zn4 H32 C48 N8 O16'
_cell_volume   1236.54075836
_cell_formula_units_Z   4
loop_
 _symmetry_equiv_pos_site_id
 _symmetry_equiv_pos_as_xyz
  1  'x, y, z'
loop_
 _atom_site_type_symbol
 _atom_site_label
 _atom_site_symmetry_multiplicity
 _atom_site_fract_x
 _atom_site_fract_y
 _atom_site_fract_z
 _atom_site_occupancy
 _atom_site_hle17_bader_spin_density
 _atom_site_hle17_ddec_charge
 _atom_site_hle17_ddec_spin_density
 _atom_site_hle17_ddec_sum_bond_order
 _atom_site_hle17_magmom
 _atom_site_hse06_10hf_bader_spin_density
 _atom_site_hse06_10hf_ddec_charge
 _atom_site_hse06_10hf_ddec_spin_density
 _atom_site_hse06_10hf_ddec_sum_bond_order
 _atom_site_hse06_10hf_magmom
 _atom_site_hse06_bader_spin_density
 _atom_site_hse06_ddec_charge
 _atom_site_hse06_ddec_spin_density
 _atom_site_hse06_ddec_sum_bond_order
 _atom_site_hse06_magmom
 _atom_site_pbe_bader_spin_density
 _atom_site_pbe_cm5_charge
 _atom_site_pbe_ddec_charge
 _atom_site_pbe_ddec_spin_density
 _atom_site_pbe_ddec_sum_bond_order
 _atom_site_pbe_magmom
Zn  Zn0  1  0.89364599  0.42698835  0.24706365  1  0  0.989121  0  1.8793  0  0  0.793538  0  2.358987  0  0  0.84095  0  2.303138  0  0  0.702985  0.760553  0  2.397331  0
Zn  Zn1  1  0.60636061  0.57301098  0.74706418  1  0  0.989209  0  1.879142  0  0  0.793598  0  2.358794  0  0  0.841014  0  2.302951  0  0  0.703015  0.760618  0  2.397143  0
Zn  Zn2  1  0.10635183  0.92698845  0.25293749  1  0  0.989055  0  1.879378  0  0  0.793429  0  2.359069  0  0  0.840846  0  2.303226  0  0  0.702949  0.760448  0  2.39741  0
Zn  Zn3  1  0.39364679  0.07300896  0.75293814  1  0  0.989203  0  1.879219  0  0  0.79359  0  2.358885  0  0  0.841007  0  2.30304  0  0  0.703053  0.760623  0  2.397235  0
H  H4  1  0.17982321  0.34021325  0.13928505  1  0  0.090941  0  0.953508  0  0  0.098325  0  1.01771  0  0  0.101096  0  1.015425  0  0  0.119421  0.096206  0  1.01955  0
H  H5  1  0.32017470  0.65978923  0.63928601  1  0  0.090925  0  0.953503  0  0  0.098315  0  1.017708  0  0  0.101089  0  1.015414  0  0  0.119408  0.096194  0  1.019552  0
H  H6  1  0.82018056  0.84021199  0.36071763  1  0  0.090967  0  0.953506  0  0  0.098348  0  1.017719  0  0  0.101122  0  1.015427  0  0  0.119425  0.096228  0  1.019558  0
H  H7  1  0.67981954  0.15978994  0.86072106  1  0  0.090959  0  0.953505  0  0  0.098351  0  1.0177  0  0  0.101122  0  1.015416  0  0  0.11944  0.096234  0  1.01954  0
H  H8  1  0.36935161  0.40600701  0.99652775  1  0  0.123434  0  0.940795  0  0  0.131627  0  1.002361  0  0  0.135637  0  1.000137  0  0  0.114903  0.128697  0  1.00419  0
H  H9  1  0.13064837  0.59399218  0.49652617  1  0  0.123418  0  0.94081  0  0  0.131585  0  1.0024  0  0  0.135594  0  1.000178  0  0  0.114903  0.128656  0  1.004227  0
H  H10  1  0.63064886  0.90600555  0.50347388  1  0  0.123424  0  0.940834  0  0  0.131598  0  1.002414  0  0  0.135607  0  1.000192  0  0  0.114893  0.128669  0  1.004243  0
H  H11  1  0.86935157  0.09398943  0.00347959  1  0  0.123472  0  0.940784  0  0  0.131652  0  1.002354  0  0  0.135663  0  1.000127  0  0  0.114938  0.128725  0  1.004182  0
H  H12  1  0.07868989  0.70803746  0.96391084  1  0  0.118057  0  0.938472  0  0  0.127629  0  0.996362  0  0  0.131195  0  0.995071  0  0  0.113663  0.125053  0  0.997446  0
H  H13  1  0.42131384  0.29196770  0.46390628  1  0  0.118059  0  0.938556  0  0  0.127659  0  0.996396  0  0  0.1312  0  0.99513  0  0  0.113658  0.125083  0  0.997482  0
H  H14  1  0.92130920  0.20803645  0.53609388  1  0  0.118042  0  0.938549  0  0  0.127627  0  0.996415  0  0  0.131183  0  0.995135  0  0  0.113651  0.125053  0  0.997499  0
H  H15  1  0.57868387  0.79196024  0.03609009  1  0  0.118054  0  0.938635  0  0  0.127642  0  0.996487  0  0  0.131199  0  0.995205  0  0  0.113673  0.125072  0  0.997567  0
H  H16  1  0.90425895  0.63467705  0.11099266  1  0  0.091008  0  0.958273  0  0  0.09784  0  1.023474  0  0  0.100376  0  1.021718  0  0  0.118719  0.095964  0  1.024797  0
H  H17  1  0.59574222  0.36532565  0.61099315  1  0  0.091004  0  0.958238  0  0  0.097864  0  1.023408  0  0  0.100403  0  1.021651  0  0  0.118716  0.095986  0  1.024733  0
H  H18  1  0.09573862  0.13467835  0.38901075  1  0  0.091019  0  0.958296  0  0  0.09785  0  1.023481  0  0  0.100384  0  1.021724  0  0  0.118725  0.095973  0  1.024803  0
H  H19  1  0.40425701  0.86532336  0.88900611  1  0  0.090992  0  0.958317  0  0  0.097836  0  1.023496  0  0  0.100376  0  1.021741  0  0  0.118714  0.095962  0  1.024819  0
H  H20  1  0.79665413  0.58062735  0.41865662  1  0  0.101003  0  0.951214  0  0  0.108553  0  1.014719  0  0  0.112083  0  1.01079  0  0  0.120689  0.105949  0  1.017561  0
H  H21  1  0.70334812  0.41936947  0.91864748  1  0  0.101097  0  0.95118  0  0  0.108613  0  1.014709  0  0  0.112145  0  1.010783  0  0  0.120691  0.106011  0  1.017547  0
H  H22  1  0.20333979  0.08062519  0.08134756  1  0  0.100993  0  0.951299  0  0  0.10854  0  1.014795  0  0  0.11207  0  1.010866  0  0  0.120695  0.105936  0  1.017638  0
H  H23  1  0.29665476  0.91938325  0.58135101  1  0  0.101077  0  0.951159  0  0  0.108564  0  1.014721  0  0  0.112091  0  1.010795  0  0  0.12071  0.105968  0  1.017564  0
H  H24  1  0.56936578  0.71098262  0.46226330  1  0  0.114825  0  0.954274  0  0  0.122193  0  1.018917  0  0  0.125681  0  1.017414  0  0  0.110899  0.119679  0  1.020134  0
H  H25  1  0.93063388  0.28901934  0.96226316  1  0  0.114913  0  0.954189  0  0  0.122243  0  1.018839  0  0  0.125732  0  1.017334  0  0  0.110934  0.11973  0  1.020056  0
H  H26  1  0.43062344  0.21098311  0.03773777  1  0  0.114824  0  0.954263  0  0  0.122207  0  1.018871  0  0  0.125697  0  1.017365  0  0  0.110908  0.119693  0  1.020093  0
H  H27  1  0.06937491  0.78902105  0.53773765  1  0  0.114889  0  0.95416  0  0  0.122243  0  1.018816  0  0  0.125732  0  1.017311  0  0  0.110907  0.119728  0  1.020035  0
H  H28  1  0.36949064  0.63988514  0.15641893  1  0  0.108649  0  0.970964  0  0  0.115507  0  1.035405  0  0  0.118052  0  1.036016  0  0  0.106154  0.113671  0  1.035145  0
H  H29  1  0.13052765  0.36011309  0.65643038  1  0  0.108643  0  0.971083  0  0  0.115455  0  1.035551  0  0  0.117998  0  1.036165  0  0  0.106157  0.113626  0  1.035282  0
H  H30  1  0.63050815  0.13988923  0.34357818  1  0  0.108682  0  0.971013  0  0  0.115517  0  1.035471  0  0  0.118063  0  1.036083  0  0  0.106182  0.113685  0  1.035207  0
H  H31  1  0.86948481  0.86010757  0.84357517  1  0  0.108698  0  0.971089  0  0  0.115544  0  1.035511  0  0  0.118089  0  1.036123  0  0  0.106164  0.113712  0  1.035249  0
H  H32  1  0.60530343  0.50874023  0.12374241  1  0  0.087903  0  0.959268  0  0  0.095426  0  1.024078  0  0  0.098071  0  1.021991  0  0  0.117887  0.093448  0  1.025688  0
H  H33  1  0.89471452  0.49125564  0.62374161  1  0  0.08783  0  0.959309  0  0  0.095367  0  1.024108  0  0  0.098013  0  1.022021  0  0  0.11789  0.093395  0  1.02571  0
H  H34  1  0.39469644  0.00874594  0.37625860  1  0  0.087789  0  0.959369  0  0  0.09533  0  1.02417  0  0  0.097974  0  1.022084  0  0  0.117873  0.093358  0  1.025774  0
H  H35  1  0.10529444  0.99125578  0.87626241  1  0  0.087828  0  0.959405  0  0  0.095358  0  1.024213  0  0  0.098003  0  1.022128  0  0  0.117882  0.093383  0  1.025821  0
C  C36  1  0.34743634  0.60454272  0.88392538  1  0  0.628255  0  3.939195  0  0  0.583381  0  4.22777  0  0  0.616432  0  4.220353  0  0  0.202919  0.56101  0  4.231891  0
C  C37  1  0.15257014  0.39545472  0.38392527  1  0  0.628129  0  3.939606  0  0  0.58332  0  4.228126  0  0  0.616371  0  4.220712  0  0  0.20286  0.560954  0  4.232245  0
C  C38  1  0.65256147  0.10454418  0.61607458  1  0  0.628165  0  3.939469  0  0  0.583274  0  4.228054  0  0  0.616325  0  4.220638  0  0  0.202927  0.560911  0  4.23217  0
C  C39  1  0.84743126  0.89544827  0.11607664  1  0  0.628071  0  3.939687  0  0  0.583252  0  4.228242  0  0  0.616304  0  4.220825  0  0  0.202932  0.560884  0  4.232367  0
C  C40  1  0.16137069  0.42028007  0.09730500  1  0  0.128852  0  3.681305  0  0  0.097308  0  3.932727  0  0  0.104037  0  3.950498  0  0  0.051402  0.092934  0  3.920703  0
C  C41  1  0.33863221  0.57972069  0.59730433  1  0  0.128895  0  3.681427  0  0  0.097329  0  3.932834  0  0  0.104057  0  3.95061  0  0  0.051451  0.092959  0  3.920812  0
C  C42  1  0.83862713  0.92028054  0.40269613  1  0  0.128786  0  3.681409  0  0  0.09722  0  3.932834  0  0  0.103947  0  3.95061  0  0  0.051367  0.092854  0  3.92081  0
C  C43  1  0.66136798  0.07971969  0.90269642  1  0  0.128833  0  3.681421  0  0  0.097262  0  3.932831  0  0  0.103987  0  3.950606  0  0  0.051401  0.092901  0  3.92081  0
C  C44  1  0.26550123  0.45710543  0.01895002  1  0  -0.115802  0  3.694663  0  0  -0.139772  0  3.946933  0  0  -0.146047  0  3.96819  0  0  -0.072755  -0.135756  0  3.932785  0
C  C45  1  0.23450201  0.54289531  0.51895110  1  0  -0.115757  0  3.694803  0  0  -0.139661  0  3.947093  0  0  -0.145933  0  3.96835  0  0  -0.072753  -0.135647  0  3.932943  0
C  C46  1  0.73450023  0.95710588  0.48105270  1  0  -0.115812  0  3.694683  0  0  -0.139751  0  3.946938  0  0  -0.146028  0  3.968202  0  0  -0.072769  -0.135733  0  3.932788  0
C  C47  1  0.76549815  0.04289097  0.98105200  1  0  -0.115871  0  3.694656  0  0  -0.13977  0  3.94696  0  0  -0.146044  0  3.968225  0  0  -0.072794  -0.135752  0  3.932807  0
C  C48  1  0.23662766  0.56185355  0.96956005  1  0  -0.002995  0  3.717396  0  0  0.015192  0  3.948495  0  0  0.013796  0  3.968232  0  0  0.006877  0.016153  0  3.935215  0
C  C49  1  0.26337244  0.43814905  0.46955739  1  0  -0.002961  0  3.717388  0  0  0.015101  0  3.948593  0  0  0.013704  0  3.968326  0  0  0.006909  0.016059  0  3.935313  0
C  C50  1  0.76337011  0.06185588  0.53044226  1  0  -0.002928  0  3.717416  0  0  0.015265  0  3.948479  0  0  0.013868  0  3.968214  0  0  0.006941  0.016221  0  3.935201  0
C  C51  1  0.73662419  0.93814423  0.03044453  1  0  -0.002905  0  3.71728  0  0  0.015115  0  3.948587  0  0  0.013716  0  3.968327  0  0  0.006863  0.01608  0  3.935304  0
C  C52  1  0.10349071  0.62616411  0.00115618  1  0  -0.109407  0  3.687145  0  0  -0.129158  0  3.929288  0  0  -0.134372  0  3.948494  0  0  -0.06995  -0.125895  0  3.916607  0
C  C53  1  0.39651260  0.37383918  0.50115062  1  0  -0.109542  0  3.687117  0  0  -0.129271  0  3.929254  0  0  -0.134463  0  3.948469  0  0  -0.070048  -0.126007  0  3.916574  0
C  C54  1  0.89650926  0.12616581  0.49884722  1  0  -0.109484  0  3.687237  0  0  -0.129257  0  3.929352  0  0  -0.134463  0  3.948561  0  0  -0.070007  -0.125989  0  3.916669  0
C  C55  1  0.60348543  0.87383189  0.99884785  1  0  -0.109509  0  3.687072  0  0  -0.129233  0  3.929254  0  0  -0.134438  0  3.948465  0  0  -0.069999  -0.125965  0  3.916567  0
C  C56  1  0.00554392  0.58490910  0.08127299  1  0  0.135106  0  3.669296  0  0  0.10343  0  3.919077  0  0  0.110469  0  3.936243  0  0  0.053862  0.098825  0  3.907471  0
C  C57  1  0.49445664  0.41509166  0.58127199  1  0  0.135174  0  3.669228  0  0  0.103485  0  3.918956  0  0  0.110523  0  3.936119  0  0  0.053894  0.09888  0  3.907356  0
C  C58  1  0.99445481  0.08491081  0.41872803  1  0  0.135153  0  3.669279  0  0  0.103498  0  3.91903  0  0  0.110542  0  3.936189  0  0  0.05389  0.098894  0  3.907428  0
C  C59  1  0.50554022  0.91508943  0.91872649  1  0  0.135172  0  3.669242  0  0  0.103499  0  3.918961  0  0  0.110535  0  3.936129  0  0  0.053918  0.098904  0  3.90736  0
C  C60  1  0.31823765  0.76907863  0.33216717  1  0  0.626972  0  3.933383  0  0  0.580554  0  4.222258  0  0  0.613997  0  4.214619  0  0  0.202926  0.557936  0  4.226469  0
C  C61  1  0.18177026  0.23092904  0.83216904  1  0  0.626755  0  3.933567  0  0  0.580336  0  4.222527  0  0  0.613781  0  4.214888  0  0  0.202824  0.557715  0  4.226736  0
C  C62  1  0.68175764  0.26906988  0.16783312  1  0  0.627001  0  3.933328  0  0  0.580606  0  4.222231  0  0  0.614051  0  4.214591  0  0  0.202935  0.557979  0  4.226447  0
C  C63  1  0.81823968  0.73092942  0.66782938  1  0  0.626877  0  3.933422  0  0  0.580425  0  4.222354  0  0  0.613869  0  4.214715  0  0  0.202925  0.557804  0  4.226568  0
C  C64  1  0.69962061  0.59525485  0.36266541  1  0  0.132489  0  3.658816  0  0  0.101628  0  3.905465  0  0  0.108235  0  3.92261  0  0  0.051947  0.097358  0  3.893841  0
C  C65  1  0.80038549  0.40474110  0.86266554  1  0  0.13244  0  3.658726  0  0  0.101594  0  3.905317  0  0  0.108194  0  3.922465  0  0  0.052011  0.097328  0  3.893694  0
C  C66  1  0.30037332  0.09525531  0.13733562  1  0  0.132547  0  3.658854  0  0  0.10167  0  3.905468  0  0  0.108277  0  3.92261  0  0  0.051974  0.097397  0  3.893852  0
C  C67  1  0.19961978  0.90474974  0.63733687  1  0  0.13238  0  3.658808  0  0  0.101552  0  3.905483  0  0  0.10816  0  3.922626  0  0  0.051926  0.097275  0  3.893865  0
C  C68  1  0.57281084  0.66792125  0.38643734  1  0  -0.111928  0  3.700879  0  0  -0.135847  0  3.950765  0  0  -0.141951  0  3.973308  0  0  -0.073236  -0.131895  0  3.935692  0
C  C69  1  0.92719636  0.33208069  0.88643880  1  0  -0.112089  0  3.701027  0  0  -0.135909  0  3.950952  0  0  -0.142011  0  3.973493  0  0  -0.073269  -0.131953  0  3.935883  0
C  C70  1  0.42718195  0.16792005  0.11356371  1  0  -0.111951  0  3.70099  0  0  -0.135822  0  3.950906  0  0  -0.141924  0  3.973443  0  0  -0.073288  -0.131871  0  3.935841  0
C  C71  1  0.07281005  0.83208499  0.61356360  1  0  -0.111964  0  3.701092  0  0  -0.135868  0  3.950991  0  0  -0.141972  0  3.973532  0  0  -0.073247  -0.131908  0  3.935914  0
C  C72  1  0.45184581  0.68499448  0.31183858  1  0  0.003391  0  3.71122  0  0  0.024399  0  3.936374  0  0  0.022403  0  3.956584  0  0  0.008455  0.025761  0  3.922758  0
C  C73  1  0.04815617  0.31499867  0.81184465  1  0  0.003779  0  3.711356  0  0  0.024615  0  3.936699  0  0  0.022619  0  3.956906  0  0  0.008502  0.025977  0  3.923086  0
C  C74  1  0.54814338  0.18499763  0.18816091  1  0  0.003426  0  3.711378  0  0  0.024301  0  3.936714  0  0  0.022305  0  3.956922  0  0  0.008453  0.025663  0  3.9231  0
C  C75  1  0.95185024  0.81500338  0.68815853  1  0  0.003474  0  3.711529  0  0  0.024482  0  3.936685  0  0  0.022488  0  3.956891  0  0  0.008505  0.025844  0  3.923069  0
C  C76  1  0.46224207  0.62745668  0.21570305  1  0  -0.111274  0  3.701519  0  0  -0.133197  0  3.946753  0  0  -0.138256  0  3.967373  0  0  -0.076176  -0.13  0  3.933038  0
C  C77  1  0.03777355  0.37254498  0.71571073  1  0  -0.111477  0  3.701641  0  0  -0.133274  0  3.946914  0  0  -0.138332  0  3.967535  0  0  -0.076198  -0.130073  0  3.933192  0
C  C78  1  0.53775429  0.12745644  0.28429720  1  0  -0.111313  0  3.701532  0  0  -0.133189  0  3.946863  0  0  -0.138247  0  3.967482  0  0  -0.076135  -0.12999  0  3.933148  0
C  C79  1  0.96223771  0.87254376  0.78429561  1  0  -0.111416  0  3.701746  0  0  -0.133309  0  3.946964  0  0  -0.138366  0  3.967581  0  0  -0.076177  -0.13011  0  3.93325  0
C  C80  1  0.59230670  0.55607163  0.19715362  1  0  0.124339  0  3.686261  0  0  0.093669  0  3.935012  0  0  0.099852  0  3.953003  0  0  0.048092  0.089649  0  3.922808  0
C  C81  1  0.90770613  0.44392597  0.69715593  1  0  0.124519  0  3.686696  0  0  0.093803  0  3.935423  0  0  0.099988  0  3.953414  0  0  0.04815  0.089782  0  3.923216  0
C  C82  1  0.40769081  0.05607305  0.30284582  1  0  0.124531  0  3.686276  0  0  0.093822  0  3.935053  0  0  0.100006  0  3.953046  0  0  0.048107  0.0898  0  3.92285  0
C  C83  1  0.09230399  0.94392693  0.80284965  1  0  0.124463  0  3.686466  0  0  0.09377  0  3.935201  0  0  0.099953  0  3.953193  0  0  0.048082  0.089749  0  3.923002  0
N  N84  1  0.03384160  0.48334361  0.12805182  1  0  -0.331358  0  3.323723  0  0  -0.24466  0  3.605536  0  0  -0.263394  0  3.618409  0  0  -0.329029  -0.23204  0  3.596703  0
N  N85  1  0.46615876  0.51665290  0.62805090  1  0  -0.331332  0  3.323711  0  0  -0.244629  0  3.6055  0  0  -0.263366  0  3.618384  0  0  -0.328999  -0.232015  0  3.596679  0
N  N86  1  0.96615747  0.98334668  0.37195012  1  0  -0.331285  0  3.323704  0  0  -0.244587  0  3.605499  0  0  -0.263322  0  3.618377  0  0  -0.328971  -0.231973  0  3.596673  0
N  N87  1  0.53383777  0.01665525  0.87195219  1  0  -0.331351  0  3.323831  0  0  -0.244626  0  3.605589  0  0  -0.263362  0  3.618473  0  0  -0.329037  -0.232021  0  3.596774  0
N  N88  1  0.70925547  0.54020291  0.26952351  1  0  -0.328498  0  3.298631  0  0  -0.240929  0  3.570985  0  0  -0.259694  0  3.585643  0  0  -0.328819  -0.228232  0  3.560883  0
N  N89  1  0.79075464  0.45979216  0.76951974  1  0  -0.328705  0  3.298923  0  0  -0.241058  0  3.571197  0  0  -0.259824  0  3.585854  0  0  -0.328917  -0.228358  0  3.561098  0
N  N90  1  0.29074082  0.04020511  0.23047908  1  0  -0.328647  0  3.298679  0  0  -0.241007  0  3.570975  0  0  -0.259773  0  3.585632  0  0  -0.328849  -0.228307  0  3.560874  0
N  N91  1  0.20925188  0.95979912  0.73048191  1  0  -0.328524  0  3.298641  0  0  -0.240906  0  3.57094  0  0  -0.259671  0  3.585597  0  0  -0.328807  -0.228214  0  3.560849  0
O  O92  1  0.48078468  0.54771179  0.87650537  1  0  -0.644419  0  2.047337  0  0  -0.570484  0  2.313307  0  0  -0.599513  0  2.297957  0  0  -0.334232  -0.550089  0  2.32303  0
O  O93  1  0.01921342  0.45229334  0.37650710  1  0  -0.644337  0  2.047273  0  0  -0.570414  0  2.313211  0  0  -0.599447  0  2.297863  0  0  -0.334188  -0.550022  0  2.322933  0
O  O94  1  0.51921669  0.04770722  0.62349221  1  0  -0.64433  0  2.047342  0  0  -0.570372  0  2.313278  0  0  -0.599403  0  2.297932  0  0  -0.334182  -0.549977  0  2.322995  0
O  O95  1  0.98078322  0.95229377  0.12349326  1  0  -0.644315  0  2.047261  0  0  -0.570373  0  2.313185  0  0  -0.599407  0  2.29784  0  0  -0.334196  -0.549968  0  2.3229  0
O  O96  1  0.30606148  0.68693406  0.82786168  1  0  -0.600546  0  1.906399  0  0  -0.561913  0  2.124398  0  0  -0.583973  0  2.117173  0  0  -0.317738  -0.546474  0  2.128863  0
O  O97  1  0.19393441  0.31307446  0.32785753  1  0  -0.600491  0  1.906928  0  0  -0.561873  0  2.124906  0  0  -0.583924  0  2.117671  0  0  -0.317708  -0.546439  0  2.129371  0
O  O98  1  0.69393278  0.18692873  0.67214225  1  0  -0.600558  0  1.906626  0  0  -0.561926  0  2.124637  0  0  -0.583983  0  2.117406  0  0  -0.317796  -0.546495  0  2.129107  0
O  O99  1  0.80606812  0.81306972  0.17214357  1  0  -0.600434  0  1.907016  0  0  -0.561796  0  2.12499  0  0  -0.583849  0  2.117754  0  0  -0.317737  -0.546362  0  2.129462  0
O  O100  1  0.21529826  0.77880097  0.25594753  1  0  -0.638156  0  2.034669  0  0  -0.565025  0  2.300285  0  0  -0.59315  0  2.284167  0  0  -0.335613  -0.54529  0  2.3106  0
O  O101  1  0.28470396  0.22118960  0.75596339  1  0  -0.638071  0  2.035263  0  0  -0.564919  0  2.300899  0  0  -0.593028  0  2.284754  0  0  -0.33559  -0.545187  0  2.311219  0
O  O102  1  0.78469583  0.27880339  0.24404568  1  0  -0.638116  0  2.034917  0  0  -0.564982  0  2.300526  0  0  -0.593102  0  2.284401  0  0  -0.335554  -0.545252  0  2.310848  0
O  O103  1  0.71530237  0.72119508  0.74404212  1  0  -0.638098  0  2.034924  0  0  -0.564948  0  2.300552  0  0  -0.593067  0  2.284426  0  0  -0.335592  -0.545218  0  2.310874  0
O  O104  1  0.31777681  0.82561253  0.41565637  1  0  -0.609974  0  1.928891  0  0  -0.569191  0  2.159456  0  0  -0.591995  0  2.150985  0  0  -0.314303  -0.553182  0  2.164691  0
O  O105  1  0.18221390  0.17437554  0.91566688  1  0  -0.609992  0  1.928224  0  0  -0.569246  0  2.158868  0  0  -0.59206  0  2.150402  0  0  -0.314291  -0.553222  0  2.164092  0
O  O106  1  0.68221612  0.32561314  0.08433607  1  0  -0.610096  0  1.92849  0  0  -0.569327  0  2.159087  0  0  -0.592137  0  2.150618  0  0  -0.314389  -0.553307  0  2.164319  0
O  O107  1  0.81778637  0.67438784  0.58433231  1  0  -0.609969  0  1.928458  0  0  -0.569243  0  2.159148  0  0  -0.592054  0  2.150681  0  0  -0.314364  -0.553221  0  2.164374  0
