# generated using pymatgen
data_CuH24Pd(C5N3)4
_symmetry_space_group_name_H-M   'P 1'
_cell_length_a   8.23666627
_cell_length_b   8.43469001
_cell_length_c   9.82794599
_cell_angle_alpha   72.04908332
_cell_angle_beta   73.84794154
_cell_angle_gamma   87.50836175
_symmetry_Int_Tables_number   1
_chemical_formula_structural   CuH24Pd(C5N3)4
_chemical_formula_sum   'Cu1 H24 Pd1 C20 N12'
_cell_volume   623.23929612
_cell_formula_units_Z   1
loop_
 _symmetry_equiv_pos_site_id
 _symmetry_equiv_pos_as_xyz
  1  'x, y, z'
loop_
 _atom_site_type_symbol
 _atom_site_label
 _atom_site_symmetry_multiplicity
 _atom_site_fract_x
 _atom_site_fract_y
 _atom_site_fract_z
 _atom_site_occupancy
 _atom_site_hle17_ddec_charge
 _atom_site_hle17_ddec_spin_density
 _atom_site_hle17_ddec_sum_bond_order
 _atom_site_hle17_magmom
 _atom_site_hse06_10hf_bader_charge
 _atom_site_hse06_10hf_bader_spin_density
 _atom_site_hse06_10hf_ddec_charge
 _atom_site_hse06_10hf_ddec_spin_density
 _atom_site_hse06_10hf_ddec_sum_bond_order
 _atom_site_hse06_10hf_magmom
 _atom_site_hse06_ddec_charge
 _atom_site_hse06_ddec_spin_density
 _atom_site_hse06_ddec_sum_bond_order
 _atom_site_hse06_magmom
 _atom_site_pbe_cm5_charge
 _atom_site_pbe_ddec_charge
 _atom_site_pbe_ddec_spin_density
 _atom_site_pbe_ddec_sum_bond_order
 _atom_site_pbe_magmom
Cu  Cu0  1  0.49999734  0.49999986  0.50000100  1  0.784228  -0.716789  1.973792  -0.548  1.11701  -0.645775  0.736551  -0.787805  2.366018  -0.642  0.81089  -0.843398  2.313923  -0.715  0.78696  0.691203  -0.749524  2.402013  -0.595
H  H1  1  0.76483782  0.78163952  0.21764563  1  0.10217  -6.9e-05  0.984211  0.0  0.113815  -0.000755  0.109705  -0.000265  1.047716  -0.001  0.110285  -0.000163  1.048903  0.0  0.114017  0.109319  -0.000353  1.046891  -0.001
H  H2  1  0.23515666  0.21835646  0.78235641  1  0.102203  -8.5e-05  0.984237  0.0  0.113793  -0.000754  0.109754  -0.000265  1.047698  -0.001  0.110333  -0.000162  1.048886  0.0  0.114028  0.10937  -0.000353  1.046876  -0.001
H  H3  1  0.55077706  0.74952521  0.66887842  1  0.103459  -2.5e-05  0.934787  0.0  0.175273  -0.000481  0.113036  -0.000109  0.996872  0.0  0.114675  -6.2e-05  0.994706  0.0  0.138389  0.111788  -0.000135  0.998423  0.0
H  H4  1  0.44922160  0.25047824  0.33112267  1  0.103455  -2.7e-05  0.934735  0.0  0.175297  -0.000481  0.113029  -0.000109  0.996832  0.0  0.114666  -6.2e-05  0.994668  0.0  0.138358  0.111779  -0.000135  0.998384  0.0
H  H5  1  0.89512745  0.04693118  0.27250758  1  0.124506  -0.000639  0.970375  -0.001  0.159313  -0.001049  0.132986  -0.000508  1.030542  -0.001  0.134361  -0.000373  1.031572  0.0  0.121142  0.131955  -0.000621  1.029881  -0.001
H  H6  1  0.10487587  0.95306475  0.72749138  1  0.124558  -0.000642  0.970324  -0.001  0.159639  -0.001048  0.133015  -0.000508  1.030521  -0.001  0.134406  -0.000373  1.031532  0.0  0.121147  0.131985  -0.000621  1.029856  -0.001
H  H7  1  0.87947729  0.11562293  0.50786973  1  0.11217  -0.000211  0.930821  0.0  0.092603  -0.000253  0.134352  -0.000133  0.988708  0.0  0.134865  -9.1e-05  0.989394  0.0  0.111143  0.133908  -0.000176  0.988311  0.0
H  H8  1  0.12052982  0.88437298  0.49212732  1  0.112199  -0.000205  0.930841  0.0  0.092783  -0.000253  0.13438  -0.000134  0.988716  0.0  0.134892  -9.1e-05  0.989403  0.0  0.111148  0.133938  -0.000176  0.988314  0.0
H  H9  1  0.76593609  0.97448980  0.68323387  1  0.114661  8.3e-05  0.969546  0.0  0.133423  3.7e-05  0.129263  3.3e-05  1.040269  0.0  0.130677  3.2e-05  1.039458  0.0  0.103258  0.128178  3.3e-05  1.040953  0.0
H  H10  1  0.23406989  0.02550862  0.31676582  1  0.114693  9.1e-05  0.969535  0.0  0.133386  3.6e-05  0.129287  3.3e-05  1.040247  0.0  0.130703  3.2e-05  1.039436  0.0  0.103253  0.128199  3.3e-05  1.040936  0.0
H  H11  1  0.65877387  0.13364075  0.57519057  1  0.112822  0.00037  0.969173  0.0  0.104834  0.000206  0.12741  0.000214  1.038164  0.0  0.127691  0.000201  1.039616  0.0  0.10388  0.127063  0.000219  1.037364  0.0
H  H12  1  0.34123231  0.86636141  0.42480808  1  0.112845  0.000371  0.96931  0.0  0.104784  0.000206  0.12743  0.000214  1.038286  0.0  0.127709  0.000201  1.039735  0.0  0.103907  0.12708  0.000219  1.037484  0.0
H  H13  1  0.41573208  0.31797126  0.86569636  1  0.096177  0.0  0.984387  0.0  0.184638  -0.000446  0.102964  -7.9e-05  1.051816  0.0  0.103893  -3.1e-05  1.050875  0.0  0.129515  0.102261  -0.000122  1.05232  0.0
H  H14  1  0.58426731  0.68202218  0.13430114  1  0.096169  1.5e-05  0.984403  0.0  0.184638  -0.000446  0.102946  -7.9e-05  1.051837  0.0  0.103874  -3.1e-05  1.050897  0.0  0.129506  0.102247  -0.000122  1.052341  0.0
H  H15  1  0.87304278  0.44247479  0.52135055  1  0.108281  -0.000186  0.959969  0.0  0.135273  -0.000901  0.118506  -0.000358  1.017346  -0.001  0.120074  -0.000249  1.017296  0.0  0.118932  0.117212  -0.000448  1.017707  -0.001
H  H16  1  0.12695488  0.55753365  0.47864842  1  0.108313  -0.000193  0.95997  0.0  0.135305  -0.0009  0.118463  -0.000358  1.017437  -0.001  0.120077  -0.000249  1.017332  0.0  0.118915  0.117175  -0.000448  1.017797  -0.001
H  H17  1  0.94422654  0.27604483  0.79053734  1  0.112325  -0.000533  0.975931  -0.001  0.12303  -0.00091  0.1186  -0.000431  1.044791  -0.001  0.120621  -0.000316  1.044476  0.0  0.116867  0.117076  -0.000528  1.045284  -0.001
H  H18  1  0.05577364  0.72396360  0.20946003  1  0.11232  -0.000537  0.975959  -0.001  0.123006  -0.00091  0.118603  -0.000432  1.044807  -0.001  0.120619  -0.000316  1.044504  0.0  0.116881  0.117075  -0.000528  1.045296  -0.001
H  H19  1  0.50946829  0.14958613  0.07987565  1  0.116569  2.5e-05  0.940301  0.0  0.08241  -5.2e-05  0.135985  -1.6e-05  1.00183  0.0  0.137469  -8e-06  1.001231  0.0  0.110518  0.134819  -2e-05  1.002427  0.0
H  H20  1  0.49053395  0.85041354  0.92012053  1  0.116538  3.1e-05  0.940308  0.0  0.082387  -5.3e-05  0.135957  -1.7e-05  1.001846  0.0  0.13744  -8e-06  1.001247  0.0  0.110504  0.13479  -2e-05  1.002445  0.0
H  H21  1  0.69297841  0.25297142  0.08528489  1  0.099639  1.9e-05  0.964833  0.0  0.07139  -2.5e-05  0.112449  -1e-06  1.042371  0.0  0.113008  9e-06  1.041937  0.0  0.094281  0.111914  -1.4e-05  1.042765  0.0
H  H22  1  0.30702503  0.74702700  0.91471133  1  0.09962  2.4e-05  0.964791  0.0  0.071365  -2.6e-05  0.112437  -1e-06  1.042337  0.0  0.112997  9e-06  1.041901  0.0  0.094251  0.11189  -1.4e-05  1.042728  0.0
H  H23  1  0.71237698  0.06240905  0.03784562  1  0.115756  -9.3e-05  0.9556  0.0  0.117021  -0.000168  0.13157  -8e-05  1.023557  0.0  0.13276  -5.3e-05  1.0233  0.0  0.105639  0.130655  -9.6e-05  1.023845  0.0
H  H24  1  0.28762525  0.93759061  0.96214751  1  0.115765  -9.7e-05  0.955586  0.0  0.117024  -0.000169  0.131586  -8e-05  1.023539  0.0  0.132777  -5.2e-05  1.023282  0.0  0.105653  0.13067  -9.6e-05  1.023822  0.0
Pd  Pd25  1  0.99999904  0.49999894  0.00000671  1  0.154009  0.000795  3.558816  0.0  0.511533  0.000248  0.152379  0.000843  4.100073  0.0  0.155307  0.000634  4.064198  0.0  0.611531  0.152035  0.000947  4.124863  0.0
C  C26  1  0.73798830  0.81458497  0.31959203  1  -0.018156  0.000754  3.756584  -0.001  0.416552  -0.000978  -0.044169  -0.00065  4.021839  -0.001  -0.041792  0.000412  4.044404  0.0  -0.007905  -0.045737  -0.001421  4.006729  -0.002
C  C27  1  0.26200758  0.18541351  0.68041104  1  -0.018275  0.000838  3.756519  -0.001  0.41653  -0.00098  -0.044278  -0.000651  4.021758  -0.001  -0.041901  0.000411  4.044325  0.0  -0.007944  -0.045847  -0.001421  4.006658  -0.002
C  C28  1  0.62575987  0.79291511  0.55363279  1  0.15787  0.009792  3.628069  0.005  0.994331  0.002668  0.09918  0.003265  3.895035  0.001  0.114781  0.004659  3.907389  0.002  0.142081  0.089189  0.002324  3.886517  0.001
C  C29  1  0.37423740  0.20708586  0.44636929  1  0.157811  0.009812  3.627936  0.005  0.994411  0.002668  0.099134  0.003265  3.8949  0.001  0.11473  0.00466  3.90726  0.002  0.142091  0.089153  0.002324  3.88638  0.001
C  C30  1  0.80342108  0.94680305  0.34483886  1  -0.068409  -0.004537  3.660435  -0.005  0.299894  -0.003961  -0.104812  -0.002427  3.905014  -0.003  -0.103975  -0.001998  3.925644  -0.002  0.001486  -0.105168  -0.00283  3.890964  -0.003
C  C31  1  0.19657706  0.05319042  0.65516299  1  -0.068422  -0.004558  3.660285  -0.005  0.299499  -0.003961  -0.104808  -0.002427  3.904869  -0.003  -0.103984  -0.001999  3.925487  -0.002  0.001506  -0.105165  -0.002831  3.890817  -0.003
C  C32  1  0.75967378  0.04490998  0.57063968  1  -0.186937  -0.000826  3.624345  -0.001  0.203128  -0.000886  -0.289706  -0.000592  3.871747  -0.001  -0.286824  -0.000417  3.880933  -0.001  -0.135552  -0.291486  -0.000744  3.865607  -0.001
C  C33  1  0.24033206  0.95508594  0.42935869  1  -0.187097  -0.000846  3.624561  -0.001  0.202986  -0.000885  -0.289866  -0.000591  3.871961  -0.001  -0.286981  -0.000417  3.881143  -0.001  -0.135614  -0.291641  -0.000744  3.865817  -0.001
C  C34  1  0.54879565  0.33061365  0.80537618  1  0.149244  0.008128  3.631664  0.004  0.977981  0.001685  0.094924  0.002003  3.889978  0.0  0.110012  0.003457  3.90433  0.001  0.139079  0.085455  0.001054  3.879821  0.0
C  C35  1  0.45120407  0.66938604  0.19462160  1  0.149283  0.008009  3.631712  0.004  0.978299  0.00169  0.094959  0.002008  3.890028  0.0  0.11005  0.00345  3.904377  0.001  0.139083  0.08548  0.001053  3.879876  0.0
C  C36  1  0.78983143  0.39446425  0.63317297  1  -0.007158  0.002393  3.74777  0.001  0.428131  0.000124  -0.037439  0.000481  4.01768  0.0  -0.033836  0.001513  4.038014  0.001  -0.003679  -0.039567  -0.000262  4.004258  -0.001
C  C37  1  0.21016482  0.60554169  0.36682395  1  -0.007137  0.002415  3.747808  0.001  0.42826  0.000124  -0.037362  0.00048  4.017681  0.0  -0.033796  0.00151  4.037987  0.001  -0.003655  -0.039504  -0.000262  4.004273  -0.001
C  C38  1  0.82584238  0.31143302  0.76479488  1  -0.06479  -0.004059  3.670958  -0.004  0.326645  -0.003336  -0.107212  -0.002052  3.930414  -0.002  -0.106299  -0.001737  3.949222  -0.002  -0.00078  -0.107839  -0.002329  3.917989  -0.003
C  C39  1  0.17415894  0.68857291  0.23520390  1  -0.064844  -0.004051  3.671061  -0.004  0.326512  -0.003336  -0.107282  -0.002051  3.930525  -0.002  -0.106373  -0.001737  3.949341  -0.002  -0.000828  -0.107903  -0.002328  3.918098  -0.003
C  C40  1  0.64549734  0.17868369  0.02910331  1  -0.184126  -0.001078  3.626439  -0.001  0.243131  -0.001123  -0.285613  -0.000787  3.870592  -0.001  -0.282727  -0.000586  3.879594  -0.001  -0.134125  -0.287251  -0.000957  3.864613  -0.001
C  C41  1  0.35450491  0.82131599  0.97089489  1  -0.184081  -0.001084  3.626371  -0.001  0.243341  -0.001122  -0.28559  -0.000786  3.870532  -0.001  -0.282701  -0.000587  3.87953  -0.001  -0.134121  -0.287217  -0.000957  3.864551  -0.001
C  C42  1  0.83344489  0.44140021  0.19939626  1  0.014159  0.00096  3.566775  0.001  0.813923  0.000888  0.000689  0.000937  3.919978  0.001  0.012205  0.000884  3.923245  0.001  -0.048299  -0.007263  0.001  3.91809  0.001
C  C43  1  0.16655104  0.55859832  0.80061798  1  0.014112  0.000977  3.566629  0.001  0.813853  0.000889  0.000626  0.000938  3.919837  0.001  0.01214  0.000884  3.923112  0.001  -0.048336  -0.007328  0.001  3.917937  0.001
C  C44  1  0.11377594  0.28695649  0.05670717  1  0.005635  3.9e-05  3.568806  0.0  0.813391  3.4e-05  -0.013145  3.3e-05  3.922474  0.0  -0.005398  2.4e-05  3.927409  0.0  -0.053296  -0.019046  1.8e-05  3.919342  0.0
C  C45  1  0.88622247  0.71304198  0.94329531  1  0.005618  0.000128  3.568666  0.0  0.813493  3.2e-05  -0.013146  3e-05  3.92231  0.0  -0.0054  3.2e-05  3.927249  0.0  -0.053241  -0.019048  1.8e-05  3.919174  0.0
N  N46  1  0.62740918  0.71987404  0.45068880  1  -0.33933  -0.076319  3.348259  -0.102  -1.250646  -0.082799  -0.300044  -0.052775  3.661351  -0.074  -0.329705  -0.042582  3.683361  -0.064  -0.369249  -0.281167  -0.059517  3.647166  -0.08
N  N47  1  0.37258683  0.28012693  0.54931358  1  -0.339307  -0.076337  3.348169  -0.102  -1.250751  -0.082796  -0.300042  -0.052773  3.661285  -0.074  -0.329701  -0.042582  3.683292  -0.064  -0.369267  -0.281173  -0.059515  3.647116  -0.08
N  N48  1  0.73146726  0.93066173  0.49343443  1  -0.012679  -0.000679  3.590545  -0.002  -1.285531  -0.001696  0.088393  -0.00067  3.806053  -0.001  0.074382  -0.000287  3.831769  -0.001  -0.24209  0.097664  -0.000966  3.788333  -0.002
N  N49  1  0.26853234  0.06933547  0.50656709  1  -0.012538  -0.000676  3.590443  -0.002  -1.285503  -0.001696  0.088522  -0.00067  3.80595  -0.001  0.07451  -0.000287  3.831669  -0.001  -0.242027  0.097792  -0.000966  3.788228  -0.002
N  N50  1  0.61672081  0.40469960  0.66014563  1  -0.344576  -0.076115  3.370139  -0.102  -1.262491  -0.082342  -0.305293  -0.052374  3.683996  -0.073  -0.335296  -0.042284  3.705989  -0.063  -0.374387  -0.286373  -0.059065  3.669936  -0.079
N  N51  1  0.38327891  0.59530009  0.33985216  1  -0.344589  -0.076086  3.370161  -0.102  -1.262668  -0.082343  -0.305265  -0.052374  3.683948  -0.073  -0.335269  -0.042281  3.705952  -0.063  -0.374348  -0.286333  -0.059065  3.669879  -0.079
N  N52  1  0.67210598  0.27174430  0.87221848  1  -0.006872  -0.001062  3.583797  -0.002  -1.276128  -0.002351  0.094896  -0.001039  3.79588  -0.002  0.080582  -0.000554  3.822315  -0.001  -0.242614  0.104339  -0.001437  3.77777  -0.002
N  N53  1  0.32789520  0.72825913  0.12777898  1  -0.006902  -0.001037  3.58375  -0.002  -1.27638  -0.002353  0.094874  -0.001041  3.795836  -0.002  0.08056  -0.000552  3.82227  -0.001  -0.242605  0.104319  -0.001437  3.777724  -0.002
N  N54  1  0.73192939  0.41147282  0.31567820  1  -0.439322  0.00191  2.901554  0.0  -1.368564  0.001721  -0.403614  0.001915  3.183028  0.0  -0.419426  0.002021  3.194764  0.0  -0.366845  -0.393467  0.001754  3.175654  0.0
N  N55  1  0.26807163  0.58852690  0.68432842  1  -0.439313  0.001897  2.901384  0.0  -1.368347  0.001721  -0.403601  0.001915  3.182873  0.0  -0.419414  0.002021  3.194606  0.0  -0.36684  -0.39346  0.001754  3.175494  0.0
N  N56  1  0.18470956  0.16221423  0.08505608  1  -0.442153  -7.2e-05  2.798982  0.0  -1.381084  -9.1e-05  -0.398269  -5.5e-05  3.047086  0.0  -0.410101  -3.9e-05  3.059958  0.0  -0.370612  -0.389983  -7.3e-05  3.038351  0.0
N  N57  1  0.81528385  0.83778550  0.91494521  1  -0.442167  -0.000122  2.798937  0.0  -1.381171  -8.9e-05  -0.398288  -5.3e-05  3.047038  0.0  -0.41012  -4.3e-05  3.059912  0.0  -0.370691  -0.39001  -7.3e-05  3.038311  0.0
