# generated using pymatgen
data_CuH12(C8O3)2
_symmetry_space_group_name_H-M   'P 1'
_cell_length_a   4.85925261
_cell_length_b   9.56524474
_cell_length_c   15.59079635
_cell_angle_alpha   103.10199107
_cell_angle_beta   90.00202685
_cell_angle_gamma   90.00214172
_symmetry_Int_Tables_number   1
_chemical_formula_structural   CuH12(C8O3)2
_chemical_formula_sum   'Cu2 H24 C32 O12'
_cell_volume   705.79501949
_cell_formula_units_Z   2
loop_
 _symmetry_equiv_pos_site_id
 _symmetry_equiv_pos_as_xyz
  1  'x, y, z'
loop_
 _atom_site_type_symbol
 _atom_site_label
 _atom_site_symmetry_multiplicity
 _atom_site_fract_x
 _atom_site_fract_y
 _atom_site_fract_z
 _atom_site_occupancy
 _atom_site_hle17_ddec_charge
 _atom_site_hle17_ddec_spin_density
 _atom_site_hle17_ddec_sum_bond_order
 _atom_site_hle17_magmom
 _atom_site_hse06_10hf_ddec_charge
 _atom_site_hse06_10hf_ddec_spin_density
 _atom_site_hse06_10hf_ddec_sum_bond_order
 _atom_site_hse06_10hf_magmom
 _atom_site_hse06_ddec_charge
 _atom_site_hse06_ddec_spin_density
 _atom_site_hse06_ddec_sum_bond_order
 _atom_site_hse06_magmom
 _atom_site_pbe_cm5_charge
 _atom_site_pbe_ddec_charge
 _atom_site_pbe_ddec_spin_density
 _atom_site_pbe_ddec_sum_bond_order
 _atom_site_pbe_magmom
Cu  Cu0  1  0.49996070  0.49996087  0.50001440  1  1.022792  -0.161988  2.047266  -0.081  1.037995  -0.194128  2.460901  -0.099  1.083725  -0.068575  2.417681  -0.026  0.859345  1.013922  -0.248207  2.4908  -0.134
Cu  Cu1  1  0.99997959  0.99997685  0.50000902  1  1.022393  -0.162044  2.048124  -0.081  1.037694  -0.194201  2.461707  -0.099  1.083437  -0.06869  2.418536  -0.026  0.859292  1.013594  -0.248275  2.491608  -0.134
H  H2  1  0.23204569  0.20004326  0.37665718  1  0.120334  -0.025063  0.915507  -0.028  0.128488  -0.025077  0.975334  -0.028  0.134183  -0.028135  0.971598  -0.031  0.130429  0.124079  -0.023118  0.978335  -0.026
H  H3  1  0.73188701  0.29981418  0.62330560  1  0.119927  -0.025052  0.915871  -0.028  0.128301  -0.02508  0.975446  -0.028  0.13404  -0.028178  0.971671  -0.031  0.130372  0.12391  -0.023143  0.978542  -0.026
H  H4  1  0.76799300  0.79986942  0.62328506  1  0.120128  -0.025078  0.915574  -0.028  0.128385  -0.025076  0.975371  -0.028  0.134158  -0.028185  0.971572  -0.031  0.130394  0.123964  -0.023133  0.978388  -0.026
H  H5  1  0.26800557  0.70007075  0.37666106  1  0.120189  -0.025054  0.915309  -0.028  0.128229  -0.025066  0.975349  -0.028  0.133927  -0.028125  0.97161  -0.031  0.130339  0.123839  -0.023104  0.978287  -0.026
H  H6  1  0.13258581  0.08060530  0.23220862  1  0.101607  -3e-06  0.969087  0.0  0.108761  -0.000147  1.036053  0.0  0.111403  -7.5e-05  1.035907  0.0  0.10219  0.10689  -0.000229  1.036392  0.0
H  H7  1  0.63249739  0.41937321  0.76778440  1  0.101638  -4e-06  0.969156  0.0  0.10883  -0.000146  1.036101  0.0  0.111478  -7.4e-05  1.035936  0.0  0.102349  0.106952  -0.00024  1.036435  0.0
H  H8  1  0.86749611  0.91942450  0.76777213  1  0.101762  -2e-06  0.96928  0.0  0.108962  -0.000145  1.036134  0.0  0.111603  -7.4e-05  1.035993  0.0  0.102419  0.107081  -0.000239  1.036473  0.0
H  H9  1  0.36745899  0.58065886  0.23221846  1  0.101578  -5e-06  0.969022  0.0  0.108723  -0.000146  1.036015  0.0  0.11137  -7.5e-05  1.035865  0.0  0.102242  0.106851  -0.000227  1.036354  0.0
H  H10  1  0.21055628  0.03826850  0.07066672  1  0.080597  0.000217  0.961032  0.0  0.091945  5.4e-05  1.02212  0.0  0.094344  9.1e-05  1.021782  0.0  0.096615  0.09015  4.1e-05  1.022515  0.0
H  H11  1  0.71058179  0.46175807  0.92933120  1  0.080623  0.000219  0.960953  0.0  0.092038  5.5e-05  1.02194  0.0  0.094444  9.3e-05  1.021599  0.0  0.096691  0.090241  3.9e-05  1.022334  0.0
H  H12  1  0.78949683  0.96180205  0.92931256  1  0.080828  0.000217  0.961142  0.0  0.092177  5.5e-05  1.02218  0.0  0.094567  9.2e-05  1.021838  0.0  0.096746  0.090388  3.9e-05  1.022546  0.0
H  H13  1  0.28944663  0.53832015  0.07067607  1  0.080543  0.000216  0.961158  0.0  0.091894  5.4e-05  1.022241  0.0  0.094296  9.1e-05  1.021905  0.0  0.096612  0.090107  4e-05  1.022611  0.0
H  H14  1  0.55229614  0.18854786  0.01184137  1  0.076352  0.000769  0.97903  0.001  0.086162  -8.3e-05  1.046911  0.0  0.088495  -5.4e-05  1.046149  0.0  0.094873  0.084411  -8e-05  1.047503  0.0
H  H15  1  0.05229735  0.31147594  0.98816402  1  0.076333  0.000768  0.978857  0.001  0.086166  -8.2e-05  1.046742  0.0  0.088503  -5.4e-05  1.045973  0.0  0.094787  0.08441  -7.9e-05  1.04734  0.0
H  H16  1  0.44776931  0.81154424  0.98815497  1  0.076543  0.000767  0.978884  0.001  0.086285  -8.2e-05  1.046808  0.0  0.088623  -5.4e-05  1.04604  0.0  0.094893  0.084524  -7.7e-05  1.047408  0.0
H  H17  1  0.94770842  0.68857544  0.01184020  1  0.076456  0.000768  0.979096  0.001  0.086278  -8.2e-05  1.046935  0.0  0.088609  -5.4e-05  1.046177  0.0  0.094897  0.084523  -7.9e-05  1.047524  0.0
H  H18  1  0.81071702  0.38072589  0.11542917  1  0.080589  -0.000304  0.97229  -0.001  0.092163  -0.000176  1.032905  0.0  0.094258  -0.00013  1.033544  0.0  0.096103  0.090658  -0.000248  1.032684  0.0
H  H19  1  0.31068847  0.11930214  0.88458160  1  0.080663  -0.000306  0.972173  -0.001  0.092245  -0.000176  1.032782  0.0  0.094338  -0.00013  1.033424  0.0  0.096184  0.090744  -0.000254  1.032539  0.0
H  H20  1  0.18938137  0.61933199  0.88458493  1  0.080726  -0.000306  0.972072  -0.001  0.092278  -0.000175  1.032646  0.0  0.094364  -0.00013  1.033318  0.0  0.096199  0.090763  -0.000252  1.032427  0.0
H  H21  1  0.68935023  0.88075352  0.11542000  1  0.080675  -0.000303  0.972582  -0.001  0.092288  -0.000176  1.033087  0.0  0.094374  -0.00013  1.033749  0.0  0.096249  0.090792  -0.000246  1.032843  0.0
H  H22  1  0.73080379  0.42235679  0.27618736  1  0.11822  0.001165  0.955489  0.001  0.124722  0.000362  1.019921  0.0  0.128698  0.000577  1.017686  0.0  0.106665  0.122073  0.00023  1.021333  0.0
H  H23  1  0.23065940  0.07763711  0.72382490  1  0.118163  0.00117  0.955735  0.001  0.124648  0.000362  1.02011  0.0  0.12863  0.000577  1.017869  0.0  0.106707  0.121988  0.000216  1.02152  0.0
H  H24  1  0.26928636  0.57765924  0.72382293  1  0.118333  0.001168  0.955478  0.001  0.124783  0.000363  1.01992  0.0  0.128773  0.000578  1.01767  0.0  0.106696  0.122116  0.00022  1.021342  0.0
H  H25  1  0.76925994  0.92238532  0.27617921  1  0.118118  0.001172  0.955899  0.001  0.124701  0.000363  1.020183  0.0  0.128649  0.000577  1.017987  0.0  0.106713  0.122054  0.000233  1.021587  0.0
C  C26  1  0.65279671  0.24039342  0.40723826  1  0.632232  -0.007303  3.82411  -0.007  0.585681  -0.006996  4.135255  -0.006  0.620861  -0.007346  4.129215  -0.006  0.221159  0.562283  -0.007244  4.138471  -0.006
C  C27  1  0.15266101  0.25953640  0.59278231  1  0.632375  -0.007309  3.823082  -0.007  0.58529  -0.007011  4.135098  -0.006  0.620488  -0.007386  4.129067  -0.006  0.220834  0.561924  -0.007274  4.138385  -0.006
C  C28  1  0.34719054  0.75953885  0.59275542  1  0.631138  -0.007329  3.824943  -0.007  0.584665  -0.007021  4.136093  -0.006  0.619854  -0.007396  4.130089  -0.006  0.220557  0.561273  -0.007273  4.139307  -0.006
C  C29  1  0.84724392  0.74039383  0.40723032  1  0.632212  -0.007274  3.823238  -0.007  0.585778  -0.00697  4.134244  -0.006  0.620959  -0.007313  4.128211  -0.006  0.221181  0.562391  -0.007214  4.137407  -0.006
C  C30  1  0.38999164  0.27537431  0.36201181  1  0.002952  -0.000183  3.740242  0.006  -0.007722  -0.01942  3.976718  -0.01  -0.008189  -0.017554  3.983159  -0.007  -0.005455  -0.007534  -0.019855  3.972928  -0.01
C  C31  1  0.88984768  0.22453439  0.63798541  1  0.003619  -0.000218  3.739405  0.005  -0.007183  -0.01943  3.97596  -0.01  -0.007586  -0.017599  3.982189  -0.007  -0.005639  -0.007214  -0.019896  3.97267  -0.01
C  C32  1  0.61002854  0.72457942  0.63798224  1  0.003706  -0.000193  3.738592  0.006  -0.007379  -0.019431  3.975546  -0.01  -0.007843  -0.0176  3.981874  -0.007  -0.00548  -0.007192  -0.019891  3.971793  -0.01
C  C33  1  0.11004079  0.77539682  0.36201004  1  0.003524  -0.000164  3.738774  0.006  -0.007253  -0.019393  3.975433  -0.01  -0.007703  -0.017528  3.981836  -0.007  -0.005286  -0.007057  -0.019833  3.971501  -0.01
C  C34  1  0.42662056  0.25341119  0.26383540  1  0.081292  -0.029474  3.69705  -0.021  0.090971  -0.023138  3.933388  -0.017  0.090813  -0.028979  3.956335  -0.02  -0.003414  0.091868  -0.021071  3.916823  -0.015
C  C35  1  0.92650780  0.24653916  0.73616152  1  0.081159  -0.029449  3.697245  -0.021  0.091011  -0.023113  3.933413  -0.017  0.09086  -0.028977  3.956347  -0.02  -0.003376  0.091967  -0.021092  3.916939  -0.015
C  C36  1  0.57343049  0.74660371  0.73616511  1  0.081376  -0.029476  3.697139  -0.021  0.091116  -0.023112  3.933554  -0.017  0.090977  -0.028998  3.956497  -0.02  -0.003433  0.092029  -0.021079  3.916992  -0.015
C  C37  1  0.07342182  0.75344349  0.26382751  1  0.08111  -0.029506  3.697207  -0.021  0.090872  -0.02314  3.933518  -0.017  0.090718  -0.028994  3.956455  -0.02  -0.003357  0.091769  -0.021069  3.916908  -0.015
C  C38  1  0.28037279  0.14578651  0.20593581  1  -0.09346  -0.001898  3.706718  -0.001  -0.115335  -0.002823  3.953683  -0.001  -0.117408  -0.003741  3.974967  -0.001  -0.082147  -0.114199  -0.0026  3.939273  -0.001
C  C39  1  0.78027850  0.35418697  0.79404534  1  -0.09317  -0.001887  3.705554  -0.001  -0.115176  -0.002821  3.952539  -0.001  -0.117241  -0.003745  3.973827  -0.001  -0.082076  -0.114028  -0.002627  3.938112  -0.001
C  C40  1  0.71971530  0.85425294  0.79404433  1  -0.093395  -0.001894  3.70623  -0.001  -0.115266  -0.002826  3.953146  -0.001  -0.117329  -0.003754  3.974407  -0.002  -0.082234  -0.114125  -0.002625  3.938722  -0.001
C  C41  1  0.21967377  0.64583321  0.20594179  1  -0.092999  -0.001845  3.706237  -0.001  -0.114854  -0.002809  3.953148  -0.001  -0.116929  -0.00372  3.974434  -0.001  -0.081966  -0.113718  -0.002584  3.938719  -0.001
C  C42  1  0.32577710  0.12216451  0.11542011  1  -0.077488  -0.003038  3.790275  -0.001  -0.086857  -0.004561  4.037603  -0.002  -0.089583  -0.003991  4.059622  -0.002  -0.093364  -0.084859  -0.004999  4.022627  -0.003
C  C43  1  0.82574002  0.37783593  0.88457806  1  -0.07762  -0.003051  3.789508  -0.001  -0.087018  -0.00456  4.03687  -0.002  -0.089746  -0.003998  4.058874  -0.002  -0.093444  -0.08502  -0.005014  4.021901  -0.003
C  C44  1  0.67428424  0.87789645  0.88457003  1  -0.078097  -0.003061  3.790639  -0.001  -0.087519  -0.00456  4.038066  -0.002  -0.090216  -0.004  4.060029  -0.002  -0.093616  -0.085515  -0.005011  4.023093  -0.003
C  C45  1  0.17424106  0.62220041  0.11541961  1  -0.07753  -0.003089  3.790137  -0.001  -0.086909  -0.00457  4.037469  -0.002  -0.089634  -0.004009  4.059477  -0.002  -0.093432  -0.084904  -0.005005  4.022474  -0.003
C  C46  1  0.51620059  0.20655808  0.08251249  1  -0.072772  -0.029019  3.774665  -0.019  -0.090877  -0.017376  4.023878  -0.011  -0.091421  -0.023759  4.045125  -0.014  -0.091621  -0.089859  -0.015762  4.008905  -0.01
C  C47  1  0.01617810  0.29346693  0.91748368  1  -0.072859  -0.028975  3.775005  -0.019  -0.090995  -0.017361  4.024286  -0.011  -0.091519  -0.023763  4.045517  -0.014  -0.091575  -0.089976  -0.015772  4.00933  -0.01
C  C48  1  0.48388956  0.79352972  0.91748262  1  -0.072716  -0.028953  3.77523  -0.019  -0.090769  -0.017366  4.024437  -0.011  -0.091274  -0.023778  4.045626  -0.014  -0.091495  -0.08975  -0.015765  4.009472  -0.01
C  C49  1  0.98384208  0.70658977  0.08251165  1  -0.073062  -0.028954  3.77578  -0.019  -0.091197  -0.017348  4.025054  -0.011  -0.091737  -0.023723  4.046296  -0.014  -0.091656  -0.090165  -0.015735  4.010046  -0.01
C  C50  1  0.66132474  0.31460721  0.14036378  1  -0.075163  0.01464  3.787739  0.009  -0.082647  0.004789  4.032401  0.003  -0.086611  0.008274  4.055529  0.005  -0.091594  -0.080306  0.003333  4.016742  0.002
C  C51  1  0.16126936  0.18539356  0.85964673  1  -0.075043  0.01463  3.787451  0.009  -0.082554  0.00479  4.032099  0.003  -0.086524  0.008278  4.055226  0.005  -0.09163  -0.080212  0.003323  4.016442  0.002
C  C52  1  0.33875101  0.68544748  0.85965502  1  -0.075056  0.014603  3.787091  0.009  -0.082481  0.004794  4.031694  0.003  -0.086455  0.008288  4.054808  0.005  -0.09177  -0.080137  0.003329  4.01603  0.002
C  C53  1  0.83871995  0.81462773  0.14034632  1  -0.075099  0.014602  3.788294  0.009  -0.082581  0.004782  4.032926  0.003  -0.086546  0.008264  4.056045  0.005  -0.091737  -0.080238  0.003332  4.017255  0.002
C  C54  1  0.61745565  0.33842174  0.23078144  1  -0.089282  -0.025137  3.679009  -0.017  -0.11259  -0.016748  3.927609  -0.011  -0.113059  -0.021717  3.945834  -0.013  -0.080984  -0.111414  -0.01574  3.914288  -0.01
C  C55  1  0.11732042  0.16156291  0.76922380  1  -0.08952  -0.025114  3.679766  -0.017  -0.112822  -0.016739  3.928284  -0.011  -0.113292  -0.021725  3.94651  -0.013  -0.081201  -0.111632  -0.015776  3.914955  -0.01
C  C56  1  0.38263244  0.66160822  0.76922562  1  -0.089791  -0.0251  3.679191  -0.017  -0.113072  -0.01675  3.927775  -0.011  -0.11354  -0.021752  3.945992  -0.013  -0.081068  -0.111879  -0.015771  3.91444  -0.011
C  C57  1  0.88259275  0.83845735  0.23077680  1  -0.089362  -0.025159  3.679478  -0.017  -0.112752  -0.016753  3.928087  -0.011  -0.113198  -0.021727  3.94632  -0.013  -0.08111  -0.11157  -0.01574  3.914741  -0.011
O  O58  1  0.30933422  0.41659992  0.39981238  1  -0.358886  -0.297218  1.832043  -0.276  -0.345332  -0.260569  2.106948  -0.247  -0.351047  -0.308673  2.093654  -0.28  -0.279738  -0.344276  -0.235524  2.117183  -0.227
O  O59  1  0.80931775  0.08328007  0.60020053  1  -0.359408  -0.29723  1.831855  -0.276  -0.34577  -0.260544  2.106713  -0.247  -0.351188  -0.309002  2.093299  -0.28  -0.279786  -0.344499  -0.235657  2.117059  -0.226
O  O60  1  0.69060158  0.58329823  0.60021702  1  -0.359066  -0.297682  1.83119  -0.276  -0.345641  -0.260674  2.106265  -0.247  -0.350954  -0.309339  2.092825  -0.28  -0.279686  -0.344464  -0.235728  2.116493  -0.227
O  O61  1  0.19069420  0.91664383  0.39982984  1  -0.359036  -0.297364  1.831256  -0.276  -0.345494  -0.260548  2.106255  -0.247  -0.351197  -0.308667  2.092956  -0.28  -0.279938  -0.344419  -0.235527  2.116419  -0.227
O  O62  1  0.73412116  0.34171743  0.47357559  1  -0.525247  -0.000473  2.044192  -0.001  -0.49328  -0.008446  2.328076  -0.008  -0.519573  -0.006205  2.314997  -0.006  -0.293762  -0.47737  -0.011091  2.337621  -0.011
O  O63  1  0.23410027  0.15823814  0.52647378  1  -0.52541  -0.000491  2.044795  -0.001  -0.493268  -0.008443  2.32891  -0.008  -0.519556  -0.006215  2.315839  -0.006  -0.293695  -0.477334  -0.011089  2.338447  -0.011
O  O64  1  0.26580435  0.65819676  0.52644639  1  -0.525244  -0.000487  2.045343  -0.001  -0.492942  -0.008454  2.328751  -0.008  -0.519235  -0.006222  2.315695  -0.006  -0.293419  -0.477025  -0.011089  2.338282  -0.011
O  O65  1  0.76584376  0.84172105  0.47353962  1  -0.525152  -0.000473  2.0443  -0.001  -0.493297  -0.008439  2.328366  -0.008  -0.519602  -0.006195  2.315299  -0.006  -0.293665  -0.477378  -0.011068  2.337878  -0.011
O  O66  1  0.78018327  0.12672647  0.38348157  1  -0.513156  -0.016428  1.975784  -0.016  -0.493105  -0.022515  2.226209  -0.022  -0.528134  -0.023856  2.223035  -0.022  -0.255621  -0.469523  -0.021681  2.227531  -0.021
O  O67  1  0.28006467  0.37325916  0.61656153  1  -0.512952  -0.016602  1.974217  -0.016  -0.492737  -0.022661  2.224748  -0.022  -0.527811  -0.024052  2.22163  -0.023  -0.255159  -0.469082  -0.021871  2.226051  -0.021
O  O68  1  0.21982250  0.87323580  0.61650595  1  -0.512438  -0.016622  1.97535  -0.016  -0.492526  -0.022642  2.225722  -0.022  -0.527547  -0.024025  2.222591  -0.023  -0.2554  -0.468911  -0.021839  2.227038  -0.021
O  O69  1  0.71986496  0.62667653  0.38346789  1  -0.513326  -0.016456  1.974695  -0.016  -0.493328  -0.022501  2.225056  -0.022  -0.528394  -0.023836  2.221902  -0.022  -0.255699  -0.469745  -0.021661  2.226367  -0.021
