# generated using pymatgen
data_AgH9C9N2O
_symmetry_space_group_name_H-M   'P 1'
_cell_length_a   12.19642797
_cell_length_b   12.15701099
_cell_length_c   19.18708949
_cell_angle_alpha   82.17256866
_cell_angle_beta   83.76137997
_cell_angle_gamma   70.26020793
_symmetry_Int_Tables_number   1
_chemical_formula_structural   AgH9C9N2O
_chemical_formula_sum   'Ag8 H72 C72 N16 O8'
_cell_volume   2646.78499212
_cell_formula_units_Z   8
loop_
 _symmetry_equiv_pos_site_id
 _symmetry_equiv_pos_as_xyz
  1  'x, y, z'
loop_
 _atom_site_type_symbol
 _atom_site_label
 _atom_site_symmetry_multiplicity
 _atom_site_fract_x
 _atom_site_fract_y
 _atom_site_fract_z
 _atom_site_occupancy
 _atom_site_pbe_bader_charge
 _atom_site_pbe_bader_spin_density
 _atom_site_pbe_cm5_charge
 _atom_site_pbe_ddec_charge
 _atom_site_pbe_ddec_spin_density
 _atom_site_pbe_ddec_sum_bond_order
 _atom_site_pbe_magmom
Ag  Ag0  1  0.71600558  0.95207347  0.37299302  1  0.494487  0  0.466702  0.297889  0  1.94455  0
Ag  Ag1  1  0.21366377  0.95649683  0.37996525  1  0.465217  0  0.469158  0.267509  0  2.001231  0
Ag  Ag2  1  0.76303752  0.35905215  0.47221137  1  0.480163  0  0.462869  0.281821  0  1.947147  0
Ag  Ag3  1  0.25701904  0.37973800  0.46446557  1  0.472294  0  0.474705  0.289457  0  1.969999  0
Ag  Ag4  1  0.38229568  0.74847359  0.86216301  1  0.48142  0  0.458386  0.280056  0  1.956006  0
Ag  Ag5  1  0.35940115  0.25359453  0.87368995  1  0.48094  0  0.462562  0.282607  0  1.962378  0
Ag  Ag6  1  0.80409494  0.91174301  0.96260178  1  0.472546  0  0.472402  0.283176  0  1.978479  0
Ag  Ag7  1  0.76422660  0.42408537  0.96725256  1  0.489477  0  0.469542  0.293388  0  1.97117  0
H  H8  1  0.69266769  0.06487834  0.52649622  1  0.079093  0  0.098715  0.111616  0  1.004763  0
H  H9  1  0.75753395  0.13349879  0.62744676  1  0.068923  0  0.091878  0.091671  0  1.034087  0
H  H10  1  0.95936489  0.13479086  0.62786860  1  0.072308  0  0.101444  0.108336  0  0.99101  0
H  H11  1  0.10600156  0.06587073  0.52835901  1  0.072206  0  0.097248  0.106542  0  1.022336  0
H  H12  1  0.07702261  0.91952296  0.28497750  1  0.050577  0  0.095839  0.035715  0  0.988809  0
H  H13  1  0.95319265  0.74356211  0.35049682  1  0.044455  0  0.089719  0.125234  0  1.022964  0
H  H14  1  0.10127776  0.72959865  0.36025904  1  0.058688  0  0.094973  0.136481  0  0.997888  0
H  H15  1  0.05756437  0.72255936  0.27601482  1  0.037425  0  0.094973  0.135608  0  0.991825  0
H  H16  1  0.28823424  0.92551326  0.21448402  1  0.052188  0  0.09449  0.098215  0  1.021591  0
H  H17  1  0.41231246  0.91077864  0.10186560  1  0.059798  0  0.093832  0.098194  0  1.024466  0
H  H18  1  0.62071880  0.89729134  0.09957042  1  0.0463  0  0.08673  0.076499  0  1.063782  0
H  H19  1  0.70912325  0.90440124  0.20939229  1  0.031018  0  0.094246  0.097523  0  1.038202  0
H  H20  1  0.54706588  0.88576793  0.48006011  1  0.065256  0  0.100957  0.040456  0  0.968554  0
H  H21  1  0.34852214  0.12044756  0.45568980  1  0.061959  0  0.084693  0.122181  0  1.027074  0
H  H22  1  0.49990581  0.10150862  0.44787469  1  0.055733  0  0.086285  0.12085  0  1.04758  0
H  H23  1  0.43177763  0.06912845  0.53189131  1  0.062587  0  0.091118  0.13514  0  1.013826  0
H  H24  1  0.92197769  0.89680396  0.22482265  1  0.585416  0  0.320442  0.350748  0  0.907106  0
H  H25  1  0.39014544  0.81457034  0.48675977  1  0.591682  0  0.318024  0.341805  0  0.908214  0
H  H26  1  0.76239284  0.41262936  0.63551686  1  0.060663  0  0.099434  0.110865  0  1.017048  0
H  H27  1  0.83688057  0.45234962  0.74224981  1  0.051735  0  0.089445  0.085364  0  1.040174  0
H  H28  1  0.03378255  0.47010963  0.73876562  1  0.03143  0  0.090373  0.087501  0  1.034027  0
H  H29  1  0.16572319  0.44463049  0.62841764  1  0.032536  0  0.092902  0.095351  0  1.021936  0
H  H30  1  0.96273437  0.31316204  0.38094050  1  0.039981  0  0.095662  0.034583  0  0.993232  0
H  H31  1  0.10381733  0.48400567  0.35500304  1  0.050754  0  0.084489  0.118257  0  1.028727  0
H  H32  1  0.95034751  0.52286839  0.34859808  1  0.037691  0  0.093279  0.130046  0  0.997959  0
H  H33  1  0.04999447  0.43108027  0.28805723  1  0.062556  0  0.09775  0.143871  0  0.984561  0
H  H34  1  0.36136776  0.27040915  0.31539356  1  0.085801  0  0.103256  0.121718  0  1.000416  0
H  H35  1  0.51468952  0.17009108  0.22607553  1  0.066277  0  0.099755  0.102727  0  1.002212  0
H  H36  1  0.72125727  0.15483521  0.23154386  1  0.098044  0  0.093107  0.095487  0  1.044144  0
H  H37  1  0.78358611  0.23734966  0.32623132  1  0.072309  0  0.098069  0.108193  0  1.004879  0
H  H38  1  0.37709215  0.49431203  0.53046786  1  0.042213  0  0.090896  0.024527  0  0.991603  0
H  H39  1  0.57947703  0.29388758  0.59670236  1  0.044505  0  0.092709  0.132144  0  1.015556  0
H  H40  1  0.43615672  0.28940900  0.58990998  1  0.03193  0  0.089292  0.124399  0  1.027815  0
H  H41  1  0.45704982  0.38836345  0.64370262  1  0.042037  0  0.092323  0.134187  0  1.004295  0
H  H42  1  0.14118473  0.18004376  0.40428312  1  0.564743  0  0.288858  0.309656  0  0.993475  0
H  H43  1  0.55488738  0.55262833  0.49558510  1  0.582614  0  0.309719  0.335229  0  0.927308  0
H  H44  1  0.50427233  0.63708954  0.01067857  1  0.085497  0  0.098457  0.11332  0  1.005024  0
H  H45  1  0.55396931  0.49746239  0.12017697  1  0.08064  0  0.096838  0.101486  0  1.002125  0
H  H46  1  0.52454000  0.30463607  0.13190631  1  0.05591  0  0.09132  0.088378  0  1.050049  0
H  H47  1  0.45026748  0.23911482  0.03358377  1  0.081946  0  0.102257  0.118416  0  0.998043  0
H  H48  1  0.34596033  0.44079623  0.77411779  1  0.011203  0  0.091426  0.025198  0  1.01343  0
H  H49  1  0.16726335  0.66408126  0.82832270  1  0.061545  0  0.090226  0.127948  0  1.012377  0
H  H50  1  0.15356108  0.52095658  0.83846341  1  0.02144  0  0.095066  0.137409  0  1.004659  0
H  H51  1  0.15306906  0.59889809  0.75291421  1  0.017683  0  0.090265  0.128027  0  1.001604  0
H  H52  1  0.27979625  0.27540747  0.70975849  1  0.034206  0  0.092657  0.094846  0  1.036032  0
H  H53  1  0.25273309  0.20464260  0.59832831  1  0.041635  0  0.085438  0.076592  0  1.060387  0
H  H54  1  0.27643676  0.99482962  0.59373516  1  0.099303  0  0.092067  0.100872  0  1.04595  0
H  H55  1  0.32079948  0.85040168  0.70082706  1  0.025185  0  0.093581  0.098217  0  1.02887  0
H  H56  1  0.35365873  0.90185712  0.96897579  1  0.037713  0  0.096141  0.03349  0  0.983716  0
H  H57  1  0.55830150  0.87231931  0.92651161  1  0.033328  0  0.087924  0.127741  0  1.037073  0
H  H58  1  0.53010666  0.93158710  0.00909229  1  0.071502  0  0.091858  0.135522  0  1.032486  0
H  H59  1  0.53797309  0.02464758  0.92977799  1  0.040905  0  0.083834  0.118714  0  1.0454  0
H  H60  1  0.32901263  0.63551964  0.71150870  1  0.616951  0  0.322032  0.352427  0  0.896968  0
H  H61  1  0.23794950  0.10158432  0.98146197  1  0.613084  0  0.320059  0.345354  0  0.90331  0
H  H62  1  0.88075972  0.80510497  0.12369350  1  0.044167  0  0.094756  0.096623  0  1.024437  0
H  H63  1  0.89530889  0.67055111  0.23679687  1  0.043171  0  0.088914  0.080103  0  1.047175  0
H  H64  1  0.85905665  0.48153466  0.24164897  1  0.053201  0  0.094105  0.091801  0  1.021308  0
H  H65  1  0.80882774  0.41744027  0.13459071  1  0.059971  0  0.099292  0.105603  0  1.012309  0
H  H66  1  0.74041092  0.78984550  0.87502109  1  0.001896  0  0.092519  0.027424  0  1.008627  0
H  H67  1  0.90117008  0.53880888  0.85361935  1  0.020398  0  0.088549  0.124027  0  1.025564  0
H  H68  1  0.94378567  0.66689179  0.84806181  1  0.054239  0  0.095114  0.140843  0  1.001399  0
H  H69  1  0.85355639  0.65526761  0.78443305  1  0.008441  0  0.092836  0.133714  0  0.99598  0
H  H70  1  0.64817574  0.44866255  0.82009319  1  0.042004  0  0.098851  0.105472  0  1.01461  0
H  H71  1  0.56980819  0.39099343  0.72156289  1  0.048945  0  0.094307  0.094269  0  1.032693  0
H  H72  1  0.57941906  0.18378197  0.71865697  1  0.050021  0  0.095109  0.096836  0  1.017001  0
H  H73  1  0.67513571  0.02707143  0.81192181  1  0.067989  0  0.097892  0.106949  0  1.007366  0
H  H74  1  0.89595506  0.20142357  0.03289824  1  0.03454  0  0.094929  0.032657  0  0.985318  0
H  H75  1  0.74349797  0.04696598  0.08624626  1  0.030118  0  0.08495  0.118553  0  1.031546  0
H  H76  1  0.71245742  0.19692122  0.09923299  1  0.073297  0  0.092714  0.131641  0  1.031669  0
H  H77  1  0.83401322  0.08660405  0.13893109  1  0.040333  0  0.091649  0.135227  0  1.0039  0
H  H78  1  0.65938788  0.66079243  0.82781585  1  0.579074  0  0.320388  0.348948  0  0.902654  0
H  H79  1  0.99854788  0.02032814  0.97848853  1  0.588493  0  0.316534  0.344011  0  0.910309  0
C  C80  1  0.86443968  0.02581130  0.47121980  1  0.395216  0  0.073646  0.133788  0  4.066277  0
C  C81  1  0.78201822  0.06505815  0.52688691  1  -0.025516  0  -0.105225  -0.174906  0  4.029646  0
C  C82  1  0.81877783  0.10353930  0.58269400  1  -0.107051  0  -0.1116  -0.113527  0  4.071975  0
C  C83  1  0.93434406  0.10375917  0.58331966  1  0.042773  0  -0.103897  -0.087166  0  4.04157  0
C  C84  1  0.01643012  0.06643896  0.52773605  1  -0.105193  0  -0.107665  -0.176507  0  4.016354  0
C  C85  1  0.98021813  0.02775872  0.47157480  1  0.325704  0  0.069246  0.133038  0  4.078442  0
C  C86  1  0.96329084  0.95774136  0.37584250  1  1.018933  0  0.20431  0.284273  0  3.948805  0
C  C87  1  0.99885391  0.89859540  0.30923570  1  0.471596  0  0.001263  0.191659  0  3.92824  0
C  C88  1  0.02948115  0.76527706  0.32492712  1  -0.095208  0  -0.244439  -0.443991  0  3.934479  0
C  C89  1  0.43017582  0.92285951  0.27477656  1  0.412299  0  0.073058  0.14023  0  4.064498  0
C  C90  1  0.37950346  0.92032491  0.21333671  1  -0.044451  0  -0.105959  -0.171993  0  4.032009  0
C  C91  1  0.44979418  0.91169483  0.15071661  1  -0.033661  0  -0.10775  -0.095369  0  4.043658  0
C  C92  1  0.56752549  0.90574861  0.14932175  1  -0.044237  0  -0.10722  -0.096508  0  4.048055  0
C  C93  1  0.61828913  0.90888369  0.21026797  1  0.00539  0  -0.101678  -0.16311  0  4.014058  0
C  C94  1  0.54849067  0.91717255  0.27331880  1  0.331289  0  0.075307  0.143085  0  4.058002  0
C  C95  1  0.47282729  0.92919552  0.38129587  1  0.98682  0  0.197206  0.25439  0  4.004514  0
C  C96  1  0.46176616  0.93891838  0.45928979  1  0.474164  0  0.000699  0.189509  0  3.933611  0
C  C97  1  0.43361768  0.06535523  0.47499785  1  -0.113056  0  -0.249198  -0.418476  0  3.895938  0
C  C98  1  0.92348503  0.40550145  0.57237975  1  0.348579  0  0.076593  0.144151  0  4.041778  0
C  C99  1  0.84929295  0.42018489  0.63386149  1  -0.027319  0  -0.100244  -0.162317  0  3.99686  0
C  C100  1  0.89145377  0.44327747  0.69302328  1  -0.005812  0  -0.110186  -0.103172  0  4.060524  0
C  C101  1  0.00393472  0.45280288  0.69111265  1  -0.045136  0  -0.111708  -0.106379  0  4.069847  0
C  C102  1  0.07814888  0.43854352  0.63008316  1  -0.01208  0  -0.106889  -0.175236  0  4.043916  0
C  C103  1  0.03727845  0.41366254  0.57073082  1  0.386174  0  0.076522  0.14197  0  4.061013  0
C  C104  1  0.01111989  0.37039028  0.46851242  1  1.012882  0  0.19783  0.256464  0  3.988974  0
C  C105  1  0.03357623  0.34395141  0.39284240  1  0.494619  0  -0.000321  0.191673  0  3.926507  0
C  C106  1  0.03433783  0.45228509  0.34278745  1  -0.084854  0  -0.242512  -0.411314  0  3.900973  0
C  C107  1  0.48790381  0.31081487  0.37017043  1  0.328715  0  0.074521  0.141603  0  4.057889  0
C  C108  1  0.45221924  0.26516185  0.31684260  1  -0.017542  0  -0.099645  -0.163619  0  3.982226  0
C  C109  1  0.53823637  0.20998111  0.26722788  1  -0.037334  0  -0.103853  -0.092114  0  4.044509  0
C  C110  1  0.65615698  0.20086189  0.27037314  1  -0.08714  0  -0.11162  -0.112597  0  4.062968  0
C  C111  1  0.69197696  0.24684487  0.32312052  1  -0.016979  0  -0.104795  -0.168184  0  4.025981  0
C  C112  1  0.60644797  0.30176370  0.37349290  1  0.357759  0  0.072924  0.135525  0  4.061396  0
C  C113  1  0.50456327  0.38771044  0.46317907  1  0.997768  0  0.194942  0.246955  0  4.014454  0
C  C114  1  0.47086328  0.44126894  0.53170026  1  0.472872  0  -0.003384  0.192407  0  3.947851  0
C  C115  1  0.48686909  0.34720210  0.59450955  1  -0.060099  0  -0.244414  -0.415367  0  3.889074  0
C  C116  1  0.44725432  0.51619882  0.96201517  1  0.353967  0  0.073002  0.132557  0  4.061766  0
C  C117  1  0.49203078  0.55143946  0.01602154  1  -0.0445  0  -0.107463  -0.17583  0  4.041741  0
C  C118  1  0.51998213  0.47270065  0.07659206  1  -0.053654  0  -0.111561  -0.112956  0  4.073902  0
C  C119  1  0.50425593  0.36184668  0.08286258  1  -0.100906  0  -0.110031  -0.103521  0  4.065564  0
C  C120  1  0.46224445  0.32494394  0.02865294  1  -0.022301  0  -0.10154  -0.163415  0  3.986668  0
C  C121  1  0.43375682  0.40365109  0.96782480  1  0.403038  0  0.077006  0.146467  0  4.051917  0
C  C122  1  0.37660227  0.49849413  0.86631036  1  1.038322  0  0.204774  0.278009  0  3.967776  0
C  C123  1  0.32395778  0.52590057  0.79616820  1  0.513465  0  0.000958  0.191457  0  3.935808  0
C  C124  1  0.19118537  0.58127493  0.80438920  1  -0.074417  0  -0.245954  -0.446826  0  3.943455  0
C  C125  1  0.31425560  0.10215052  0.76731360  1  0.338218  0  0.074172  0.141543  0  4.05781  0
C  C126  1  0.28895581  0.18357109  0.70749829  1  -0.008368  0  -0.106728  -0.171661  0  4.02813  0
C  C127  1  0.27432417  0.14309892  0.64577509  1  -0.06345  0  -0.110025  -0.100415  0  4.052522  0
C  C128  1  0.28562024  0.02427096  0.64323332  1  -0.024474  0  -0.109711  -0.100774  0  4.042989  0
C  C129  1  0.31097425  0.94260265  0.70256305  1  0.003765  0  -0.108283  -0.171434  0  4.02697  0
C  C130  1  0.32442305  0.98285130  0.76490630  1  0.351041  0  0.071546  0.142619  0  4.064858  0
C  C131  1  0.35074231  0.00730195  0.87149168  1  0.99426  0  0.194874  0.251736  0  4.011507  0
C  C132  1  0.37963814  0.97940878  0.94743203  1  0.498956  0  -0.000884  0.191427  0  3.945057  0
C  C133  1  0.51006059  0.95012330  0.95360538  1  -0.086833  0  -0.251515  -0.428266  0  3.905591  0
C  C134  1  0.83552106  0.68571227  0.06712467  1  0.375116  0  0.076539  0.145125  0  4.055068  0
C  C135  1  0.86569896  0.72089714  0.12668090  1  -0.061239  0  -0.104444  -0.170252  0  4.031733  0
C  C136  1  0.87392997  0.64545245  0.18886394  1  0.009831  0  -0.109639  -0.105824  0  4.074696  0
C  C137  1  0.85332651  0.53740096  0.19174844  1  -0.067155  0  -0.10819  -0.100545  0  4.059685  0
C  C138  1  0.82509580  0.50081396  0.13240284  1  -0.002875  0  -0.101022  -0.168096  0  4.019807  0
C  C139  1  0.81679105  0.57604093  0.06974900  1  0.380824  0  0.078386  0.142115  0  4.053323  0
C  C140  1  0.78838337  0.66675487  0.96410314  1  1.024023  0  0.205134  0.283498  0  3.954505  0
C  C141  1  0.76474224  0.69322814  0.88736425  1  0.505938  0  0.000199  0.191666  0  3.931533  0
C  C142  1  0.87244309  0.63468539  0.84037797  1  -0.037472  0  -0.246175  -0.442151  0  3.926422  0
C  C143  1  0.70878701  0.26946899  0.86988757  1  0.311656  0  0.078581  0.148329  0  4.039438  0
C  C144  1  0.65602047  0.35726228  0.81741276  1  0.047229  0  -0.097135  -0.147322  0  3.985113  0
C  C145  1  0.61148603  0.32392020  0.76299597  1  -0.042848  0  -0.108353  -0.107031  0  4.052604  0
C  C146  1  0.61764262  0.20626296  0.76125540  1  -0.030463  0  -0.110126  -0.113797  0  4.083034  0
C  C147  1  0.67050074  0.11799048  0.81333716  1  -0.040805  0  -0.105529  -0.17737  0  4.03477  0
C  C148  1  0.71698574  0.15060082  0.86768046  1  0.388959  0  0.075656  0.141548  0  4.059069  0
C  C149  1  0.79929145  0.16330337  0.96038398  1  1.014707  0  0.197764  0.251384  0  4.00204  0
C  C150  1  0.86217360  0.12945378  0.02726974  1  0.472606  0  -0.001156  0.191822  0  3.935526  0
C  C151  1  0.78300021  0.11394084  0.09208230  1  -0.072904  0  -0.245795  -0.410877  0  3.888267  0
N  N152  1  0.85706205  0.97997434  0.41010279  1  -1.180282  0  -0.391956  -0.337952  0  3.587762  0
N  N153  1  0.04044914  0.98519234  0.40998812  1  -1.189076  0  -0.408941  -0.370112  0  3.659397  0
N  N154  1  0.38448068  0.93065446  0.34406135  1  -1.197217  0  -0.407503  -0.353747  0  3.644365  0
N  N155  1  0.57306894  0.92085040  0.34173259  1  -1.17204  0  -0.402397  -0.364921  0  3.639589  0
N  N156  1  0.90956899  0.37845217  0.50660287  1  -1.196322  0  -0.397339  -0.352077  0  3.638934  0
N  N157  1  0.09038332  0.39113143  0.50425542  1  -1.20048  0  -0.405747  -0.353968  0  3.633404  0
N  N158  1  0.42541494  0.36648146  0.42760772  1  -1.197315  0  -0.406527  -0.361292  0  3.646782  0
N  N159  1  0.61423285  0.35127298  0.43312736  1  -1.187214  0  -0.400526  -0.355509  0  3.628215  0
N  N160  1  0.40932684  0.57443825  0.89723267  1  -1.184846  0  -0.401257  -0.33917  0  3.610932  0
N  N161  1  0.38949373  0.39500164  0.90593098  1  -1.19416  0  -0.40092  -0.357183  0  3.637562  0
N  N162  1  0.33204958  0.11462049  0.83556517  1  -1.198273  0  -0.404756  -0.356298  0  3.637271  0
N  N163  1  0.34710965  0.92507090  0.83190035  1  -1.176956  0  -0.408596  -0.365527  0  3.669047  0
N  N164  1  0.81586028  0.74169906  0.99947361  1  -1.193522  0  -0.405362  -0.365199  0  3.642646  0
N  N165  1  0.78862182  0.56622885  0.00337336  1  -1.196847  0  -0.395429  -0.336418  0  3.598174  0
N  N166  1  0.76177599  0.27448930  0.92913485  1  -1.187415  0  -0.399494  -0.354661  0  3.646238  0
N  N167  1  0.77488357  0.08551373  0.92581871  1  -1.211297  0  -0.406821  -0.358876  0  3.641413  0
O  O168  1  0.90503616  0.94713367  0.26272849  1  -1.095377  0  -0.395002  -0.497601  0  2.238483  0
O  O169  1  0.37114080  0.89662880  0.49466320  1  -1.112207  0  -0.392119  -0.485096  0  2.258806  0
O  O170  1  0.14526335  0.25542488  0.38093107  1  -1.092868  0  -0.401346  -0.49923  0  2.259701  0
O  O171  1  0.53774793  0.51477266  0.54164755  1  -1.091087  0  -0.40672  -0.495209  0  2.188223  0
O  O172  1  0.37727456  0.60123602  0.75126801  1  -1.130056  0  -0.400076  -0.500308  0  2.228655  0
O  O173  1  0.32126910  0.07636996  0.98803961  1  -1.120856  0  -0.396316  -0.48882  0  2.22695  0
O  O174  1  0.66765351  0.65568401  0.87820497  1  -1.089697  0  -0.394338  -0.507861  0  2.283611  0
O  O175  1  0.95735324  0.01976495  0.02492601  1  -1.09668  0  -0.409818  -0.506248  0  2.189804  0
