# generated using pymatgen
data_HgH8C11I3N3O
_symmetry_space_group_name_H-M   'P 1'
_cell_length_a   6.71714599
_cell_length_b   7.62486424
_cell_length_c   17.80419514
_cell_angle_alpha   102.23152747
_cell_angle_beta   89.93668118
_cell_angle_gamma   116.15414902
_symmetry_Int_Tables_number   1
_chemical_formula_structural   HgH8C11I3N3O
_chemical_formula_sum   'Hg2 H16 C22 I6 N6 O2'
_cell_volume   795.49763887
_cell_formula_units_Z   2
loop_
 _symmetry_equiv_pos_site_id
 _symmetry_equiv_pos_as_xyz
  1  'x, y, z'
loop_
 _atom_site_type_symbol
 _atom_site_label
 _atom_site_symmetry_multiplicity
 _atom_site_fract_x
 _atom_site_fract_y
 _atom_site_fract_z
 _atom_site_occupancy
 _atom_site_hle17_bader_spin_density
 _atom_site_hle17_ddec_charge
 _atom_site_hle17_ddec_spin_density
 _atom_site_hle17_ddec_sum_bond_order
 _atom_site_hle17_magmom
 _atom_site_hse06_10hf_bader_spin_density
 _atom_site_hse06_10hf_ddec_charge
 _atom_site_hse06_10hf_ddec_spin_density
 _atom_site_hse06_10hf_ddec_sum_bond_order
 _atom_site_hse06_10hf_magmom
 _atom_site_hse06_bader_spin_density
 _atom_site_hse06_ddec_charge
 _atom_site_hse06_ddec_spin_density
 _atom_site_hse06_ddec_sum_bond_order
 _atom_site_hse06_magmom
 _atom_site_pbe_bader_spin_density
 _atom_site_pbe_cm5_charge
 _atom_site_pbe_ddec_charge
 _atom_site_pbe_ddec_spin_density
 _atom_site_pbe_ddec_sum_bond_order
 _atom_site_pbe_magmom
Hg  Hg0  1  0.84230345  0.68592508  0.55419731  1  0  0.497158  0  2.243538  0  0  0.386337  0  2.728903  0  0  0.430304  0  2.702928  0  0  0.335075  0.356934  0  2.745764  0
Hg  Hg1  1  0.15768980  0.31407952  0.44580085  1  0  0.497147  0  2.243575  0  0  0.38633  0  2.728944  0  0  0.430295  0  2.70297  0  0  0.335095  0.356926  0  2.745807  0
H  H2  1  0.51905416  0.03532803  0.68618078  1  0  0.073679  0  0.976272  0  0  0.08053  0  1.045764  0  0  0.083803  0  1.042808  0  0  0.092169  0.078135  0  1.048165  0
H  H3  1  0.48094429  0.96467507  0.31381781  1  0  0.073652  0  0.976191  0  0  0.080491  0  1.045718  0  0  0.083762  0  1.042764  0  0  0.092156  0.078097  0  1.048117  0
H  H4  1  0.61644727  0.23169382  0.58271491  1  0  0.075562  0  0.967936  0  0  0.080554  0  1.040232  0  0  0.083184  0  1.037938  0  0  0.096303  0.078559  0  1.042108  0
H  H5  1  0.38354743  0.76830177  0.41727962  1  0  0.075625  0  0.967948  0  0  0.080619  0  1.040212  0  0  0.083249  0  1.03792  0  0  0.096313  0.078624  0  1.042088  0
H  H6  1  0.88288878  0.76686011  0.75278619  1  0  0.092075  0  0.961868  0  0  0.090697  0  1.043569  0  0  0.095161  0  1.038532  0  0  0.109078  0.087457  0  1.047294  0
H  H7  1  0.11712306  0.23314298  0.24721407  1  0  0.092057  0  0.961867  0  0  0.090664  0  1.043573  0  0  0.095132  0  1.038532  0  0  0.109073  0.087424  0  1.047297  0
H  H8  1  0.59843442  0.19567798  0.00232191  1  0  0.102469  0  0.966866  0  0  0.112001  0  1.033543  0  0  0.115868  0  1.030854  0  0  0.09664  0.109253  0  1.035489  0
H  H9  1  0.40157740  0.80431909  0.99767724  1  0  0.102501  0  0.966838  0  0  0.112041  0  1.033498  0  0  0.115907  0  1.030811  0  0  0.096661  0.109298  0  1.03544  0
H  H10  1  0.79630983  0.59004285  0.23103055  1  0  0.092794  0  0.974094  0  0  0.104378  0  1.039033  0  0  0.107603  0  1.037739  0  0  0.079422  0.102111  0  1.039991  0
H  H11  1  0.20367965  0.40995422  0.76897029  1  0  0.092868  0  0.974133  0  0  0.104446  0  1.039064  0  0  0.107667  0  1.037783  0  0  0.079461  0.102176  0  1.040027  0
H  H12  1  0.94323917  0.88532118  0.17149015  1  0  0.083533  0  0.970583  0  0  0.09056  0  1.042048  0  0  0.093647  0  1.039306  0  0  0.089289  0.088419  0  1.043907  0
H  H13  1  0.05674736  0.11468190  0.82851237  1  0  0.083555  0  0.970603  0  0  0.090586  0  1.042071  0  0  0.093673  0  1.039329  0  0  0.089293  0.088444  0  1.04393  0
H  H14  1  0.91949487  0.83969100  0.02997450  1  0  0.13233  0  0.962543  0  0  0.14036  0  1.023489  0  0  0.144949  0  1.0195  0  0  0.107559  0.137053  0  1.026449  0
H  H15  1  0.08049684  0.16030756  0.97002760  1  0  0.132447  0  0.96247  0  0  0.140469  0  1.023393  0  0  0.145057  0  1.019407  0  0  0.107616  0.137162  0  1.026352  0
H  H16  1  0.66267645  0.32461352  0.89790509  1  0  0.279031  0  0.931057  0  0  0.255587  0  1.009586  0  0  0.263341  0  1.003536  0  0  0.30311  0.250104  0  1.013874  0
H  H17  1  0.33731155  0.67538655  0.10209547  1  0  0.278992  0  0.931124  0  0  0.2556  0  1.00959  0  0  0.26335  0  1.003535  0  0  0.303124  0.250116  0  1.013878  0
C  C18  1  0.60046233  0.19922434  0.70145984  1  0  0.083659  0  3.728039  0  0  0.061825  0  3.980346  0  0  0.063884  0  3.993544  0  0  0.042109  0.060083  0  3.971783  0
C  C19  1  0.39953461  0.80077275  0.29853539  1  0  0.083794  0  3.727992  0  0  0.061966  0  3.980282  0  0  0.064024  0  3.993482  0  0  0.042203  0.060222  0  3.971721  0
C  C20  1  0.65406967  0.30725827  0.64394783  1  0  0.082897  0  3.700668  0  0  0.055107  0  3.948764  0  0  0.060356  0  3.964942  0  0  0.041156  0.051542  0  3.938082  0
C  C21  1  0.34592509  0.69274934  0.35604948  1  0  0.082683  0  3.7008  0  0  0.054924  0  3.948896  0  0  0.060172  0  3.96507  0  0  0.0411  0.051361  0  3.938212  0
C  C22  1  0.80130441  0.60311497  0.73765858  1  0  0.071085  0  3.656224  0  0  0.031178  0  3.915042  0  0  0.037133  0  3.930137  0  0  0.052159  0.026894  0  3.905491  0
C  C23  1  0.19871116  0.39688962  0.26234238  1  0  0.07123  0  3.65617  0  0  0.031384  0  3.914991  0  0  0.037318  0  3.930125  0  0  0.052198  0.027101  0  3.905441  0
C  C24  1  0.74647207  0.49353845  0.79473571  1  0  0.070045  0  3.729243  0  0  0.075569  0  3.976971  0  0  0.073165  0  3.995398  0  0  0.123384  0.076644  0  3.964904  0
C  C25  1  0.25353601  0.50645710  0.20526611  1  0  0.07005  0  3.72934  0  0  0.075472  0  3.977139  0  0  0.073068  0  3.995568  0  0  0.12341  0.076546  0  3.965074  0
C  C26  1  0.80027498  0.60222572  0.87881649  1  0  0.501512  0  3.866249  0  0  0.456029  0  4.150982  0  0  0.484351  0  4.15215  0  0  0.238442  0.437147  0  4.149574  0
C  C27  1  0.19971451  0.39777435  0.12118463  1  0  0.501228  0  3.866581  0  0  0.455862  0  4.151134  0  0  0.484179  0  4.152307  0  0  0.238367  0.436984  0  4.149721  0
C  C28  1  0.75721254  0.51421704  0.00711552  1  0  0.273382  0  3.772802  0  0  0.271313  0  4.016103  0  0  0.280122  0  4.037186  0  0  0.101572  0.265327  0  4.001793  0
C  C29  1  0.24278511  0.48577852  0.99288574  1  0  0.273274  0  3.772817  0  0  0.271199  0  4.016134  0  0  0.279997  0  4.037229  0  0  0.101481  0.265216  0  4.001822  0
C  C30  1  0.67369559  0.34642791  0.03999994  1  0  -0.190936  0  3.701852  0  0  -0.215881  0  3.945822  0  0  -0.221284  0  3.965855  0  0  -0.103328  -0.212098  0  3.932244  0
C  C31  1  0.32631100  0.65356466  0.95999768  1  0  -0.190919  0  3.701928  0  0  -0.215854  0  3.945872  0  0  -0.221257  0  3.965911  0  0  -0.103316  -0.212078  0  3.93229  0
C  C32  1  0.68831047  0.37506950  0.11994972  1  0  0.043744  0  3.705203  0  0  0.071011  0  3.961015  0  0  0.0738  0  3.986479  0  0  -0.05555  0.069078  0  3.943676  0
C  C33  1  0.31169092  0.62492757  0.88004999  1  0  0.043619  0  3.70539  0  0  0.07088  0  3.961207  0  0  0.07367  0  3.986669  0  0  -0.055625  0.068948  0  3.943866  0
C  C34  1  0.78495024  0.56819667  0.16843194  1  0  -0.142799  0  3.795384  0  0  -0.1688  0  4.052179  0  0  -0.175205  0  4.077841  0  0  -0.121918  -0.164299  0  4.034632  0
C  C35  1  0.21504075  0.43180342  0.83156637  1  0  -0.142806  0  3.79553  0  0  -0.168792  0  4.052314  0  0  -0.175199  0  4.07797  0  0  -0.121923  -0.16429  0  4.034767  0
C  C36  1  0.86722610  0.73330600  0.13483639  1  0  -0.03786  0  3.783445  0  0  -0.051586  0  4.04339  0  0  -0.051228  0  4.064594  0  0  -0.096094  -0.051659  0  4.028714  0
C  C37  1  0.13276934  0.26669407  0.86516585  1  0  -0.0378  0  3.783539  0  0  -0.051541  0  4.043479  0  0  -0.051183  0  4.064679  0  0  -0.096069  -0.051614  0  4.028806  0
C  C38  1  0.85472967  0.70947729  0.05488464  1  0  -0.159562  0  3.665782  0  0  -0.182644  0  3.915043  0  0  -0.186907  0  3.932594  0  0  -0.097149  -0.179707  0  3.903179  0
C  C39  1  0.14526208  0.29052730  0.94511577  1  0  -0.159762  0  3.666068  0  0  -0.182839  0  3.915372  0  0  -0.187099  0  3.932923  0  0  -0.0972  -0.179904  0  3.903506  0
I  I40  1  0.68155534  0.36327248  0.43141621  1  0  -0.286463  0  1.380779  0  0  -0.241345  0  1.758861  0  0  -0.261726  0  1.738351  0  0  -0.13832  -0.227522  0  1.772551  0
I  I41  1  0.31844839  0.63674115  0.56857996  1  0  -0.286448  0  1.380735  0  0  -0.241353  0  1.758845  0  0  -0.261758  0  1.738378  0  0  -0.138316  -0.22753  0  1.772535  0
I  I42  1  0.03777259  0.07401076  0.62717714  1  0  -0.297884  0  1.252341  0  0  -0.260075  0  1.602783  0  0  -0.280891  0  1.587616  0  0  -0.145976  -0.245766  0  1.612989  0
I  I43  1  0.96222510  0.92599082  0.37282356  1  0  -0.297868  0  1.25234  0  0  -0.260042  0  1.602745  0  0  -0.280866  0  1.587575  0  0  -0.145983  -0.245734  0  1.612951  0
I  I44  1  0.56052598  0.11954713  0.16682609  1  0  0.006559  0  1.400106  0  0  -0.00384  0  1.709127  0  0  -0.008403  0  1.700989  0  0  0.113379  -0.000546  0  1.715148  0
I  I45  1  0.43949550  0.88044544  0.83317096  1  0  0.00656  0  1.400098  0  0  -0.003816  0  1.709076  0  0  -0.008385  0  1.700953  0  0  0.113381  -0.00052  0  1.715096  0
N  N46  1  0.64585013  0.29112018  0.77615173  1  0  -0.261409  0  3.106234  0  0  -0.223012  0  3.363733  0  0  -0.228625  0  3.378158  0  0  -0.290115  -0.218786  0  3.354142  0
N  N47  1  0.35414458  0.70887842  0.22384475  1  0  -0.261321  0  3.106164  0  0  -0.222943  0  3.363721  0  0  -0.228553  0  3.378146  0  0  -0.290148  -0.218717  0  3.354132  0
N  N48  1  0.75394202  0.50796355  0.66251431  1  0  -0.244065  0  3.253914  0  0  -0.17169  0  3.512227  0  0  -0.188981  0  3.533455  0  0  -0.301859  -0.159825  0  3.497591  0
N  N49  1  0.24606310  0.49203802  0.33748919  1  0  -0.244137  0  3.253782  0  0  -0.171821  0  3.512135  0  0  -0.189101  0  3.53335  0  0  -0.301921  -0.159955  0  3.497498  0
N  N50  1  0.73630224  0.47294318  0.92646796  1  0  -0.421028  0  3.390584  0  0  -0.364579  0  3.62364  0  0  -0.38811  0  3.635693  0  0  -0.388511  -0.348483  0  3.615062  0
N  N51  1  0.26369914  0.52705388  0.07353456  1  0  -0.420783  0  3.390731  0  0  -0.364429  0  3.623702  0  0  -0.387948  0  3.635763  0  0  -0.388421  -0.348329  0  3.615111  0
O  O52  1  0.89242144  0.78802353  0.89855227  1  0  -0.51948  0  1.953186  0  0  -0.479576  0  2.178554  0  0  -0.499271  0  2.174235  0  0  -0.282029  -0.466041  0  2.181064  0
O  O53  1  0.10759409  0.21197503  0.10145095  1  0  -0.519465  0  1.953358  0  0  -0.479515  0  2.178574  0  0  -0.49921  0  2.174255  0  0  -0.28201  -0.465981  0  2.181082  0
