# generated using pymatgen
data_Zn2H16C26N4O9
_symmetry_space_group_name_H-M   'P 1'
_cell_length_a   14.03005848
_cell_length_b   16.34048803
_cell_length_c   19.13935962
_cell_angle_alpha   113.18041470
_cell_angle_beta   90.01220135
_cell_angle_gamma   115.40608378
_symmetry_Int_Tables_number   1
_chemical_formula_structural   Zn2H16C26N4O9
_chemical_formula_sum   'Zn8 H64 C104 N16 O36'
_cell_volume   3567.18450097
_cell_formula_units_Z   4
loop_
 _symmetry_equiv_pos_site_id
 _symmetry_equiv_pos_as_xyz
  1  'x, y, z'
loop_
 _atom_site_type_symbol
 _atom_site_label
 _atom_site_symmetry_multiplicity
 _atom_site_fract_x
 _atom_site_fract_y
 _atom_site_fract_z
 _atom_site_occupancy
 _atom_site_pbe_bader_charge
 _atom_site_pbe_bader_spin_density
 _atom_site_pbe_cm5_charge
 _atom_site_pbe_ddec_charge
 _atom_site_pbe_ddec_spin_density
 _atom_site_pbe_ddec_sum_bond_order
 _atom_site_pbe_magmom
Zn  Zn0  1  0.39101877  0.46166747  0.89134485  1  1.28839  0  0.697343  0.859929  0  2.294244  0
Zn  Zn1  1  0.92953162  0.53841410  0.60877335  1  1.289969  0  0.697707  0.861023  0  2.293385  0
Zn  Zn2  1  0.60897896  0.53833820  0.10865810  1  1.288577  0  0.69737  0.859972  0  2.294223  0
Zn  Zn3  1  0.07046947  0.46158404  0.39122756  1  1.290005  0  0.697726  0.861043  0  2.293416  0
Zn  Zn4  1  0.86259467  0.44282536  0.16798449  1  1.328209  0  0.687725  0.898992  0  2.263387  0
Zn  Zn5  1  0.41968872  0.55715527  0.33195050  1  1.327145  0  0.687342  0.897998  0  2.263915  0
Zn  Zn6  1  0.13740400  0.55717505  0.83201458  1  1.328192  0  0.687705  0.898995  0  2.263377  0
Zn  Zn7  1  0.58031309  0.44284287  0.66804937  1  1.327139  0  0.687353  0.898036  0  2.263861  0
H  H8  1  0.28403969  0.77462072  0.72513249  1  0.047334  0  0.098989  0.09702  0  1.003542  0
H  H9  1  0.50949273  0.22552029  0.77505340  1  0.055332  0  0.098946  0.096858  0  1.002879  0
H  H10  1  0.71596535  0.22537818  0.27486659  1  0.047317  0  0.098962  0.097014  0  1.003569  0
H  H11  1  0.49050859  0.77448541  0.22494382  1  0.055405  0  0.098927  0.09682  0  1.002845  0
H  H12  1  0.48433037  0.84201320  0.74280181  1  0.031934  0  0.097263  0.093461  0  0.997561  0
H  H13  1  0.64253352  0.15824610  0.75762594  1  0.025336  0  0.097297  0.093263  0  0.997698  0
H  H14  1  0.51567353  0.15798197  0.25719078  1  0.031872  0  0.097228  0.0934  0  0.997527  0
H  H15  1  0.35746335  0.84175358  0.24237079  1  0.025328  0  0.097307  0.093253  0  0.997847  0
H  H16  1  0.56122972  0.72159192  0.71313976  1  0.068184  0  0.104742  0.108755  0  1.000399  0
H  H17  1  0.83977361  0.27879174  0.78730992  1  0.089737  0  0.10463  0.108469  0  1.000965  0
H  H18  1  0.43877267  0.27840024  0.28685233  1  0.068279  0  0.104773  0.108751  0  1.000412  0
H  H19  1  0.16022507  0.72120868  0.21268863  1  0.089863  0  0.104634  0.108468  0  1.001022  0
H  H20  1  0.11074495  0.25271595  0.69474158  1  0.081568  0  0.105088  0.105076  0  0.987642  0
H  H21  1  0.85812806  0.74752758  0.80531262  1  0.07752  0  0.105241  0.105603  0  0.987362  0
H  H22  1  0.88925334  0.74728369  0.30525985  1  0.0816  0  0.105104  0.105104  0  0.987695  0
H  H23  1  0.14187136  0.25247433  0.19468749  1  0.077256  0  0.105241  0.105583  0  0.987356  0
H  H24  1  0.99989637  0.16010911  0.55984645  1  0.049486  0  0.096617  0.091962  0  1.00239  0
H  H25  1  0.83985092  0.84018676  0.94015901  1  0.042836  0  0.096349  0.091993  0  1.00135  0
H  H26  1  0.00010083  0.83988978  0.44015420  1  0.04932  0  0.09663  0.09197  0  1.002501  0
H  H27  1  0.16014168  0.15981290  0.05983929  1  0.042789  0  0.096373  0.092024  0  1.001403  0
H  H28  1  0.02786964  0.25227503  0.47742747  1  0.107425  0  0.103342  0.107391  0  1.000344  0
H  H29  1  0.77550578  0.74804113  0.02258445  1  0.107768  0  0.103169  0.107072  0  1.000477  0
H  H30  1  0.97213331  0.74772537  0.52257265  1  0.107319  0  0.103335  0.107408  0  1.000321  0
H  H31  1  0.22449113  0.25196004  0.97741436  1  0.107494  0  0.103169  0.106999  0  1.000465  0
H  H32  1  0.45271255  0.64023693  0.04588389  1  0.17871  0  0.121712  0.102096  0  1.035155  0
H  H33  1  0.81285161  0.35991451  0.45420342  1  0.180626  0  0.121721  0.102023  0  1.034969  0
H  H34  1  0.54729009  0.35976572  0.95411908  1  0.17867  0  0.121734  0.102105  0  1.035183  0
H  H35  1  0.18715135  0.64008734  0.54580555  1  0.180343  0  0.1217  0.101994  0  1.034923  0
H  H36  1  0.54071653  0.82806923  0.09491530  1  0.109785  0  0.115458  0.126264  0  0.995964  0
H  H37  1  0.71287885  0.17208470  0.40514161  1  0.119392  0  0.115279  0.126174  0  0.995548  0
H  H38  1  0.45928753  0.17193341  0.90508871  1  0.109867  0  0.115454  0.126221  0  0.995916  0
H  H39  1  0.28712374  0.82791642  0.59486398  1  0.119461  0  0.115282  0.12611  0  0.995566  0
H  H40  1  0.59184993  0.78552272  0.86308874  1  0.103884  0  0.117627  0.12986  0  0.996058  0
H  H41  1  0.80615206  0.21447905  0.63700217  1  0.105099  0  0.117488  0.129511  0  0.995974  0
H  H42  1  0.40814102  0.21448222  0.13691135  1  0.103551  0  0.117607  0.129843  0  0.996123  0
H  H43  1  0.19384106  0.78551453  0.36300137  1  0.104919  0  0.117511  0.129608  0  0.99598  0
H  H44  1  0.51024410  0.60047031  0.82457284  1  0.171624  0  0.123424  0.105648  0  1.022853  0
H  H45  1  0.90970098  0.39952899  0.67557904  1  0.188508  0  0.123484  0.106262  0  1.02195  0
H  H46  1  0.48974786  0.39953236  0.17542648  1  0.171506  0  0.123499  0.105839  0  1.022783  0
H  H47  1  0.09029326  0.60046682  0.32442945  1  0.18866  0  0.123475  0.106243  0  1.02211  0
H  H48  1  0.94606710  0.30721934  0.18202221  1  0.178712  0  0.124515  0.108156  0  1.017167  0
H  H49  1  0.63880919  0.69276782  0.31797217  1  0.163277  0  0.124659  0.108385  0  1.016928  0
H  H50  1  0.05393232  0.69278256  0.81797841  1  0.178723  0  0.124487  0.108139  0  1.017131  0
H  H51  1  0.36119163  0.30723261  0.68202430  1  0.163254  0  0.124658  0.108423  0  1.016804  0
H  H52  1  0.87436278  0.12241444  0.14499874  1  0.114522  0  0.120835  0.13458  0  0.975409  0
H  H53  1  0.75196466  0.87760719  0.35513861  1  0.107846  0  0.120979  0.134621  0  0.974722  0
H  H54  1  0.12563807  0.87758747  0.85500241  1  0.114552  0  0.120833  0.134559  0  0.97546  0
H  H55  1  0.24803189  0.12239324  0.64485786  1  0.107828  0  0.120959  0.134578  0  0.974733  0
H  H56  1  0.56900986  0.07407465  0.04243874  1  0.074479  0  0.106211  0.110582  0  1.048267  0
H  H57  1  0.49464875  0.92592626  0.45716467  1  0.091924  0  0.106319  0.111228  0  1.048566  0
H  H58  1  0.43099272  0.92592503  0.95755695  1  0.074687  0  0.10623  0.110613  0  1.048229  0
H  H59  1  0.50534723  0.07406735  0.54283575  1  0.091716  0  0.106315  0.111195  0  1.048571  0
H  H60  1  0.65264908  0.26113477  0.08523708  1  0.119273  0  0.120838  0.096185  0  0.997259  0
H  H61  1  0.39133232  0.73889431  0.41436390  1  0.146852  0  0.120828  0.096519  0  0.997245  0
H  H62  1  0.34735209  0.73886492  0.91475704  1  0.119266  0  0.120854  0.096158  0  0.997292  0
H  H63  1  0.60866803  0.26110233  0.58563442  1  0.146842  0  0.120829  0.096533  0  0.997195  0
H  H64  1  0.88428429  0.40344264  0.02683693  1  0.626513  0  0.317205  0.404419  0  0.881613  0
H  H65  1  0.48082484  0.59643675  0.47302054  1  0.616854  0  0.317849  0.404657  0  0.880273  0
H  H66  1  0.11571509  0.59655777  0.97316214  1  0.62651  0  0.317175  0.404376  0  0.881641  0
H  H67  1  0.51917631  0.40356290  0.52697932  1  0.616879  0  0.317851  0.404629  0  0.880213  0
H  H68  1  0.79474687  0.43912351  0.02679917  1  0.673511  0  0.291762  0.40737  0  0.924383  0
H  H69  1  0.35564024  0.56088245  0.47309124  1  0.659582  0  0.291543  0.406523  0  0.925572  0
H  H70  1  0.20525142  0.56087614  0.97320017  1  0.673522  0  0.291737  0.407348  0  0.924433  0
H  H71  1  0.64436086  0.43911570  0.52690759  1  0.659562  0  0.291556  0.406532  0  0.925542  0
C  C72  1  0.13336104  0.58258402  0.67887545  1  1.591045  0  0.213475  0.579636  0  4.209117  0
C  C73  1  0.55062374  0.41746440  0.82111105  1  1.579339  0  0.213783  0.579933  0  4.210212  0
C  C74  1  0.86663976  0.41741637  0.32112675  1  1.591161  0  0.213502  0.579677  0  4.209115  0
C  C75  1  0.44937463  0.58253826  0.17889036  1  1.579631  0  0.213725  0.579811  0  4.210415  0
C  C76  1  0.25282690  0.62144314  0.68843379  1  0.00883  0  -0.015948  -0.082048  0  3.966289  0
C  C77  1  0.63129342  0.37868414  0.81164743  1  -0.037535  0  -0.015486  -0.082812  0  3.968164  0
C  C78  1  0.74717382  0.37855424  0.31156634  1  0.00884  0  -0.016013  -0.082028  0  3.966217  0
C  C79  1  0.36870210  0.62131852  0.18835346  1  -0.037219  0  -0.01555  -0.082931  0  3.96828  0
C  C80  1  0.32009133  0.72433469  0.71304075  1  -0.109151  0  -0.09022  -0.095486  0  4.005663  0
C  C81  1  0.59579050  0.27583760  0.78714759  1  -0.05534  0  -0.089895  -0.094217  0  4.004994  0
C  C82  1  0.67991301  0.27566423  0.28695573  1  -0.109297  0  -0.090175  -0.095587  0  4.005616  0
C  C83  1  0.40420751  0.72416432  0.21285095  1  -0.055809  0  -0.089903  -0.094138  0  4.005007  0
C  C84  1  0.43150039  0.76163555  0.72282689  1  -0.022392  0  -0.09999  -0.097942  0  4.060988  0
C  C85  1  0.66997796  0.23860373  0.77747504  1  -0.039026  0  -0.100804  -0.098428  0  4.060685  0
C  C86  1  0.56849848  0.23835813  0.27716467  1  -0.022468  0  -0.099934  -0.097755  0  4.060797  0
C  C87  1  0.33002222  0.76139970  0.22252350  1  -0.038824  0  -0.100729  -0.098363  0  4.06087  0
C  C88  1  0.47456186  0.69516023  0.70659423  1  -0.051149  0  -0.08596  -0.092263  0  3.986993  0
C  C89  1  0.77945442  0.30512982  0.79372122  1  -0.072805  0  -0.085662  -0.092677  0  3.98698  0
C  C90  1  0.52543982  0.30483194  0.29339682  1  -0.05074  0  -0.085998  -0.09223  0  3.986978  0
C  C91  1  0.22054647  0.69487360  0.20627835  1  -0.072799  0  -0.085583  -0.092541  0  3.986935  0
C  C92  1  0.40770391  0.59141848  0.67965408  1  0.07764  0  -0.011488  -0.058427  0  3.914818  0
C  C93  1  0.81622227  0.40884367  0.82055915  1  0.033577  0  -0.011308  -0.056985  0  3.914243  0
C  C94  1  0.59229645  0.40857818  0.32034163  1  0.077446  0  -0.01148  -0.058471  0  3.914767  0
C  C95  1  0.18377786  0.59115824  0.17944147  1  0.033519  0  -0.01134  -0.057126  0  3.914363  0
C  C96  1  0.29503141  0.55308855  0.67016207  1  0.019557  0  0.013701  0.056064  0  3.908453  0
C  C97  1  0.74181717  0.44710382  0.82993233  1  0.060536  0  0.013372  0.055737  0  3.909161  0
C  C98  1  0.70496718  0.44690885  0.32983702  1  0.019537  0  0.013652  0.055968  0  3.908558  0
C  C99  1  0.25818221  0.55289657  0.17006831  1  0.060448  0  0.013383  0.055833  0  3.90924  0
C  C100  1  0.45906377  0.52354764  0.66018366  1  1.553394  0  0.192526  0.556125  0  4.224583  0
C  C101  1  0.93539914  0.47678723  0.84013713  1  1.556692  0  0.192524  0.556755  0  4.226594  0
C  C102  1  0.54093513  0.47644752  0.33981102  1  1.553148  0  0.192634  0.556306  0  4.224276  0
C  C103  1  0.06459961  0.52321619  0.15986453  1  1.556766  0  0.192454  0.556645  0  4.226451  0
C  C104  1  0.25665795  0.44246009  0.76805170  1  1.550669  0  0.226811  0.607144  0  4.146759  0
C  C105  1  0.81425370  0.55766340  0.73199690  1  1.553867  0  0.226689  0.605925  0  4.148536  0
C  C106  1  0.74333853  0.55753880  0.23194895  1  1.550779  0  0.226783  0.607196  0  4.14683  0
C  C107  1  0.18574748  0.44233775  0.26800347  1  1.553454  0  0.226633  0.60584  0  4.148622  0
C  C108  1  0.19782489  0.39168853  0.68582934  1  0.043004  0  -0.012177  -0.076326  0  3.941019  0
C  C109  1  0.80603832  0.60850718  0.81417322  1  0.060207  0  -0.012856  -0.076123  0  3.940141  0
C  C110  1  0.80217344  0.60831262  0.31417208  1  0.043373  0  -0.012187  -0.076364  0  3.940812  0
C  C111  1  0.19396115  0.39149626  0.18582532  1  0.060276  0  -0.012826  -0.076005  0  3.940072  0
C  C112  1  0.12214984  0.28994881  0.65677410  1  -0.095998  0  -0.082042  -0.081735  0  3.981537  0
C  C113  1  0.83217142  0.71026594  0.84323731  1  -0.079811  0  -0.0815  -0.081846  0  3.981148  0
C  C114  1  0.87785029  0.71005309  0.34322757  1  -0.096447  0  -0.082072  -0.081807  0  3.981548  0
C  C115  1  0.16782227  0.28973448  0.15676124  1  -0.079496  0  -0.081467  -0.081765  0  3.981036  0
C  C116  1  0.06053252  0.23879254  0.58184284  1  -0.017095  0  -0.100433  -0.099383  0  4.072052  0
C  C117  1  0.82169991  0.76145780  0.91816142  1  -0.043068  0  -0.100184  -0.099658  0  4.070797  0
C  C118  1  0.93946794  0.76120861  0.41815857  1  -0.016501  0  -0.10043  -0.099328  0  4.07213  0
C  C119  1  0.17829194  0.23854036  0.08183637  1  -0.043061  0  -0.100268  -0.099837  0  4.07103  0
C  C120  1  0.07612263  0.28959979  0.53577857  1  -0.066774  0  -0.084316  -0.083472  0  3.981737  0
C  C121  1  0.78639249  0.71065981  0.96422885  1  -0.059819  0  -0.084009  -0.082956  0  3.980639  0
C  C122  1  0.92388069  0.71040136  0.46422284  1  -0.066998  0  -0.084328  -0.08353  0  3.981654  0
C  C123  1  0.21359867  0.28933984  0.03577101  1  -0.059249  0  -0.083974  -0.082775  0  3.98062  0
C  C124  1  0.15447534  0.39049839  0.56308175  1  0.062274  0  -0.011077  -0.065681  0  3.894561  0
C  C125  1  0.76379958  0.60973600  0.93693141  1  0.026362  0  -0.011758  -0.06563  0  3.894541  0
C  C126  1  0.84552727  0.60950276  0.43691967  1  0.062234  0  -0.011097  -0.065664  0  3.894466  0
C  C127  1  0.23619733  0.39026516  0.06306896  1  0.026253  0  -0.011735  -0.065653  0  3.894484  0
C  C128  1  0.21708930  0.44330890  0.63903152  1  -0.021147  0  0.016238  0.065182  0  3.90033  0
C  C129  1  0.77357896  0.55689594  0.86098199  1  0.016175  0  0.01649  0.064761  0  3.898247  0
C  C130  1  0.78291218  0.55668999  0.36096913  1  -0.021101  0  0.016292  0.065196  0  3.900177  0
C  C131  1  0.22641979  0.44310748  0.13901863  1  0.016114  0  0.016477  0.064723  0  3.898178  0
C  C132  1  0.16827719  0.43912358  0.50879060  1  1.583548  0  0.211324  0.588779  0  4.209061  0
C  C133  1  0.72899141  0.56107518  0.99119471  1  1.571886  0  0.21151  0.587937  0  4.20987  0
C  C134  1  0.83172853  0.56087381  0.49120798  1  1.583233  0  0.211372  0.588954  0  4.208706  0
C  C135  1  0.27100977  0.43892596  0.00880722  1  1.57177  0  0.211567  0.588118  0  4.209735  0
C  C136  1  0.48494286  0.67551376  0.00754429  1  0.405081  0  0.065005  0.132224  0  3.88486  0
C  C137  1  0.80966723  0.32461431  0.49255199  1  0.407732  0  0.065157  0.132709  0  3.884966  0
C  C138  1  0.51505727  0.32448814  0.99245686  1  0.405085  0  0.065022  0.132159  0  3.885032  0
C  C139  1  0.19033568  0.67538603  0.50745594  1  0.408298  0  0.065167  0.132727  0  3.884758  0
C  C140  1  0.53445487  0.77946584  0.03471282  1  0.07253  0  -0.072804  -0.18869  0  3.903711  0
C  C141  1  0.75515682  0.22065398  0.46535988  1  0.055604  0  -0.072877  -0.188733  0  3.904456  0
C  C142  1  0.46554601  0.22053757  0.96528936  1  0.072541  0  -0.072811  -0.188589  0  3.903598  0
C  C143  1  0.24484326  0.77934638  0.53464597  1  0.054766  0  -0.072867  -0.188643  0  3.904498  0
C  C144  1  0.57307292  0.82008131  0.98222480  1  0.296286  0  0.104369  0.192704  0  4.058308  0
C  C145  1  0.75301120  0.17998865  0.51783608  1  0.28764  0  0.104243  0.191552  0  4.060961  0
C  C146  1  0.42692335  0.17992285  0.01777764  1  0.296133  0  0.104269  0.192505  0  4.058492  0
C  C147  1  0.24698850  0.82001095  0.48217003  1  0.287739  0  0.104176  0.191526  0  4.060858  0
C  C148  1  0.56268284  0.75580851  0.90500998  1  -0.005602  0  -0.070428  -0.188141  0  3.917881  0
C  C149  1  0.80681244  0.24422025  0.59508368  1  -0.027745  0  -0.07027  -0.186348  0  3.918576  0
C  C150  1  0.43730912  0.24419416  0.09499038  1  -0.005151  0  -0.070362  -0.188009  0  3.918109  0
C  C151  1  0.19318470  0.75577709  0.40492219  1  -0.027396  0  -0.070246  -0.186436  0  3.918637  0
C  C152  1  0.51580822  0.65311867  0.88313155  1  0.494047  0  0.061524  0.123773  0  3.894568  0
C  C153  1  0.86268636  0.34690874  0.61699005  1  0.481079  0  0.061578  0.122669  0  3.894841  0
C  C154  1  0.48418408  0.34688324  0.11686856  1  0.494071  0  0.061444  0.123489  0  3.89456  0
C  C155  1  0.13731257  0.65308935  0.38301712  1  0.480429  0  0.061633  0.122793  0  3.894877  0
C  C156  1  0.86329139  0.25287703  0.15102873  1  0.474707  0  0.062856  0.123245  0  3.883286  0
C  C157  1  0.61035448  0.74713591  0.34891343  1  0.501625  0  0.062737  0.123865  0  3.881896  0
C  C158  1  0.13670980  0.74712414  0.84897007  1  0.474742  0  0.062884  0.123291  0  3.88332  0
C  C159  1  0.38964596  0.25286376  0.65108278  1  0.501936  0  0.062728  0.123854  0  3.881722  0
C  C160  1  0.82348858  0.15083245  0.13058216  1  -0.053928  0  -0.068966  -0.185358  0  3.900858  0
C  C161  1  0.67261863  0.84919531  0.36942322  1  0.018736  0  -0.069739  -0.186458  0  3.900578  0
C  C162  1  0.17651261  0.84916871  0.86941717  1  -0.053887  0  -0.068961  -0.185347  0  3.90104  0
C  C163  1  0.32738004  0.15080511  0.63057481  1  0.018794  0  -0.069747  -0.186472  0  3.900572  0
C  C164  1  0.71738318  0.08485357  0.08914943  1  0.355179  0  0.102753  0.197149  0  4.055787  0
C  C165  1  0.63245409  0.91519335  0.41076739  1  0.253109  0  0.103484  0.198317  0  4.055754  0
C  C166  1  0.28261940  0.91514610  0.91084730  1  0.355042  0  0.102763  0.197145  0  4.055831  0
C  C167  1  0.36754566  0.08480781  0.58923298  1  0.253041  0  0.103515  0.198435  0  4.055795  0
C  C168  1  0.65300167  0.12326421  0.07215165  1  -0.027464  0  -0.079668  -0.197732  0  3.926362  0
C  C169  1  0.52955425  0.87676606  0.42757085  1  -0.006066  0  -0.079976  -0.19926  0  3.926708  0
C  C170  1  0.34700129  0.87673622  0.92784378  1  -0.027706  0  -0.079733  -0.19788  0  3.926538  0
C  C171  1  0.47044324  0.12323057  0.57243007  1  -0.005914  0  -0.079993  -0.199285  0  3.926864  0
C  C172  1  0.69848079  0.22644975  0.09635357  1  0.554578  0  0.058468  0.120298  0  3.92079  0
C  C173  1  0.47187649  0.77358372  0.40335024  1  0.52503  0  0.058535  0.120294  0  3.92177  0
C  C174  1  0.30152180  0.77354994  0.90364107  1  0.554583  0  0.058465  0.120456  0  3.920916  0
C  C175  1  0.52812353  0.22641368  0.59664833  1  0.525155  0  0.058546  0.12034  0  3.921757  0
N  N176  1  0.47593496  0.61372872  0.93315219  1  -1.23539  0  -0.318498  -0.231421  0  3.549842  0
N  N177  1  0.86235694  0.38635062  0.56696351  1  -1.240104  0  -0.3187  -0.231938  0  3.550843  0
N  N178  1  0.52406127  0.38627395  0.06684817  1  -1.235651  0  -0.318537  -0.231331  0  3.549789  0
N  N179  1  0.13764267  0.61364596  0.43304367  1  -1.239611  0  -0.318775  -0.232123  0  3.550572  0
N  N180  1  0.61779220  0.92418485  0.00224903  1  -0.495514  0  -0.12485  -0.104298  0  3.247365  0
N  N181  1  0.69350889  0.07586562  0.49774696  1  -0.431832  0  -0.124819  -0.104344  0  3.247873  0
N  N182  1  0.38220437  0.07581706  0.99775160  1  -0.495391  0  -0.124801  -0.104227  0  3.247319  0
N  N183  1  0.30648931  0.92413099  0.50225604  1  -0.431648  0  -0.124879  -0.104444  0  3.247703  0
N  N184  1  0.67911185  0.98111367  0.06824408  1  -0.404915  0  -0.127125  -0.109952  0  3.225934  0
N  N185  1  0.69803747  0.01895455  0.43179655  1  -0.438895  0  -0.127007  -0.109926  0  3.226918  0
N  N186  1  0.32088791  0.01888749  0.93175578  1  -0.404876  0  -0.127102  -0.109886  0  3.225806  0
N  N187  1  0.30195863  0.98104358  0.56820541  1  -0.438982  0  -0.126939  -0.109868  0  3.226571  0
N  N188  1  0.80131563  0.28959677  0.13446584  1  -1.232102  0  -0.316529  -0.223615  0  3.538509  0
N  N189  1  0.51162510  0.71042298  0.36536676  1  -1.241332  0  -0.316461  -0.223747  0  3.538754  0
N  N190  1  0.19868665  0.71040514  0.86553375  1  -1.232056  0  -0.316511  -0.223689  0  3.538539  0
N  N191  1  0.48837563  0.28957442  0.63463077  1  -1.241698  0  -0.316426  -0.223836  0  3.538862  0
O  O192  1  0.09018660  0.59893961  0.63015795  1  -1.167245  0  -0.309944  -0.522444  0  2.311653  0
O  O193  1  0.49110535  0.40109934  0.86980474  1  -1.167281  0  -0.310372  -0.522294  0  2.312103  0
O  O194  1  0.90981525  0.40106003  0.36984347  1  -1.167326  0  -0.309966  -0.522476  0  2.311704  0
O  O195  1  0.50889783  0.59891009  0.13019845  1  -1.167749  0  -0.310392  -0.522343  0  2.312242  0
O  O196  1  0.08111942  0.53628042  0.71688538  1  -1.176188  0  -0.300042  -0.560007  0  2.357443  0
O  O197  1  0.54467676  0.46374243  0.78306384  1  -1.171023  0  -0.29994  -0.560046  0  2.358529  0
O  O198  1  0.91888032  0.46372072  0.28311760  1  -1.176225  0  -0.30006  -0.560057  0  2.357472  0
O  O199  1  0.45531505  0.53625424  0.21693135  1  -1.171003  0  -0.299901  -0.559985  0  2.35873  0
O  O200  1  0.26203199  0.52550326  0.81614305  1  -1.192407  0  -0.316687  -0.563267  0  2.363484  0
O  O201  1  0.73665865  0.47461382  0.68386532  1  -1.194595  0  -0.316084  -0.562023  0  2.364559  0
O  O202  1  0.73796781  0.47449940  0.18385783  1  -1.192316  0  -0.316669  -0.563255  0  2.36355  0
O  O203  1  0.26334292  0.52538811  0.31613323  1  -1.194261  0  -0.31606  -0.561997  0  2.364562  0
O  O204  1  0.29984804  0.39707227  0.78649727  1  -1.156497  0  -0.305398  -0.524422  0  2.323141  0
O  O205  1  0.90289684  0.60299242  0.71363418  1  -1.15845  0  -0.30574  -0.524514  0  2.322892  0
O  O206  1  0.70014705  0.60292810  0.21350702  1  -1.156663  0  -0.305388  -0.524432  0  2.32307  0
O  O207  1  0.09710296  0.39701024  0.28636722  1  -1.158393  0  -0.305746  -0.524534  0  2.322931  0
O  O208  1  0.56035347  0.56567132  0.69114430  1  -1.161849  0  -0.340776  -0.564789  0  2.232049  0
O  O209  1  0.99458182  0.43472875  0.80903827  1  -1.159122  0  -0.340616  -0.565813  0  2.235529  0
O  O210  1  0.43964467  0.43432234  0.30884883  1  -1.161791  0  -0.340836  -0.564883  0  2.232107  0
O  O211  1  0.00541621  0.56527466  0.19096391  1  -1.159293  0  -0.340609  -0.565783  0  2.235498  0
O  O212  1  0.40486897  0.43068414  0.61717815  1  -1.178924  0  -0.31918  -0.551768  0  2.146771  0
O  O213  1  0.97396718  0.56956592  0.88334878  1  -1.166737  0  -0.319238  -0.551692  0  2.146222  0
O  O214  1  0.59512560  0.56930949  0.38281915  1  -1.178857  0  -0.319187  -0.551831  0  2.146639  0
O  O215  1  0.02602759  0.43043523  0.11665211  1  -1.166655  0  -0.319183  -0.551604  0  2.146079  0
O  O216  1  0.25803762  0.50795360  0.51324601  1  -1.196211  0  -0.306999  -0.555333  0  2.229785  0
O  O217  1  0.74995654  0.49226030  0.98677768  1  -1.186767  0  -0.307494  -0.55573  0  2.229993  0
O  O218  1  0.74196801  0.49204078  0.48675258  1  -1.196104  0  -0.307067  -0.555463  0  2.229738  0
O  O219  1  0.25004025  0.50773636  0.01321855  1  -1.18669  0  -0.307517  -0.555797  0  2.229975  0
O  O220  1  0.08066985  0.40351659  0.46013355  1  -1.164728  0  -0.33445  -0.560124  0  2.340775  0
O  O221  1  0.67696035  0.59664871  0.03983451  1  -1.16758  0  -0.333971  -0.558769  0  2.341258  0
O  O222  1  0.91933736  0.59648380  0.53986761  1  -1.164599  0  -0.334431  -0.560219  0  2.340568  0
O  O223  1  0.32305091  0.40335692  0.96017261  1  -1.167657  0  -0.333981  -0.55884  0  2.341139  0
O  O224  1  0.81815770  0.39961160  0.04474740  1  -1.263238  0  -0.573782  -0.766272  0  2.072887  0
O  O225  1  0.41854280  0.60026772  0.45507229  1  -1.239722  0  -0.57413  -0.765284  0  2.074463  0
O  O226  1  0.18184169  0.60038881  0.95525115  1  -1.263252  0  -0.57375  -0.766226  0  2.072903  0
O  O227  1  0.58145830  0.39973043  0.54492654  1  -1.239747  0  -0.574146  -0.765246  0  2.074387  0
