# generated using pymatgen
data_CdH3C2N3
_symmetry_space_group_name_H-M   'P 1'
_cell_length_a   8.63563484
_cell_length_b   8.63571686
_cell_length_c   14.92008201
_cell_angle_alpha   91.07586045
_cell_angle_beta   91.07722782
_cell_angle_gamma   90.48358944
_symmetry_Int_Tables_number   1
_chemical_formula_structural   CdH3C2N3
_chemical_formula_sum   'Cd4 H12 C8 N12'
_cell_volume   1112.22778994
_cell_formula_units_Z   4
loop_
 _symmetry_equiv_pos_site_id
 _symmetry_equiv_pos_as_xyz
  1  'x, y, z'
loop_
 _atom_site_type_symbol
 _atom_site_label
 _atom_site_symmetry_multiplicity
 _atom_site_fract_x
 _atom_site_fract_y
 _atom_site_fract_z
 _atom_site_occupancy
 _atom_site_hle17_bader_spin_density
 _atom_site_hle17_ddec_charge
 _atom_site_hle17_ddec_spin_density
 _atom_site_hle17_ddec_sum_bond_order
 _atom_site_hle17_magmom
 _atom_site_hse06_10hf_bader_spin_density
 _atom_site_hse06_10hf_ddec_charge
 _atom_site_hse06_10hf_ddec_spin_density
 _atom_site_hse06_10hf_ddec_sum_bond_order
 _atom_site_hse06_10hf_magmom
 _atom_site_hse06_bader_spin_density
 _atom_site_hse06_ddec_charge
 _atom_site_hse06_ddec_spin_density
 _atom_site_hse06_ddec_sum_bond_order
 _atom_site_hse06_magmom
 _atom_site_pbe_bader_spin_density
 _atom_site_pbe_cm5_charge
 _atom_site_pbe_ddec_charge
 _atom_site_pbe_ddec_spin_density
 _atom_site_pbe_ddec_sum_bond_order
 _atom_site_pbe_magmom
Cd  Cd0  1  0.50907792  0.49094325  0.75000257  1  0  0.636033  0  2.460987  0  0  0.45312  0  2.955259  0  0  0.482519  0  2.916177  0  0  0.508044  0.433055  0  2.981603  0
Cd  Cd1  1  0.49093060  0.50905514  0.24999665  1  0  0.636015  0  2.461014  0  0  0.453102  0  2.955285  0  0  0.4825  0  2.916205  0  0  0.508025  0.433027  0  2.981615  0
Cd  Cd2  1  0.49999079  0.00000417  0.99999940  1  0  1.145067  0  1.89893  0  0  0.963907  0  2.37576  0  0  1.009247  0  2.330544  0  0  0.79741  0.932127  0  2.406302  0
Cd  Cd3  1  0.00000540  0.49999851  0.50000151  1  0  1.145024  0  1.898889  0  0  0.963846  0  2.375721  0  0  1.009183  0  2.330507  0  0  0.797419  0.932064  0  2.406261  0
H  H4  1  0.18561876  0.09187665  0.95310030  1  0  0.339188  0  0.882876  0  0  0.336642  0  0.927066  0  0  0.341374  0  0.924238  0  0  0.303473  0.333269  0  0.929123  0
H  H5  1  0.90812210  0.81437419  0.54689820  1  0  0.339223  0  0.882847  0  0  0.336659  0  0.92705  0  0  0.34139  0  0.924223  0  0  0.303454  0.333282  0  0.929107  0
H  H6  1  0.81437820  0.90812406  0.04689951  1  0  0.339211  0  0.882902  0  0  0.336665  0  0.927088  0  0  0.341396  0  0.92426  0  0  0.303452  0.333291  0  0.929134  0
H  H7  1  0.09187712  0.18562073  0.45310225  1  0  0.33921  0  0.882892  0  0  0.336665  0  0.927079  0  0  0.341395  0  0.924251  0  0  0.303464  0.333291  0  0.929128  0
H  H8  1  0.18793818  0.89957537  0.94902809  1  0  0.338723  0  0.882867  0  0  0.336262  0  0.926851  0  0  0.340964  0  0.924115  0  0  0.303313  0.332904  0  0.928841  0
H  H9  1  0.10042652  0.81205949  0.55097297  1  0  0.338733  0  0.882826  0  0  0.336317  0  0.926743  0  0  0.341019  0  0.924006  0  0  0.303306  0.332956  0  0.928734  0
H  H10  1  0.81205760  0.10042303  0.05097236  1  0  0.338739  0  0.882909  0  0  0.336295  0  0.926866  0  0  0.340997  0  0.92413  0  0  0.303287  0.332937  0  0.928852  0
H  H11  1  0.89957276  0.18794122  0.44902753  1  0  0.338702  0  0.882953  0  0  0.3363  0  0.926851  0  0  0.341  0  0.924116  0  0  0.303281  0.332942  0  0.928839  0
H  H12  1  0.17129170  0.99239924  0.04672708  1  0  0.335106  0  0.888207  0  0  0.33102  0  0.935985  0  0  0.336072  0  0.932573  0  0  0.300876  0.327383  0  0.938515  0
H  H13  1  0.00759821  0.82871083  0.45327233  1  0  0.335146  0  0.888115  0  0  0.331044  0  0.935917  0  0  0.336096  0  0.932505  0  0  0.300886  0.327407  0  0.938453  0
H  H14  1  0.82870411  0.00760148  0.95327406  1  0  0.335209  0  0.888157  0  0  0.331118  0  0.935936  0  0  0.336169  0  0.932522  0  0  0.300935  0.327478  0  0.938476  0
H  H15  1  0.99239991  0.17128988  0.54672749  1  0  0.335157  0  0.888119  0  0  0.331057  0  0.935925  0  0  0.336108  0  0.932514  0  0  0.300889  0.327419  0  0.938468  0
C  C16  1  0.50840485  0.28477844  0.83698096  1  0  -0.074916  0  3.292118  0  0  -0.053552  0  3.595944  0  0  -0.051178  0  3.607132  0  0  -0.020251  -0.054986  0  3.588029  0
C  C17  1  0.71522686  0.49160492  0.66301529  1  0  -0.075155  0  3.292352  0  0  -0.053801  0  3.596201  0  0  -0.051431  0  3.60739  0  0  -0.020294  -0.055241  0  3.58828  0
C  C18  1  0.49159908  0.71522689  0.16301627  1  0  -0.074971  0  3.29234  0  0  -0.053599  0  3.596159  0  0  -0.05123  0  3.607349  0  0  -0.020247  -0.055035  0  3.588233  0
C  C19  1  0.28477705  0.50839579  0.33698525  1  0  -0.075064  0  3.292264  0  0  -0.053705  0  3.596096  0  0  -0.051332  0  3.607283  0  0  -0.020263  -0.055143  0  3.588177  0
C  C20  1  0.30276593  0.49059855  0.65863634  1  0  -0.074712  0  3.292329  0  0  -0.053355  0  3.596098  0  0  -0.050987  0  3.607291  0  0  -0.019837  -0.054802  0  3.58818  0
C  C21  1  0.50939682  0.69724053  0.84136367  1  0  -0.074626  0  3.292333  0  0  -0.053256  0  3.596104  0  0  -0.050888  0  3.6073  0  0  -0.019812  -0.054701  0  3.588187  0
C  C22  1  0.69723099  0.50939983  0.34136077  1  0  -0.074678  0  3.292313  0  0  -0.05332  0  3.596107  0  0  -0.050952  0  3.607297  0  0  -0.019825  -0.054768  0  3.588192  0
C  C23  1  0.49060357  0.30275555  0.15863680  1  0  -0.074655  0  3.292549  0  0  -0.053291  0  3.596328  0  0  -0.050924  0  3.607522  0  0  -0.019836  -0.054736  0  3.588402  0
N  N24  1  0.50867336  0.18207075  0.88693541  1  0  -0.435278  0  3.084219  0  0  -0.376214  0  3.356095  0  0  -0.395233  0  3.371843  0  0  -0.3816  -0.363146  0  3.34495  0
N  N25  1  0.81793298  0.49134388  0.61306765  1  0  -0.435085  0  3.084338  0  0  -0.376006  0  3.356185  0  0  -0.395021  0  3.371934  0  0  -0.381616  -0.362936  0  3.345034  0
N  N26  1  0.49132813  0.81791838  0.11306501  1  0  -0.435249  0  3.084458  0  0  -0.376189  0  3.356321  0  0  -0.395204  0  3.372066  0  0  -0.381641  -0.363124  0  3.345169  0
N  N27  1  0.18206748  0.50866030  0.38693223  1  0  -0.435174  0  3.084331  0  0  -0.376106  0  3.356191  0  0  -0.395123  0  3.371938  0  0  -0.381644  -0.363043  0  3.345044  0
N  N28  1  0.49026273  0.19882439  0.10729411  1  0  -0.435283  0  3.085628  0  0  -0.376116  0  3.357538  0  0  -0.39516  0  3.373337  0  0  -0.381621  -0.36303  0  3.346352  0
N  N29  1  0.80117431  0.50973893  0.39270360  1  0  -0.435275  0  3.08539  0  0  -0.376104  0  3.357304  0  0  -0.395149  0  3.373101  0  0  -0.381637  -0.363024  0  3.346126  0
N  N30  1  0.50973776  0.80118097  0.89270913  1  0  -0.43531  0  3.085446  0  0  -0.376149  0  3.357371  0  0  -0.395195  0  3.373169  0  0  -0.381631  -0.363064  0  3.346191  0
N  N31  1  0.19882490  0.49025712  0.60729283  1  0  -0.435223  0  3.085578  0  0  -0.376044  0  3.357487  0  0  -0.39509  0  3.373286  0  0  -0.381616  -0.362959  0  3.346305  0
N  N32  1  0.22184144  0.99540661  0.98556942  1  0  -0.883353  0  2.882806  0  0  -0.853178  0  3.075191  0  0  -0.871709  0  3.063587  0  0  -0.757018  -0.84015  0  3.083144  0
N  N33  1  0.00459322  0.77815849  0.51442988  1  0  -0.883471  0  2.882633  0  0  -0.85331  0  3.074931  0  0  -0.871839  0  3.063329  0  0  -0.757026  -0.840276  0  3.082885  0
N  N34  1  0.77815898  0.00459294  0.01443041  1  0  -0.883561  0  2.882808  0  0  -0.853403  0  3.075171  0  0  -0.871934  0  3.063564  0  0  -0.757076  -0.840373  0  3.08312  0
N  N35  1  0.99540602  0.22183874  0.48556992  1  0  -0.883447  0  2.882778  0  0  -0.853322  0  3.075086  0  0  -0.87185  0  3.063484  0  0  -0.757022  -0.840293  0  3.083041  0
