# generated using pymatgen
data_NiH14C14(NO2)2
_symmetry_space_group_name_H-M   'P 1'
_cell_length_a   9.15049522
_cell_length_b   9.15057150
_cell_length_c   8.47136949
_cell_angle_alpha   86.23859231
_cell_angle_beta   86.24002775
_cell_angle_gamma   106.30114899
_symmetry_Int_Tables_number   1
_chemical_formula_structural   NiH14C14(NO2)2
_chemical_formula_sum   'Ni2 H28 C28 N4 O8'
_cell_volume   676.72780099
_cell_formula_units_Z   2
loop_
 _symmetry_equiv_pos_site_id
 _symmetry_equiv_pos_as_xyz
  1  'x, y, z'
loop_
 _atom_site_type_symbol
 _atom_site_label
 _atom_site_symmetry_multiplicity
 _atom_site_fract_x
 _atom_site_fract_y
 _atom_site_fract_z
 _atom_site_occupancy
 _atom_site_pbe_cm5_charge
 _atom_site_pbe_ddec_charge
 _atom_site_pbe_ddec_spin_density
 _atom_site_pbe_ddec_sum_bond_order
 _atom_site_pbe_magmom
Ni  Ni0  1  0.63089938  0.84680134  0.98074967  1  0.775174  0.82249  0.887217  2.843663  0.714
Ni  Ni1  1  0.84680902  0.63091467  0.48075365  1  0.775238  0.822405  -0.887199  2.843973  -0.714
H  H2  1  0.51034837  0.96944972  0.68263882  1  0.11658  0.104835  8.1e-05  1.017137  0.0
H  H3  1  0.96945531  0.51037980  0.18263848  1  0.116584  0.104716  -8.1e-05  1.01713  0.0
H  H4  1  0.41847643  0.19239175  0.54222255  1  0.086227  0.078492  2.5e-05  1.033212  0.0
H  H5  1  0.19239068  0.41847495  0.04221907  1  0.086224  0.078489  -2.5e-05  1.03328  0.0
H  H6  1  0.52698223  0.37795575  0.57475478  1  0.092954  0.102573  -0.000135  1.036107  0.0
H  H7  1  0.37795113  0.52696600  0.07475003  1  0.092989  0.102624  0.000135  1.036056  0.0
H  H8  1  0.72085021  0.17685265  0.07067056  1  0.122092  0.107679  8.5e-05  1.00183  0.0
H  H9  1  0.17686785  0.72082910  0.57067432  1  0.122111  0.107749  -8.5e-05  1.001752  0.0
H  H10  1  0.60608190  0.38898343  0.92173926  1  0.105671  0.132727  5.6e-05  1.008737  0.0
H  H11  1  0.38899021  0.60606225  0.42173006  1  0.105691  0.132697  -5.6e-05  1.008828  0.0
H  H12  1  0.33315849  0.38759922  0.79442947  1  0.086959  0.085327  4.5e-05  0.989532  0.0
H  H13  1  0.38760742  0.33315796  0.29442690  1  0.086943  0.085323  -4.5e-05  0.989477  0.0
H  H14  1  0.26457175  0.37410241  0.60510916  1  0.082454  0.074239  -8.9e-05  1.033994  0.0
H  H15  1  0.37409535  0.26457193  0.10511333  1  0.082416  0.074173  8.9e-05  1.033996  0.0
H  H16  1  0.96621278  0.50871242  0.77990511  1  0.116908  0.105531  -8e-05  1.015801  0.0
H  H17  1  0.50870759  0.96620917  0.27989416  1  0.116947  0.105599  8.1e-05  1.015918  0.0
H  H18  1  0.95012862  0.10068325  0.88867057  1  0.093038  0.102828  0.000135  1.035451  0.0
H  H19  1  0.10069989  0.95013891  0.38869369  1  0.093125  0.102908  -0.000135  1.035441  0.0
H  H20  1  0.05845034  0.28634787  0.92097743  1  0.086017  0.078265  -2.5e-05  1.032081  0.0
H  H21  1  0.28637456  0.05845190  0.42096728  1  0.086005  0.078196  2.5e-05  1.032236  0.0
H  H22  1  0.75686163  0.30056230  0.39159820  1  0.121885  0.107409  -8.4e-05  1.002064  0.0
H  H23  1  0.30053447  0.75685078  0.89159503  1  0.121902  0.10748  8.5e-05  1.001999  0.0
H  H24  1  0.87175503  0.08893793  0.54149629  1  0.105517  0.132251  -5.5e-05  1.009013  0.0
H  H25  1  0.08892723  0.87175890  0.04150156  1  0.105516  0.13229  5.5e-05  1.009037  0.0
H  H26  1  0.21255336  0.10445428  0.85866935  1  0.08275  0.074453  8.8e-05  1.033062  0.0
H  H27  1  0.10445896  0.21254808  0.35868862  1  0.082754  0.074457  -8.8e-05  1.033059  0.0
H  H28  1  0.14411322  0.09076041  0.66926296  1  0.08712  0.085417  -4.6e-05  0.989698  0.0
H  H29  1  0.09074918  0.14410982  0.16928184  1  0.087122  0.085487  4.6e-05  0.98964  0.0
C  C30  1  0.65805085  0.70498975  0.70435141  1  0.218551  0.4572  -0.000756  4.180287  -0.004
C  C31  1  0.70498707  0.65807008  0.20436527  1  0.218445  0.456924  0.000756  4.179977  0.004
C  C32  1  0.52647583  0.20614319  0.75685572  1  -0.01397  0.09175  -0.006432  3.944724  -0.006
C  C33  1  0.20614420  0.52646996  0.25684757  1  -0.013947  0.09173  0.006434  3.944634  0.006
C  C34  1  0.54801909  0.05840031  0.76202827  1  0.025639  -0.022662  -0.006328  3.877221  -0.006
C  C35  1  0.05840642  0.54802804  0.26202382  1  0.025631  -0.022465  0.006327  3.877139  0.006
C  C36  1  0.44775514  0.27261998  0.63410488  1  -0.165779  -0.198488  -0.000108  3.976813  0.0
C  C37  1  0.27261461  0.44775397  0.13410680  1  -0.165779  -0.198472  0.000108  3.976875  0.0
C  C38  1  0.65830005  0.16751591  0.96560836  1  0.032224  0.055513  -0.006306  3.897712  -0.006
C  C39  1  0.16752174  0.65828865  0.46559461  1  0.032222  0.055547  0.006304  3.897854  0.006
C  C40  1  0.59698287  0.27473116  0.88690866  1  -0.102884  -0.207111  -0.005753  3.922107  -0.005
C  C41  1  0.27474306  0.59697224  0.38691229  1  -0.1029  -0.207122  0.005754  3.92188  0.005
C  C42  1  0.30312322  0.30970429  0.70007055  1  -0.167807  -0.132456  -0.00079  3.921534  -0.001
C  C43  1  0.30969718  0.30311900  0.20007589  1  -0.167806  -0.132426  0.00079  3.921386  0.001
C  C44  1  0.95059898  0.27208198  0.70615527  1  -0.014108  0.091619  0.006392  3.947378  0.006
C  C45  1  0.27207571  0.95060467  0.20615344  1  -0.014134  0.091586  -0.006397  3.947164  -0.006
C  C46  1  0.92872722  0.41968282  0.70059108  1  0.025353  -0.023132  0.006196  3.877539  0.006
C  C47  1  0.41968025  0.92872582  0.20058896  1  0.025299  -0.023221  -0.006194  3.877569  -0.006
C  C48  1  0.02930366  0.20596407  0.82919494  1  -0.165378  -0.198367  0.000107  3.976689  0.0
C  C49  1  0.20597227  0.02930442  0.32919739  1  -0.165488  -0.198416  -0.000108  3.977042  0.0
C  C50  1  0.81926081  0.31021556  0.49679439  1  0.032153  0.055876  0.006141  3.897306  0.006
C  C51  1  0.31019542  0.81926269  0.99679039  1  0.032201  0.055892  -0.006138  3.897315  -0.006
C  C52  1  0.88062983  0.20327204  0.57595351  1  -0.102246  -0.206188  0.00579  3.923852  0.005
C  C53  1  0.20325952  0.88063359  0.07594228  1  -0.102194  -0.206123  -0.005794  3.923791  -0.005
C  C54  1  0.17401332  0.16873362  0.76357854  1  -0.16773  -0.131983  0.000783  3.920744  0.001
C  C55  1  0.16872990  0.17400944  0.26359200  1  -0.167657  -0.131991  -0.000783  3.920738  -0.001
C  C56  1  0.81944498  0.77326340  0.75682749  1  0.218827  0.455716  0.000751  4.181479  0.004
C  C57  1  0.77325459  0.81943515  0.25682278  1  0.218695  0.455807  -0.000749  4.181726  -0.004
N  N58  1  0.63289591  0.03910885  0.88489367  1  -0.376086  -0.269254  -0.001612  3.682534  -0.003
N  N59  1  0.03911397  0.63289577  0.38489162  1  -0.376157  -0.269405  0.001609  3.682856  0.003
N  N60  1  0.84421551  0.43873975  0.57734500  1  -0.37641  -0.269826  0.001721  3.683124  0.004
N  N61  1  0.43871822  0.84419635  0.07734921  1  -0.376455  -0.270007  -0.001722  3.683143  -0.004
O  O62  1  0.54665663  0.72827283  0.78370846  1  -0.262692  -0.438035  0.056222  2.280128  0.083
O  O63  1  0.72826877  0.54665679  0.28371584  1  -0.262617  -0.437876  -0.056242  2.279486  -0.083
O  O64  1  0.82977208  0.84927190  0.87823141  1  -0.268267  -0.433653  0.003698  2.389469  0.006
O  O65  1  0.84927233  0.82978966  0.37822714  1  -0.268129  -0.433513  -0.003694  2.389261  -0.006
O  O66  1  0.93082358  0.74994705  0.67746971  1  -0.262836  -0.437294  -0.056274  2.28125  -0.083
O  O67  1  0.74993693  0.93080935  0.17747766  1  -0.262869  -0.437454  0.056277  2.281229  0.083
O  O68  1  0.64789178  0.62921103  0.58280857  1  -0.267956  -0.433747  -0.003708  2.388424  -0.006
O  O69  1  0.62920125  0.64788385  0.08282315  1  -0.267869  -0.433583  0.003708  2.388109  0.006
