# generated using pymatgen
data_FeH14C14(NO3)2
_symmetry_space_group_name_H-M   'P 1'
_cell_length_a   8.82025027
_cell_length_b   9.68933883
_cell_length_c   10.67254205
_cell_angle_alpha   63.06262094
_cell_angle_beta   78.54444303
_cell_angle_gamma   63.96802350
_symmetry_Int_Tables_number   1
_chemical_formula_structural   FeH14C14(NO3)2
_chemical_formula_sum   'Fe2 H28 C28 N4 O12'
_cell_volume   730.64632900
_cell_formula_units_Z   2
loop_
 _symmetry_equiv_pos_site_id
 _symmetry_equiv_pos_as_xyz
  1  'x, y, z'
loop_
 _atom_site_type_symbol
 _atom_site_label
 _atom_site_symmetry_multiplicity
 _atom_site_fract_x
 _atom_site_fract_y
 _atom_site_fract_z
 _atom_site_occupancy
 _atom_site_pbe_cm5_charge
 _atom_site_pbe_ddec_charge
 _atom_site_pbe_ddec_spin_density
 _atom_site_pbe_ddec_sum_bond_order
 _atom_site_pbe_magmom
Fe  Fe0  1  0.75019247  0.70549860  0.58926403  1  0.627478  0.62864  0.000999  3.045003  0.0
Fe  Fe1  1  0.24980525  0.29450086  0.41073711  1  0.627378  0.628526  0.001006  3.044882  0.0
H  H2  1  0.07608388  0.59352842  0.51488042  1  0.299201  0.38257  -6.6e-05  0.955463  0.0
H  H3  1  0.42399602  0.89176828  0.51460295  1  0.299759  0.383407  -6.3e-05  0.954286  0.0
H  H4  1  0.92391916  0.40646995  0.48512302  1  0.299223  0.382516  -6.6e-05  0.955527  0.0
H  H5  1  0.57600152  0.10822879  0.48539806  1  0.299795  0.38349  -6.3e-05  0.954191  0.0
H  H6  1  0.02922153  0.69494593  0.61496891  1  0.293404  0.368093  0.000666  0.981268  0.001
H  H7  1  0.47103861  0.69052188  0.61485892  1  0.293475  0.367184  0.000663  0.982068  0.001
H  H8  1  0.97077869  0.30505553  0.38503272  1  0.293378  0.367999  0.000667  0.981403  0.001
H  H9  1  0.52896359  0.30947160  0.38514564  1  0.293518  0.367294  0.000663  0.981927  0.001
H  H10  1  0.61568429  0.68566986  0.36652615  1  0.114605  0.081467  -1.1e-05  1.050807  0.0
H  H11  1  0.88452013  0.94808079  0.36649177  1  0.114753  0.082085  -1.1e-05  1.050553  0.0
H  H12  1  0.38431839  0.31432841  0.63347235  1  0.114629  0.08146  -1.1e-05  1.050822  0.0
H  H13  1  0.11547527  0.05192375  0.63350431  1  0.114765  0.082089  -1.1e-05  1.05058  0.0
H  H14  1  0.60756249  0.81256109  0.10794666  1  0.102449  0.103741  -0.0  1.038908  0.0
H  H15  1  0.89230891  0.07935529  0.10790565  1  0.102857  0.103339  -0.0  1.040457  0.0
H  H16  1  0.39244301  0.18743315  0.89205459  1  0.102458  0.103719  -0.0  1.038906  0.0
H  H17  1  0.10768814  0.92064635  0.89209205  1  0.102851  0.103333  -0.0  1.040454  0.0
H  H18  1  0.74983362  0.01480251  0.97006227  1  0.10205  0.094711  -9e-06  1.012955  0.0
H  H19  1  0.25016790  0.98519315  0.02993885  1  0.10206  0.094749  -9e-06  1.012897  0.0
H  H20  1  0.98346355  0.40669038  0.80785049  1  0.115003  0.092852  -4.5e-05  1.037979  0.0
H  H21  1  0.51695475  0.78519625  0.80801437  1  0.115598  0.094177  -4.5e-05  1.037533  0.0
H  H22  1  0.01653154  0.59330614  0.19215740  1  0.114988  0.092837  -4.6e-05  1.037972  0.0
H  H23  1  0.48305361  0.21480382  0.19198855  1  0.115623  0.094211  -4.5e-05  1.037431  0.0
H  H24  1  0.99646067  0.27205083  0.07085578  1  0.103214  0.10601  -1e-06  1.022717  0.0
H  H25  1  0.50373917  0.65633990  0.07101875  1  0.103039  0.105658  -1e-06  1.023353  0.0
H  H26  1  0.00353790  0.72794791  0.92914985  1  0.103189  0.105927  -1e-06  1.022765  0.0
H  H27  1  0.49626172  0.34366312  0.92898257  1  0.103045  0.105657  -1e-06  1.023324  0.0
H  H28  1  0.75003674  0.39636844  0.20634052  1  0.111261  0.122418  6.9e-05  0.997376  0.0
H  H29  1  0.24996000  0.60363455  0.79365962  1  0.111254  0.122403  6.9e-05  0.997369  0.0
C  C30  1  0.66497828  0.41761256  0.63317758  1  0.223  0.614909  -0.001813  4.254725  -0.002
C  C31  1  0.83539334  0.94951310  0.63332546  1  0.22096  0.612998  -0.001798  4.256078  -0.002
C  C32  1  0.33502028  0.58239646  0.36681774  1  0.22319  0.615128  -0.001814  4.254432  -0.002
C  C33  1  0.16460500  0.05049304  0.36666143  1  0.22098  0.613048  -0.0018  4.255897  -0.002
C  C34  1  0.72609238  0.24806614  0.64283304  1  -0.029582  -0.139779  -0.000246  3.973751  0.0
C  C35  1  0.77433663  0.10941850  0.64288728  1  -0.030693  -0.142339  -0.000258  3.97512  0.0
C  C36  1  0.27389952  0.75194648  0.35715499  1  -0.029473  -0.139713  -0.000247  3.973858  0.0
C  C37  1  0.22566189  0.89058254  0.35710723  1  -0.030755  -0.142352  -0.000258  3.97533  0.0
C  C38  1  0.67419291  0.77478035  0.30650386  1  0.041649  0.085544  -1.3e-05  3.906335  0.0
C  C39  1  0.82591794  0.91881555  0.30653670  1  0.042531  0.085151  -1.2e-05  3.904468  0.0
C  C40  1  0.32581344  0.22521691  0.69349813  1  0.04162  0.085507  -1.3e-05  3.906305  0.0
C  C41  1  0.17407647  0.08118876  0.69346213  1  0.042509  0.085101  -1.2e-05  3.904644  0.0
C  C42  1  0.67058133  0.84656108  0.16049025  1  -0.087202  -0.128964  -3e-05  3.985007  0.0
C  C43  1  0.82935653  0.99286757  0.16048948  1  -0.087552  -0.12673  -3e-05  3.983597  0.0
C  C44  1  0.32942086  0.15343708  0.83950962  1  -0.087167  -0.128805  -3e-05  3.985019  0.0
C  C45  1  0.17064101  0.00713232  0.83950872  1  -0.087543  -0.12669  -3e-05  3.983605  0.0
C  C46  1  0.74991922  0.95753456  0.08477839  1  -0.077545  -0.051036  1.1e-05  3.991703  0.0
C  C47  1  0.25008395  0.04246195  0.91522062  1  -0.077539  -0.051154  1.1e-05  3.991626  0.0
C  C48  1  0.88085452  0.45774690  0.87079139  1  0.037508  0.071231  1.7e-05  3.906604  0.0
C  C49  1  0.61948205  0.67117275  0.87088212  1  0.036731  0.068897  1.7e-05  3.909607  0.0
C  C50  1  0.11914355  0.54225641  0.12921094  1  0.03751  0.071276  1.6e-05  3.906546  0.0
C  C51  1  0.38051915  0.32882706  0.12911864  1  0.036674  0.068818  1.7e-05  3.909633  0.0
C  C52  1  0.88588636  0.38345602  0.01668065  1  -0.090337  -0.136276  -5.9e-05  4.021056  0.0
C  C53  1  0.61433520  0.59927772  0.01673735  1  -0.089876  -0.135166  -5.9e-05  4.022797  0.0
C  C54  1  0.11411137  0.61653876  0.98332518  1  -0.090358  -0.136262  -5.9e-05  4.021196  0.0
C  C55  1  0.38566569  0.40072249  0.98326678  1  -0.089849  -0.135121  -5.9e-05  4.022824  0.0
C  C56  1  0.75011038  0.45361553  0.09212722  1  -0.07134  -0.034497  7.1e-05  3.948711  0.0
C  C57  1  0.24989100  0.54638573  0.90787460  1  -0.071322  -0.034492  7e-05  3.948739  0.0
N  N58  1  0.75010304  0.80971192  0.38078297  1  -0.345659  -0.196992  -7.5e-05  3.587289  0.0
N  N59  1  0.24989983  0.19028312  0.61922128  1  -0.345719  -0.197014  -7.5e-05  3.587266  0.0
N  N60  1  0.75021984  0.60117833  0.79755945  1  -0.344371  -0.172588  -0.000184  3.58016  0.0
N  N61  1  0.24977886  0.39882323  0.20243706  1  -0.344303  -0.172534  -0.000184  3.580116  0.0
O  O62  1  0.51198486  0.49012714  0.65874254  1  -0.286899  -0.507932  -0.000656  2.151954  -0.001
O  O63  1  0.98846184  0.85164849  0.65870696  1  -0.286191  -0.507663  -0.000641  2.153442  -0.001
O  O64  1  0.48801898  0.50987373  0.34125334  1  -0.287052  -0.508135  -0.000656  2.151715  -0.001
O  O65  1  0.01153043  0.14835767  0.34129257  1  -0.286209  -0.507666  -0.000642  2.153241  -0.001
O  O66  1  0.77851997  0.47998608  0.59552342  1  -0.283877  -0.493135  0.003915  2.385092  0.005
O  O67  1  0.72175889  0.92460064  0.59591866  1  -0.281896  -0.490692  0.0039  2.385219  0.005
O  O68  1  0.22147466  0.52002861  0.40447635  1  -0.283917  -0.493222  0.003917  2.385133  0.005
O  O69  1  0.27824443  0.07538372  0.40408621  1  -0.28188  -0.490717  0.003902  2.385171  0.005
O  O70  1  0.01079654  0.60922618  0.59845287  1  -0.553483  -0.695543  -0.002101  2.256602  -0.002
O  O71  1  0.48934280  0.79281560  0.59823631  1  -0.554002  -0.695677  -0.0021  2.255985  -0.002
O  O72  1  0.98919126  0.39077755  0.40155166  1  -0.553491  -0.695428  -0.002102  2.256776  -0.002
O  O73  1  0.51066967  0.20717840  0.40176511  1  -0.55408  -0.695858  -0.002101  2.255847  -0.002
