# generated using pymatgen
data_CuPH18C22BrN
_symmetry_space_group_name_H-M   'P 1'
_cell_length_a   8.19329916
_cell_length_b   9.46164842
_cell_length_c   13.78804783
_cell_angle_alpha   87.09705846
_cell_angle_beta   73.11192314
_cell_angle_gamma   65.26133580
_symmetry_Int_Tables_number   1
_chemical_formula_structural   CuPH18C22BrN
_chemical_formula_sum   'Cu2 P2 H36 C44 Br2 N2'
_cell_volume   925.81871087
_cell_formula_units_Z   2
loop_
 _symmetry_equiv_pos_site_id
 _symmetry_equiv_pos_as_xyz
  1  'x, y, z'
loop_
 _atom_site_type_symbol
 _atom_site_label
 _atom_site_symmetry_multiplicity
 _atom_site_fract_x
 _atom_site_fract_y
 _atom_site_fract_z
 _atom_site_occupancy
 _atom_site_hle17_bader_spin_density
 _atom_site_hle17_ddec_charge
 _atom_site_hle17_ddec_spin_density
 _atom_site_hle17_ddec_sum_bond_order
 _atom_site_hle17_magmom
 _atom_site_hse06_10hf_bader_spin_density
 _atom_site_hse06_10hf_ddec_charge
 _atom_site_hse06_10hf_ddec_spin_density
 _atom_site_hse06_10hf_ddec_sum_bond_order
 _atom_site_hse06_10hf_magmom
 _atom_site_hse06_bader_spin_density
 _atom_site_hse06_ddec_charge
 _atom_site_hse06_ddec_spin_density
 _atom_site_hse06_ddec_sum_bond_order
 _atom_site_hse06_magmom
 _atom_site_pbe_bader_spin_density
 _atom_site_pbe_cm5_charge
 _atom_site_pbe_ddec_charge
 _atom_site_pbe_ddec_spin_density
 _atom_site_pbe_ddec_sum_bond_order
 _atom_site_pbe_magmom
Cu  Cu0  1  0.84327959  0.15219267  0.07861863  1  0  0.239185  0  2.190702  0  0  0.152074  0  2.677003  0  0  0.149137  0  2.637167  0  0  0.379074  0.156643  0  2.701307  0
Cu  Cu1  1  0.15672332  0.84781121  0.92137793  1  0  0.239183  0  2.19064  0  0  0.152068  0  2.676964  0  0  0.149163  0  2.637137  0  0  0.379071  0.15664  0  2.701249  0
P  P2  1  0.86002980  0.16708905  0.23327085  1  0  0.288633  0  3.804956  0  0  0.220323  0  4.275963  0  0  0.239781  0  4.261124  0  0  -0.044539  0.206681  0  4.286274  0
P  P3  1  0.13997158  0.83290783  0.76672624  1  0  0.288619  0  3.804903  0  0  0.220291  0  4.276076  0  0  0.239739  0  4.261252  0  0  -0.044553  0.206654  0  4.286368  0
H  H4  1  0.48932163  0.15045533  0.09200228  1  0  0.080936  0  0.945159  0  0  0.088057  0  1.011162  0  0  0.091492  0  1.00734  0  0  0.106892  0.08561  0  1.013631  0
H  H5  1  0.51068138  0.84955091  0.90799853  1  0  0.080889  0  0.945217  0  0  0.087996  0  1.011233  0  0  0.09143  0  1.007412  0  0  0.106862  0.085549  0  1.013699  0
H  H6  1  0.17436472  0.32907889  0.07709916  1  0  0.106922  0  0.974973  0  0  0.115726  0  1.035768  0  0  0.118226  0  1.03663  0  0  0.098067  0.114165  0  1.034673  0
H  H7  1  0.82563506  0.67092617  0.92290080  1  0  0.106942  0  0.975026  0  0  0.115718  0  1.035857  0  0  0.118219  0  1.036717  0  0  0.098069  0.114156  0  1.034762  0
H  H8  1  0.87657534  0.40445568  0.98567757  1  0  0.111305  0  0.96825  0  0  0.120215  0  1.033609  0  0  0.124579  0  1.029285  0  0  0.09767  0.116456  0  1.037848  0
H  H9  1  0.12342197  0.59555172  0.01432273  1  0  0.111353  0  0.968118  0  0  0.120236  0  1.0335  0  0  0.124601  0  1.029184  0  0  0.097665  0.116481  0  1.037745  0
H  H10  1  0.63241535  0.99824891  0.26205906  1  0  0.090972  0  0.971046  0  0  0.100089  0  1.037384  0  0  0.10319  0  1.03596  0  0  0.092244  0.097556  0  1.039173  0
H  H11  1  0.36758049  0.00175379  0.73793514  1  0  0.090951  0  0.971151  0  0  0.100077  0  1.037471  0  0  0.103182  0  1.036033  0  0  0.092235  0.097545  0  1.039261  0
H  H12  1  0.34909180  0.01029518  0.39700477  1  0  0.083802  0  0.965  0  0  0.095254  0  1.025484  0  0  0.096986  0  1.026402  0  0  0.096718  0.093714  0  1.025366  0
H  H13  1  0.65090345  0.98970870  0.60299022  1  0  0.083821  0  0.964976  0  0  0.095246  0  1.025493  0  0  0.096978  0  1.02641  0  0  0.096682  0.093706  0  1.025376  0
H  H14  1  0.19422949  0.21659401  0.54207216  1  0  0.079753  0  0.984721  0  0  0.089293  0  1.051799  0  0  0.091431  0  1.051714  0  0  0.095656  0.087848  0  1.05184  0
H  H15  1  0.80577011  0.78340638  0.45792655  1  0  0.079735  0  0.984739  0  0  0.089274  0  1.051817  0  0  0.091409  0  1.051735  0  0  0.095637  0.087827  0  1.051858  0
H  H16  1  0.32842830  0.40268246  0.55355035  1  0  0.079996  0  0.988189  0  0  0.089171  0  1.053976  0  0  0.091019  0  1.054655  0  0  0.093312  0.087878  0  1.05361  0
H  H17  1  0.67158116  0.59730860  0.44644990  1  0  0.079979  0  0.988154  0  0  0.089184  0  1.053911  0  0  0.091033  0  1.05459  0  0  0.093322  0.087895  0  1.053542  0
H  H18  1  0.62054515  0.38475089  0.42131415  1  0  0.081862  0  0.980491  0  0  0.09302  0  1.045061  0  0  0.095221  0  1.044984  0  0  0.094079  0.09127  0  1.045479  0
H  H19  1  0.37946303  0.61524016  0.57868560  1  0  0.081901  0  0.980426  0  0  0.093061  0  1.044975  0  0  0.095244  0  1.044917  0  0  0.09411  0.091311  0  1.045396  0
H  H20  1  0.70208923  0.48256906  0.18566620  1  0  0.080232  0  0.974887  0  0  0.090559  0  1.042965  0  0  0.093214  0  1.041437  0  0  0.094838  0.088257  0  1.044648  0
H  H21  1  0.29791036  0.51743133  0.81433252  1  0  0.080249  0  0.974841  0  0  0.090581  0  1.042914  0  0  0.093236  0  1.041386  0  0  0.094867  0.08828  0  1.044595  0
H  H22  1  0.76636648  0.71347491  0.20314030  1  0  0.086727  0  0.992011  0  0  0.096665  0  1.056102  0  0  0.099274  0  1.055764  0  0  0.08639  0.094309  0  1.057231  0
H  H23  1  0.23363372  0.28652432  0.79686053  1  0  0.086707  0  0.992027  0  0  0.096629  0  1.056122  0  0  0.099233  0  1.055795  0  0  0.086377  0.094276  0  1.057248  0
H  H24  1  0.01285511  0.69163981  0.28042870  1  0  0.085955  0  0.975703  0  0  0.095928  0  1.038238  0  0  0.097563  0  1.039532  0  0  0.095907  0.093647  0  1.039785  0
H  H25  1  0.98714560  0.30835592  0.71957290  1  0  0.085984  0  0.975626  0  0  0.095981  0  1.038147  0  0  0.097618  0  1.03944  0  0  0.09591  0.093694  0  1.039698  0
H  H26  1  0.18553339  0.44130247  0.34895631  1  0  0.085606  0  0.969457  0  0  0.095941  0  1.030429  0  0  0.097937  0  1.031379  0  0  0.095744  0.09502  0  1.028678  0
H  H27  1  0.81446544  0.55869442  0.65104412  1  0  0.085595  0  0.969416  0  0  0.095949  0  1.03037  0  0  0.097944  0  1.03132  0  0  0.095736  0.09502  0  1.028627  0
H  H28  1  0.11817548  0.21323058  0.33406077  1  0  0.08256  0  0.997619  0  0  0.09124  0  1.064826  0  0  0.093003  0  1.066121  0  0  0.092469  0.0894  0  1.065408  0
H  H29  1  0.88182207  0.78676631  0.66593916  1  0  0.082593  0  0.997581  0  0  0.091257  0  1.064791  0  0  0.093021  0  1.066085  0  0  0.092478  0.089417  0  1.065371  0
H  H30  1  0.87653606  0.01151120  0.42650072  1  0  0.087097  0  0.977288  0  0  0.097675  0  1.041935  0  0  0.099497  0  1.042745  0  0  0.098307  0.096571  0  1.041202  0
H  H31  1  0.12346158  0.98848802  0.57349838  1  0  0.087131  0  0.977295  0  0  0.097708  0  1.041937  0  0  0.099533  0  1.042748  0  0  0.098313  0.096605  0  1.041205  0
H  H32  1  0.12787828  0.78023782  0.46928905  1  0  0.085631  0  0.956621  0  0  0.097272  0  1.017446  0  0  0.099802  0  1.01689  0  0  0.098452  0.095498  0  1.017795  0
H  H33  1  0.87211835  0.21976842  0.53071214  1  0  0.085597  0  0.956604  0  0  0.097248  0  1.01743  0  0  0.099775  0  1.016884  0  0  0.098434  0.095474  0  1.017781  0
H  H34  1  0.43465101  0.63810369  0.33746687  1  0  0.080274  0  0.977169  0  0  0.090265  0  1.042548  0  0  0.092314  0  1.04254  0  0  0.095402  0.088911  0  1.042253  0
H  H35  1  0.56534681  0.36190023  0.66253783  1  0  0.080346  0  0.977144  0  0  0.090333  0  1.042518  0  0  0.09239  0  1.042485  0  0  0.095461  0.08898  0  1.042222  0
H  H36  1  0.48921360  0.72899002  0.16256348  1  0  0.084822  0  0.970953  0  0  0.095638  0  1.034225  0  0  0.097282  0  1.035398  0  0  0.095922  0.094542  0  1.03323  0
H  H37  1  0.51078719  0.27100805  0.83743874  1  0  0.084809  0  0.97092  0  0  0.095622  0  1.034202  0  0  0.097267  0  1.035375  0  0  0.095907  0.094525  0  1.033208  0
H  H38  1  0.23552081  0.95658837  0.11928282  1  0  0.088319  0  0.994393  0  0  0.093464  0  1.069172  0  0  0.09723  0  1.066288  0  0  0.087483  0.090766  0  1.071016  0
H  H39  1  0.76448185  0.04340853  0.88071767  1  0  0.088339  0  0.994391  0  0  0.093481  0  1.069168  0  0  0.097244  0  1.066288  0  0  0.087482  0.090782  0  1.071013  0
C  C40  1  0.58832520  0.44563320  0.00591214  1  0  0.147507  0  3.755005  0  0  0.149119  0  3.989416  0  0  0.150408  0  4.012456  0  0  0.105983  0.147823  0  3.974206  0
C  C41  1  0.41167525  0.55437303  0.99408693  1  0  0.147253  0  3.755084  0  0  0.149039  0  3.989367  0  0  0.150326  0  4.012411  0  0  0.106008  0.147742  0  3.974159  0
C  C42  1  0.46465640  0.26609930  0.06531455  1  0  0.137708  0  3.661646  0  0  0.106214  0  3.913766  0  0  0.116055  0  3.924711  0  0  0.04955  0.10015  0  3.905134  0
C  C43  1  0.53534218  0.73390809  0.93468408  1  0  0.137733  0  3.661873  0  0  0.106272  0  3.913947  0  0  0.116112  0  3.924895  0  0  0.049634  0.100208  0  3.905313  0
C  C44  1  0.28722166  0.36729310  0.05609186  1  0  -0.095011  0  3.741367  0  0  -0.107227  0  3.990314  0  0  -0.112979  0  4.010069  0  0  -0.083787  -0.103338  0  3.97532  0
C  C45  1  0.71277692  0.63271430  0.94390823  1  0  -0.095036  0  3.741516  0  0  -0.107241  0  3.990464  0  0  -0.112994  0  4.010219  0  0  -0.08382  -0.103352  0  3.975464  0
C  C46  1  0.74050072  0.48810424  0.97919834  1  0  -0.085948  0  3.689399  0  0  -0.112206  0  3.940365  0  0  -0.108211  0  3.953515  0  0  -0.071882  -0.114134  0  3.931626  0
C  C47  1  0.25950602  0.51189965  0.02079973  1  0  -0.085956  0  3.689243  0  0  -0.112222  0  3.940166  0  0  -0.108235  0  3.953327  0  0  -0.071902  -0.114159  0  3.93144  0
C  C48  1  0.64528656  0.19060603  0.33312828  1  0  -0.087239  0  3.758515  0  0  -0.043919  0  3.993074  0  0  -0.049912  0  4.018335  0  0  -0.026994  -0.040179  0  3.976107  0
C  C49  1  0.35471728  0.80938851  0.66686919  1  0  -0.087374  0  3.758406  0  0  -0.044136  0  3.993106  0  0  -0.05013  0  4.018364  0  0  -0.026979  -0.040397  0  3.976139  0
C  C50  1  0.56631576  0.08634962  0.32643151  1  0  -0.07676  0  3.723776  0  0  -0.095397  0  3.962732  0  0  -0.096955  0  3.983941  0  0  -0.085682  -0.094488  0  3.949116  0
C  C51  1  0.43367882  0.91365310  0.67356872  1  0  -0.076741  0  3.723746  0  0  -0.095349  0  3.96269  0  0  -0.096903  0  3.983898  0  0  -0.085721  -0.094442  0  3.949075  0
C  C52  1  0.40604082  0.09447089  0.40185120  1  0  -0.063126  0  3.761581  0  0  -0.070771  0  4.002468  0  0  -0.072676  0  4.023727  0  0  -0.088858  -0.069039  0  3.987718  0
C  C53  1  0.59395631  0.90553184  0.59814786  1  0  -0.063131  0  3.761489  0  0  -0.070754  0  4.00236  0  0  -0.072659  0  4.02362  0  0  -0.088826  -0.069022  0  3.987611  0
C  C54  1  0.32002506  0.20903169  0.48316642  1  0  -0.063424  0  3.759576  0  0  -0.077886  0  4.003494  0  0  -0.078856  0  4.023859  0  0  -0.089328  -0.077089  0  3.989078  0
C  C55  1  0.67997955  0.79096637  0.51683224  1  0  -0.063343  0  3.759529  0  0  -0.077797  0  4.003436  0  0  -0.078766  0  4.023801  0  0  -0.089256  -0.076999  0  3.98902  0
C  C56  1  0.39601723  0.31426115  0.48955076  1  0  -0.077966  0  3.781853  0  0  -0.086701  0  4.026109  0  0  -0.089014  0  4.047812  0  0  -0.094131  -0.084797  0  4.011163  0
C  C57  1  0.60398738  0.68573692  0.51045006  1  0  -0.078045  0  3.781825  0  0  -0.086807  0  4.026085  0  0  -0.08912  0  4.047784  0  0  -0.094169  -0.084906  0  4.011139  0
C  C58  1  0.55893239  0.30456080  0.41529883  1  0  -0.093019  0  3.767796  0  0  -0.113487  0  4.008901  0  0  -0.115271  0  4.031834  0  0  -0.094759  -0.112035  0  3.99331  0
C  C59  1  0.44107085  0.69543491  0.58469943  1  0  -0.092873  0  3.767574  0  0  -0.113305  0  4.008683  0  0  -0.115079  0  4.031624  0  0  -0.094728  -0.111856  0  3.993096  0
C  C60  1  0.90445324  0.33268549  0.25942381  1  0  -0.097007  0  3.780316  0  0  -0.054269  0  4.015224  0  0  -0.060403  0  4.040263  0  0  -0.029949  -0.050025  0  3.998671  0
C  C61  1  0.09554686  0.66731140  0.74057567  1  0  -0.09706  0  3.780427  0  0  -0.05435  0  4.015378  0  0  -0.060482  0  4.040417  0  0  -0.030053  -0.050108  0  3.998829  0
C  C62  1  0.80522280  0.47515030  0.22339952  1  0  -0.094445  0  3.768156  0  0  -0.113241  0  4.014016  0  0  -0.114554  0  4.035095  0  0  -0.092051  -0.112303  0  4.000263  0
C  C63  1  0.19477415  0.52484776  0.77659974  1  0  -0.094428  0  3.768191  0  0  -0.113212  0  4.014033  0  0  -0.114524  0  4.035108  0  0  -0.092022  -0.112275  0  4.000281  0
C  C64  1  0.84115373  0.60434259  0.23306748  1  0  -0.069206  0  3.761121  0  0  -0.080437  0  4.003466  0  0  -0.083214  0  4.025255  0  0  -0.093184  -0.078739  0  3.989962  0
C  C65  1  0.15884391  0.39565664  0.76693379  1  0  -0.069152  0  3.761085  0  0  -0.080355  0  4.003422  0  0  -0.083133  0  4.025217  0  0  -0.093155  -0.078659  0  3.989915  0
C  C66  1  0.97989887  0.59208249  0.27692601  1  0  -0.059024  0  3.748597  0  0  -0.070277  0  3.989722  0  0  -0.071147  0  4.010476  0  0  -0.088269  -0.069834  0  3.977133  0
C  C67  1  0.02010251  0.40791441  0.72307470  1  0  -0.059073  0  3.748637  0  0  -0.070347  0  3.98974  0  0  -0.071218  0  4.010496  0  0  -0.088298  -0.069896  0  3.977141  0
C  C68  1  0.07746712  0.45189245  0.31427977  1  0  -0.070374  0  3.762469  0  0  -0.078912  0  4.003415  0  0  -0.081408  0  4.024924  0  0  -0.091563  -0.077345  0  3.988331  0
C  C69  1  0.92253103  0.54810327  0.68572083  1  0  -0.070333  0  3.762459  0  0  -0.078884  0  4.003387  0  0  -0.08138  0  4.024897  0  0  -0.091528  -0.07731  0  3.9883  0
C  C70  1  0.03915298  0.32287717  0.30617629  1  0  -0.089171  0  3.759589  0  0  -0.108381  0  3.998936  0  0  -0.110128  0  4.022187  0  0  -0.093137  -0.107677  0  3.984879  0
C  C71  1  0.96084645  0.67711856  0.69382408  1  0  -0.08925  0  3.759563  0  0  -0.108434  0  3.998914  0  0  -0.110183  0  4.022167  0  0  -0.09314  -0.107732  0  3.984854  0
C  C72  1  0.04035131  0.99979588  0.27035163  1  0  -0.082559  0  3.737323  0  0  -0.037983  0  3.9671  0  0  -0.044556  0  3.992537  0  0  -0.02422  -0.034445  0  3.952807  0
C  C73  1  0.95964820  0.00020218  0.72964864  1  0  -0.082524  0  3.737262  0  0  -0.037945  0  3.967028  0  0  -0.044517  0  3.992464  0  0  -0.024202  -0.03441  0  3.952733  0
C  C74  1  0.01103956  0.94951950  0.36882186  1  0  -0.089813  0  3.758897  0  0  -0.110639  0  4.001713  0  0  -0.11147  0  4.023806  0  0  -0.08962  -0.110376  0  3.988304  0
C  C75  1  0.98895561  0.05048206  0.63117831  1  0  -0.089935  0  3.758785  0  0  -0.110756  0  4.001589  0  0  -0.111594  0  4.023689  0  0  -0.089675  -0.110492  0  3.988175  0
C  C76  1  0.15241219  0.81960826  0.39281505  1  0  -0.083594  0  3.78602  0  0  -0.093731  0  4.034334  0  0  -0.096304  0  4.054393  0  0  -0.093854  -0.091275  0  4.019453  0
C  C77  1  0.84758367  0.18039447  0.60718568  1  0  -0.083435  0  3.785837  0  0  -0.093571  0  4.034134  0  0  -0.096147  0  4.054196  0  0  -0.093805  -0.091116  0  4.019251  0
C  C78  1  0.32460514  0.73962269  0.31884628  1  0  -0.065312  0  3.764333  0  0  -0.077743  0  4.007282  0  0  -0.078186  0  4.027801  0  0  -0.08927  -0.076716  0  3.991429  0
C  C79  1  0.67539013  0.26038123  0.68115886  1  0  -0.065545  0  3.764474  0  0  -0.077979  0  4.007459  0  0  -0.078419  0  4.027983  0  0  -0.089365  -0.07695  0  3.991605  0
C  C80  1  0.35508753  0.79001857  0.22084589  1  0  -0.069264  0  3.750888  0  0  -0.079596  0  3.9936  0  0  -0.082678  0  4.016308  0  0  -0.092225  -0.07713  0  3.977375  0
C  C81  1  0.64491327  0.20997950  0.77915633  1  0  -0.06913  0  3.750977  0  0  -0.079456  0  3.993667  0  0  -0.08254  0  4.016379  0  0  -0.09219  -0.076989  0  3.977442  0
C  C82  1  0.21359789  0.91874325  0.19628331  1  0  -0.06651  0  3.720048  0  0  -0.086067  0  3.959176  0  0  -0.086602  0  3.979894  0  0  -0.084759  -0.08576  0  3.946315  0
C  C83  1  0.78640162  0.08125481  0.80371696  1  0  -0.066553  0  3.720101  0  0  -0.086107  0  3.959219  0  0  -0.086643  0  3.97994  0  0  -0.084732  -0.085799  0  3.946356  0
Br  Br84  1  0.84446512  0.88964431  0.04882114  1  0  -0.505671  0  1.273074  0  0  -0.441031  0  1.630251  0  0  -0.456871  0  1.600819  0  0  -0.258002  -0.429112  0  1.648957  0
Br  Br85  1  0.15553900  0.11035726  0.95118182  1  0  -0.505616  0  1.273031  0  0  -0.440999  0  1.630252  0  0  -0.456838  0  1.60082  0  0  -0.257994  -0.42908  0  1.648956  0
N  N86  1  0.61203389  0.30203256  0.04214671  1  0  -0.291364  0  3.313734  0  0  -0.223339  0  3.598796  0  0  -0.233284  0  3.607171  0  0  -0.350117  -0.216914  0  3.592721  0
N  N87  1  0.38796469  0.69797484  0.95785337  1  0  -0.291173  0  3.313889  0  0  -0.223207  0  3.5989  0  0  -0.233157  0  3.60729  0  0  -0.350121  -0.216781  0  3.592812  0
