# generated using pymatgen
data_ZnH12C16(NO2)2
_symmetry_space_group_name_H-M   'P 1'
_cell_length_a   11.04841167
_cell_length_b   12.38639802
_cell_length_c   21.30998707
_cell_angle_alpha   92.10123552
_cell_angle_beta   105.27444787
_cell_angle_gamma   116.44214855
_symmetry_Int_Tables_number   1
_chemical_formula_structural   ZnH12C16(NO2)2
_chemical_formula_sum   'Zn4 H48 C64 N8 O16'
_cell_volume   2478.59883652
_cell_formula_units_Z   4
loop_
 _symmetry_equiv_pos_site_id
 _symmetry_equiv_pos_as_xyz
  1  'x, y, z'
loop_
 _atom_site_type_symbol
 _atom_site_label
 _atom_site_symmetry_multiplicity
 _atom_site_fract_x
 _atom_site_fract_y
 _atom_site_fract_z
 _atom_site_occupancy
 _atom_site_hle17_bader_spin_density
 _atom_site_hle17_ddec_charge
 _atom_site_hle17_ddec_spin_density
 _atom_site_hle17_ddec_sum_bond_order
 _atom_site_hle17_magmom
 _atom_site_hse06_10hf_bader_spin_density
 _atom_site_hse06_10hf_ddec_charge
 _atom_site_hse06_10hf_ddec_spin_density
 _atom_site_hse06_10hf_ddec_sum_bond_order
 _atom_site_hse06_10hf_magmom
 _atom_site_hse06_bader_spin_density
 _atom_site_hse06_ddec_charge
 _atom_site_hse06_ddec_spin_density
 _atom_site_hse06_ddec_sum_bond_order
 _atom_site_hse06_magmom
 _atom_site_pbe_bader_charge
 _atom_site_pbe_bader_spin_density
 _atom_site_pbe_cm5_charge
 _atom_site_pbe_ddec_charge
 _atom_site_pbe_ddec_spin_density
 _atom_site_pbe_ddec_sum_bond_order
 _atom_site_pbe_magmom
Zn  Zn0  1  0.35606675  0.86724668  0.72657950  1  0  1.062093  0  1.872762  0  0  0.892889  0  2.349864  0  0  0.94436  0  2.283642  0  1.300903  0  0.675416  0.857165  0  2.395638  0
Zn  Zn1  1  0.26281319  0.63282245  0.77362437  1  0  1.060613  0  1.874407  0  0  0.891627  0  2.351907  0  0  0.94311  0  2.285758  0  1.300327  0  0.674682  0.855913  0  2.397619  0
Zn  Zn2  1  0.64393852  0.13275237  0.27342126  1  0  1.062069  0  1.872873  0  0  0.892879  0  2.349984  0  0  0.944391  0  2.283699  0  1.300915  0  0.675364  0.857158  0  2.395771  0
Zn  Zn3  1  0.73718904  0.36717660  0.22637523  1  0  1.060687  0  1.874224  0  0  0.891697  0  2.351706  0  0  0.943178  0  2.285552  0  1.300283  0  0.674742  0.855983  0  2.397417  0
H  H4  1  0.12911843  0.72782425  0.52114872  1  0  0.094758  0  0.954939  0  0  0.103383  0  1.016859  0  0  0.107407  0  1.013822  0  0.095637  0  0.098828  0.100424  0  1.019176  0
H  H5  1  0.38033866  0.77219814  0.97873382  1  0  0.095087  0  0.954591  0  0  0.103753  0  1.01644  0  0  0.107847  0  1.013331  0  0.040843  0  0.09873  0.100733  0  1.018816  0
H  H6  1  0.87088294  0.27217937  0.47885074  1  0  0.094718  0  0.955008  0  0  0.103344  0  1.016933  0  0  0.107369  0  1.013896  0  0.095699  0  0.098796  0.100383  0  1.019248  0
H  H7  1  0.61966351  0.22779907  0.02126654  1  0  0.095122  0  0.954566  0  0  0.103758  0  1.016427  0  0  0.107849  0  1.013315  0  0.040901  0  0.098713  0.100739  0  1.018825  0
H  H8  1  0.03233813  0.39004942  0.59337506  1  0  0.106447  0  0.942862  0  0  0.110095  0  1.010706  0  0  0.114123  0  1.008071  0  0.099948  0  0.102622  0.107194  0  1.012648  0
H  H9  1  0.54905586  0.11024883  0.90692257  1  0  0.106246  0  0.942627  0  0  0.111189  0  1.008887  0  0  0.115447  0  1.005884  0  0.104642  0  0.10287  0.10716  0  1.012218  0
H  H10  1  0.96766405  0.60995420  0.40662429  1  0  0.106463  0  0.942883  0  0  0.110112  0  1.010715  0  0  0.114138  0  1.008081  0  0.099822  0  0.102648  0.107213  0  1.012653  0
H  H11  1  0.45094168  0.88974930  0.09307649  1  0  0.106235  0  0.942607  0  0  0.110075  0  1.01021  0  0  0.114097  0  1.007565  0  0.104649  0  0.102873  0.107149  0  1.012198  0
H  H12  1  0.99765505  0.92683001  0.72151046  1  0  0.103702  0  0.942621  0  0  0.111789  0  1.002898  0  0  0.115896  0  1.000387  0  0.087077  0  0.1021  0.108825  0  1.004925  0
H  H13  1  0.84983663  0.57285700  0.77844004  1  0  0.103547  0  0.942926  0  0  0.111735  0  1.003164  0  0  0.115843  0  1.000594  0  0.087982  0  0.101875  0.108782  0  1.005176  0
H  H14  1  0.00235393  0.07317361  0.27849381  1  0  0.103652  0  0.942627  0  0  0.111802  0  1.002859  0  0  0.115923  0  1.000282  0  0.086814  0  0.102102  0.108834  0  1.004885  0
H  H15  1  0.15016565  0.42714571  0.22156075  1  0  0.103544  0  0.942955  0  0  0.111748  0  1.00319  0  0  0.115858  0  1.000619  0  0.087916  0  0.101889  0.108794  0  1.005197  0
H  H16  1  0.76878731  0.92551323  0.71969897  1  0  0.092861  0  0.968757  0  0  0.101461  0  1.033919  0  0  0.103392  0  1.033612  0  0.078825  0  0.096894  0.098681  0  1.03568  0
H  H17  1  0.62431207  0.57443585  0.78035673  1  0  0.093602  0  0.967526  0  0  0.102126  0  1.032592  0  0  0.106006  0  1.030275  0  0.084962  0  0.09743  0.099349  0  1.034352  0
H  H18  1  0.23122007  0.07449223  0.28030099  1  0  0.092909  0  0.968768  0  0  0.101542  0  1.033835  0  0  0.105428  0  1.031503  0  0.078844  0  0.096971  0.098744  0  1.035664  0
H  H19  1  0.37568757  0.42556594  0.21963996  1  0  0.093559  0  0.967519  0  0  0.102124  0  1.03249  0  0  0.106007  0  1.030157  0  0.084921  0  0.097416  0.099329  0  1.034319  0
H  H20  1  0.32861797  0.07466450  0.80149498  1  0  0.122867  0  0.945632  0  0  0.132019  0  1.004849  0  0  0.135397  0  1.00269  0  0.130007  0  0.110267  0.129585  0  1.006502  0
H  H21  1  0.95153079  0.42482737  0.69796533  1  0  0.123565  0  0.943574  0  0  0.132289  0  1.00332  0  0  0.135684  0  1.001149  0  0.129134  0  0.1104  0.12985  0  1.004976  0
H  H22  1  0.67138020  0.92533088  0.19850783  1  0  0.1229  0  0.945732  0  0  0.132026  0  1.004938  0  0  0.135404  0  1.002777  0  0.130153  0  0.110298  0.129588  0  1.006613  0
H  H23  1  0.04846444  0.57516801  0.30203360  1  0  0.123534  0  0.943571  0  0  0.132232  0  1.00335  0  0  0.135628  0  1.00118  0  0.129072  0  0.110363  0.129795  0  1.005005  0
H  H24  1  0.31569156  0.26861113  0.82360077  1  0  0.073083  0  0.98542  0  0  0.08184  0  1.050467  0  0  0.08453  0  1.049987  0  0.04174  0  0.088034  0.079945  0  1.050842  0
H  H25  1  0.72243690  0.23100902  0.67579364  1  0  0.071467  0  0.986953  0  0  0.07935  0  1.053124  0  0  0.081714  0  1.052999  0  0.058663  0  0.088019  0.0777  0  1.053308  0
H  H26  1  0.68430891  0.73138608  0.17640256  1  0  0.073116  0  0.985437  0  0  0.081913  0  1.05044  0  0  0.084604  0  1.049958  0  0.041855  0  0.088039  0.079521  0  1.051334  0
H  H27  1  0.27755771  0.76898819  0.32420570  1  0  0.071452  0  0.986961  0  0  0.07934  0  1.053126  0  0  0.081705  0  1.052989  0  0.058683  0  0.088025  0.07769  0  1.05331  0
H  H28  1  0.36793493  0.42192256  0.74954204  1  0  0.102033  0  0.956518  0  0  0.110075  0  1.020868  0  0  0.112677  0  1.020018  0  0.090942  0  0.102274  0.108186  0  1.021591  0
H  H29  1  0.69610167  0.07809437  0.75015120  1  0  0.101088  0  0.957192  0  0  0.108991  0  1.021799  0  0  0.111627  0  1.02084  0  0.097382  0  0.101713  0.107153  0  1.022442  0
H  H30  1  0.63206037  0.57807373  0.25046029  1  0  0.102114  0  0.95644  0  0  0.110099  0  1.020844  0  0  0.112735  0  1.019957  0  0.090937  0  0.102276  0.108212  0  1.021573  0
H  H31  1  0.30389392  0.92190376  0.24984871  1  0  0.101153  0  0.957142  0  0  0.109029  0  1.021788  0  0  0.111623  0  1.020953  0  0.097438  0  0.101748  0.107193  0  1.022422  0
H  H32  1  0.43424054  0.38757621  0.65083996  1  0  0.111721  0  0.935411  0  0  0.124141  0  0.987542  0  0  0.127254  0  0.986573  0  0.059553  0  0.1094  0.121917  0  0.988316  0
H  H33  1  0.89642214  0.11286774  0.84927732  1  0  0.111825  0  0.935539  0  0  0.124463  0  0.987398  0  0  0.1276  0  0.986395  0  0.061567  0  0.109553  0.122211  0  0.988223  0
H  H34  1  0.56575045  0.61242008  0.34916086  1  0  0.111627  0  0.93539  0  0  0.124067  0  0.987517  0  0  0.127179  0  0.986548  0  0.059216  0  0.10937  0.121844  0  0.988294  0
H  H35  1  0.10357178  0.88712948  0.15072322  1  0  0.111829  0  0.935579  0  0  0.124464  0  0.987435  0  0  0.127607  0  0.986407  0  0.061596  0  0.109559  0.122212  0  0.988257  0
H  H36  1  0.55156044  0.02892527  0.57137269  1  0  0.118315  0  0.938741  0  0  0.137807  0  0.998619  0  0  0.139711  0  0.998054  0  0.049056  0  0.098182  0.136495  0  0.998957  0
H  H37  1  0.45305651  0.47164422  0.92931134  1  0  0.118616  0  0.939371  0  0  0.137835  0  0.999487  0  0  0.139742  0  0.998922  0  0.037183  0  0.098184  0.136521  0  0.999824  0
H  H38  1  0.44843806  0.97107928  0.42862629  1  0  0.118333  0  0.938713  0  0  0.137806  0  0.998609  0  0  0.13971  0  0.99804  0  0.049289  0  0.098191  0.136494  0  0.998946  0
H  H39  1  0.54693907  0.52835391  0.07068857  1  0  0.118639  0  0.939334  0  0  0.137847  0  0.999461  0  0  0.139755  0  0.998895  0  0.037234  0  0.098197  0.136535  0  0.999799  0
H  H40  1  0.37006061  0.91372357  0.55109680  1  0  0.134619  0  0.928476  0  0  0.154951  0  0.986428  0  0  0.157444  0  0.985002  0  0.057081  0  0.104564  0.153253  0  0.987382  0
H  H41  1  0.40643310  0.58655357  0.94915330  1  0  0.134939  0  0.927382  0  0  0.154821  0  0.985806  0  0  0.157326  0  0.984354  0  0.070911  0  0.104237  0.153115  0  0.986779  0
H  H42  1  0.62993913  0.08628006  0.44890291  1  0  0.134621  0  0.928463  0  0  0.154954  0  0.986408  0  0  0.157444  0  0.984987  0  0.057083  0  0.104564  0.153256  0  0.987362  0
H  H43  1  0.59356380  0.41344548  0.05084657  1  0  0.134954  0  0.92736  0  0  0.154825  0  0.985794  0  0  0.157328  0  0.984343  0  0.070784  0  0.104244  0.153121  0  0.986767  0
H  H44  1  0.49909880  0.91280356  0.62097473  1  0  0.164375  0  0.932588  0  0  0.184323  0  0.987094  0  0  0.187389  0  0.985304  0  0.121473  0  0.114362  0.182124  0  0.988382  0
H  H45  1  0.46614143  0.58756154  0.87957656  1  0  0.163447  0  0.931649  0  0  0.183473  0  0.98607  0  0  0.186531  0  0.984275  0  0.118158  0  0.114028  0.181291  0  0.98736  0
H  H46  1  0.50090191  0.08719823  0.37902397  1  0  0.164333  0  0.93261  0  0  0.184276  0  0.987128  0  0  0.187351  0  0.985317  0  0.121681  0  0.114323  0.182078  0  0.988414  0
H  H47  1  0.53385415  0.41243658  0.12042335  1  0  0.163402  0  0.931662  0  0  0.183458  0  0.986055  0  0  0.186517  0  0.984255  0  0.118176  0  0.114011  0.181277  0  0.987346  0
H  H48  1  0.47411407  0.20000641  0.58344955  1  0  0.31135  0  0.85232  0  0  0.310643  0  0.885148  0  0  0.315897  0  0.882984  0  0.470938  0  0.348995  0.306925  0  0.88678  0
H  H49  1  0.19178641  0.30037431  0.91699563  1  0  0.313216  0  0.851523  0  0  0.311771  0  0.885296  0  0  0.317037  0  0.883125  0  0.472576  0  0.348824  0.308046  0  0.88693  0
H  H50  1  0.52588021  0.79999355  0.41655197  1  0  0.311341  0  0.852246  0  0  0.310635  0  0.885079  0  0  0.315887  0  0.882917  0  0.470929  0  0.349  0.306916  0  0.88671  0
H  H51  1  0.80820758  0.69962473  0.08300414  1  0  0.313137  0  0.851582  0  0  0.311719  0  0.88533  0  0  0.316984  0  0.88316  0  0.472534  0  0.348845  0.307993  0  0.886966  0
C  C52  1  0.18211160  0.63413648  0.63083839  1  0  0.662939  0  3.894566  0  0  0.611935  0  4.183951  0  0  0.647734  0  4.175724  0  1.543621  0  0.212598  0.587878  0  4.188889  0
C  C53  1  0.41769944  0.86604169  0.86936262  1  0  0.662698  0  3.896828  0  0  0.611558  0  4.186397  0  0  0.647368  0  4.178176  0  1.55973  0  0.213211  0.587505  0  4.191327  0
C  C54  1  0.81789156  0.36587447  0.36916049  1  0  0.663011  0  3.894523  0  0  0.612004  0  4.183913  0  0  0.647803  0  4.17568  0  1.543348  0  0.2126  0.587947  0  4.18885  0
C  C55  1  0.58230956  0.13396377  0.13063709  1  0  0.66279  0  3.896532  0  0  0.611621  0  4.186156  0  0  0.647435  0  4.177925  0  1.559783  0  0.213276  0.587551  0  4.191096  0
C  C56  1  0.08955831  0.56484725  0.56290787  1  0  -0.055254  0  3.765208  0  0  -0.032716  0  3.99513  0  0  -0.039809  0  4.018076  0  -0.002675  0  -0.017628  -0.028144  0  3.979651  0
C  C57  1  0.46202635  0.93526403  0.93717741  1  0  -0.053588  0  3.762461  0  0  -0.031297  0  3.992902  0  0  -0.038383  0  4.015932  0  -0.06325  0  -0.018066  -0.026679  0  3.977103  0
C  C58  1  0.91044357  0.43515730  0.43709168  1  0  -0.055213  0  3.765369  0  0  -0.032678  0  3.995289  0  0  -0.039773  0  4.01824  0  -0.002429  0  -0.017612  -0.028106  0  3.979811  0
C  C59  1  0.53797583  0.06473318  0.06282295  1  0  -0.053776  0  3.762634  0  0  -0.03139  0  3.992693  0  0  -0.038458  0  4.01563  0  -0.063334  0  -0.018117  -0.026832  0  3.977258  0
C  C60  1  0.07234666  0.62801073  0.51088195  1  0  -0.080462  0  3.769694  0  0  -0.103819  0  4.017899  0  0  -0.104996  0  4.038388  0  -0.028387  0  -0.09121  -0.102947  0  4.004077  0
C  C61  1  0.43365612  0.87200708  0.98906940  1  0  -0.082148  0  3.768113  0  0  -0.105428  0  4.01622  0  0  -0.106683  0  4.036713  0  -0.029508  0  -0.091513  -0.104484  0  4.002446  0
C  C62  1  0.92765502  0.37199198  0.48911730  1  0  -0.080393  0  3.769845  0  0  -0.103744  0  4.018043  0  0  -0.104922  0  4.038535  0  -0.028659  0  -0.091161  -0.102869  0  4.004217  0
C  C63  1  0.56634378  0.12799105  0.01093201  1  0  -0.082055  0  3.768142  0  0  -0.105378  0  4.01664  0  0  -0.106651  0  4.037246  0  -0.029642  0  -0.091456  -0.104372  0  4.002453  0
C  C64  1  0.01685914  0.43657946  0.55192997  1  0  -0.081913  0  3.761011  0  0  -0.101719  0  4.009135  0  0  -0.102899  0  4.029571  0  -0.105591  0  -0.08897  -0.1009  0  3.995339  0
C  C65  1  0.52845386  0.06354285  0.94822169  1  0  -0.082024  0  3.759761  0  0  -0.102832  0  4.007682  0  0  -0.104173  0  4.028135  0  0.006673  0  -0.088977  -0.101119  0  3.994047  0
C  C66  1  0.98314319  0.56342233  0.44806847  1  0  -0.081929  0  3.761137  0  0  -0.101726  0  4.009247  0  0  -0.102905  0  4.029685  0  -0.105584  0  -0.088987  -0.100908  0  3.995451  0
C  C67  1  0.47154865  0.93645436  0.05177807  1  0  -0.081899  0  3.759809  0  0  -0.101852  0  4.007878  0  0  -0.103033  0  4.028309  0  0.006663  0  -0.088988  -0.10101  0  3.994097  0
C  C68  1  0.07250597  0.74982289  0.74993402  1  0  0.658601  0  3.8903  0  0  0.609643  0  4.17937  0  0  0.644353  0  4.171569  0  1.572087  0  0.210551  0.585374  0  4.184067  0
C  C69  1  0.92750434  0.25018807  0.25006920  1  0  0.658713  0  3.890005  0  0  0.609792  0  4.179009  0  0  0.644498  0  4.171222  0  1.572069  0  0.210672  0.585539  0  4.183673  0
C  C70  1  0.93665493  0.74985221  0.74995991  1  0  -0.049446  0  3.744982  0  0  -0.028971  0  3.977419  0  0  -0.033018  0  3.996435  0  0.016096  0  -0.017572  -0.024398  0  3.962114  0
C  C71  1  0.06335139  0.25015233  0.25004222  1  0  -0.049496  0  3.745023  0  0  -0.028961  0  3.977372  0  0  -0.033007  0  3.996312  0  0.01622  0  -0.017608  -0.024409  0  3.962086  0
C  C72  1  0.91436141  0.84964832  0.73368071  1  0  -0.07894  0  3.750028  0  0  -0.100708  0  3.997568  0  0  -0.102588  0  4.016542  0  -0.017921  0  -0.088278  -0.099905  0  3.983999  0
C  C73  1  0.83128335  0.65005793  0.76625307  1  0  -0.080464  0  3.751475  0  0  -0.102573  0  3.999311  0  0  -0.104546  0  4.018942  0  -0.050515  0  -0.089608  -0.101781  0  3.985767  0
C  C74  1  0.08564751  0.15035714  0.26632172  1  0  -0.078947  0  3.750005  0  0  -0.100742  0  3.997336  0  0  -0.102705  0  4.016915  0  -0.017707  0  -0.088306  -0.099987  0  3.983977  0
C  C75  1  0.16872187  0.34994569  0.23374744  1  0  -0.080518  0  3.751438  0  0  -0.102619  0  3.999064  0  0  -0.10457  0  4.018601  0  -0.050447  0  -0.089649  -0.101877  0  3.985731  0
C  C76  1  0.78776074  0.84903345  0.73297537  1  0  -0.087445  0  3.762824  0  0  -0.109131  0  4.01334  0  0  -0.109301  0  4.03466  0  -0.109648  0  -0.093181  -0.107812  0  3.999195  0
C  C77  1  0.70617907  0.65087348  0.76708110  1  0  -0.086172  0  3.75968  0  0  -0.107564  0  4.010106  0  0  -0.109425  0  4.031444  0  -0.070239  0  -0.092704  -0.106249  0  3.995967  0
C  C78  1  0.21224432  0.15096926  0.26702446  1  0  -0.087395  0  3.762776  0  0  -0.108293  0  4.013944  0  0  -0.110049  0  4.035224  0  -0.109526  0  -0.093195  -0.107775  0  3.999155  0
C  C79  1  0.29382395  0.34912832  0.23291616  1  0  -0.086109  0  3.759471  0  0  -0.106703  0  4.010533  0  0  -0.108453  0  4.031804  0  -0.069985  0  -0.092696  -0.106191  0  3.995754  0
C  C80  1  0.54735260  0.75015552  0.75018662  1  0  0.666151  0  3.874428  0  0  0.619294  0  4.162289  0  0  0.654962  0  4.153583  0  1.575417  0  0.212984  0.594885  0  4.16772  0
C  C81  1  0.45264995  0.24984994  0.24980757  1  0  0.666191  0  3.874046  0  0  0.620053  0  4.161993  0  0  0.65578  0  4.15324  0  1.575885  0  0.213016  0.594924  0  4.167365  0
C  C82  1  0.68303115  0.74999149  0.75006765  1  0  -0.050835  0  3.743807  0  0  -0.037337  0  3.98592  0  0  -0.044095  0  4.008306  0  -0.003191  0  -0.021864  -0.032648  0  3.970354  0
C  C83  1  0.31697428  0.25001213  0.24993120  1  0  -0.050806  0  3.743693  0  0  -0.039915  0  3.989512  0  0  -0.047028  0  4.012805  0  -0.003529  0  -0.02183  -0.032608  0  3.970237  0
C  C84  1  0.41758213  0.21104192  0.67162139  1  0  0.152878  0  3.825139  0  0  0.145319  0  4.075771  0  0  0.149063  0  4.098796  0  0.268525  0  0.091838  0.142739  0  4.060239  0
C  C85  1  0.03539816  0.28909780  0.82840447  1  0  0.152113  0  3.824981  0  0  0.143272  0  4.076889  0  0  0.147038  0  4.099923  0  0.270803  0  0.091143  0.140688  0  4.061339  0
C  C86  1  0.58241486  0.78895621  0.32837993  1  0  0.152987  0  3.825038  0  0  0.145414  0  4.075716  0  0  0.149153  0  4.09875  0  0.268248  0  0.091938  0.142835  0  4.060198  0
C  C87  1  0.96459626  0.71090032  0.17159616  1  0  0.151998  0  3.825002  0  0  0.143168  0  4.076941  0  0  0.146935  0  4.099955  0  0.270819  0  0.091068  0.140585  0  4.061398  0
C  C88  1  0.38981193  0.12380337  0.71403447  1  0  0.156415  0  3.800188  0  0  0.154157  0  4.041388  0  0  0.156688  0  4.065947  0  0.426031  0  0.091974  0.152438  0  4.024831  0
C  C89  1  0.05202913  0.37607886  0.78581346  1  0  0.155478  0  3.800405  0  0  0.154677  0  4.040778  0  0  0.157199  0  4.065355  0  0.409211  0  0.091927  0.15296  0  4.024189  0
C  C90  1  0.61018443  0.87619384  0.28596569  1  0  0.156408  0  3.799981  0  0  0.154112  0  4.04123  0  0  0.156638  0  4.06579  0  0.426126  0  0.091984  0.152394  0  4.024686  0
C  C91  1  0.94797035  0.62391835  0.21418515  1  0  0.155578  0  3.800462  0  0  0.154744  0  4.040841  0  0  0.157266  0  4.06541  0  0.409139  0  0.091996  0.153027  0  4.024258  0
C  C92  1  0.35267749  0.14309238  0.76967086  1  0  -0.12726  0  3.730339  0  0  -0.147299  0  3.978791  0  0  -0.149083  0  3.998353  0  -0.058658  0  -0.085988  -0.146014  0  3.965561  0
C  C93  1  0.93938430  0.35659559  0.72995442  1  0  -0.128186  0  3.728532  0  0  -0.148054  0  3.976494  0  0  -0.149838  0  3.995959  0  -0.046949  0  -0.086616  -0.146775  0  3.963333  0
C  C94  1  0.64732394  0.85690300  0.23033145  1  0  -0.12719  0  3.730251  0  0  -0.147169  0  3.978715  0  0  -0.148951  0  3.998275  0  -0.058814  0  -0.085978  -0.145857  0  3.965311  0
C  C95  1  0.06061500  0.64340254  0.27004546  1  0  -0.128299  0  3.728544  0  0  -0.148151  0  3.976535  0  0  -0.149925  0  3.995982  0  -0.046996  0  -0.086666  -0.146868  0  3.963374  0
C  C96  1  0.34578658  0.25134816  0.78103923  1  0  -0.089225  0  3.81335  0  0  -0.105251  0  4.069465  0  0  -0.109504  0  4.09434  0  -0.029829  0  -0.104939  -0.102347  0  4.052502  0
C  C97  1  0.81274653  0.24836821  0.71852980  1  0  -0.088196  0  3.812134  0  0  -0.103548  0  4.068321  0  0  -0.107533  0  4.093229  0  -0.036114  0  -0.105615  -0.100884  0  4.051415  0
C  C98  1  0.65420837  0.74864539  0.21896212  1  0  -0.089365  0  3.813276  0  0  -0.105438  0  4.069407  0  0  -0.109692  0  4.094292  0  -0.029883  0  -0.104996  -0.10213  0  4.052544  0
C  C99  1  0.18725136  0.75162991  0.28146867  1  0  -0.088065  0  3.812026  0  0  -0.103408  0  4.068192  0  0  -0.107384  0  4.093059  0  -0.036323  0  -0.105559  -0.100748  0  4.051287  0
C  C100  1  0.37479029  0.33844193  0.73889058  1  0  -0.064644  0  3.780394  0  0  -0.081909  0  4.037452  0  0  -0.083735  0  4.061069  0  0.013576  0  -0.096498  -0.080591  0  4.02135  0
C  C101  1  0.79720951  0.16155943  0.76086555  1  0  -0.062643  0  3.776612  0  0  -0.079602  0  4.033204  0  0  -0.081331  0  4.05652  0  -0.04133  0  -0.095365  -0.078321  0  4.017202  0
C  C102  1  0.62520646  0.66155528  0.26111278  1  0  -0.064852  0  3.780309  0  0  -0.082064  0  4.037395  0  0  -0.083919  0  4.061004  0  0.013471  0  -0.096575  -0.080716  0  4.021127  0
C  C103  1  0.20278422  0.83843962  0.23913209  1  0  -0.062779  0  3.776644  0  0  -0.079737  0  4.03326  0  0  -0.081544  0  4.05675  0  -0.040997  0  -0.095423  -0.078454  0  4.017249  0
C  C104  1  0.41156521  0.31990066  0.68320367  1  0  -0.164777  0  3.78233  0  0  -0.18292  0  4.031883  0  0  -0.186802  0  4.052705  0  0.0005  0  -0.09747  -0.18018  0  4.017725  0
C  C105  1  0.90878901  0.18034353  0.81677830  1  0  -0.165219  0  3.781013  0  0  -0.183278  0  4.030997  0  0  -0.187194  0  4.051772  0  0.039313  0  -0.097209  -0.180518  0  4.016898  0
C  C106  1  0.58842885  0.68009656  0.31679793  1  0  -0.164572  0  3.782299  0  0  -0.182728  0  4.031864  0  0  -0.186608  0  4.052699  0  0.000815  0  -0.097408  -0.17999  0  4.017725  0
C  C107  1  0.09120288  0.81965277  0.18321968  1  0  -0.165108  0  3.781127  0  0  -0.183159  0  4.031084  0  0  -0.187067  0  4.051843  0  0.039184  0  -0.097149  -0.180395  0  4.016983  0
C  C108  1  0.44057244  0.05125103  0.63491960  1  0  0.468373  0  3.692094  0  0  0.4442  0  3.970206  0  0  0.46306  0  3.982169  0  1.023093  0  0.242151  0.43176  0  3.961491  0
C  C109  1  0.25521240  0.44882454  0.86528703  1  0  0.466146  0  3.693624  0  0  0.442913  0  3.970827  0  0  0.461701  0  3.982932  0  1.026838  0  0.241968  0.430505  0  3.962029  0
C  C110  1  0.55942214  0.94874526  0.36508013  1  0  0.468287  0  3.692071  0  0  0.444115  0  3.970159  0  0  0.462969  0  3.982119  0  1.023113  0  0.242091  0.431642  0  3.961488  0
C  C111  1  0.74478124  0.55117175  0.13471176  1  0  0.465973  0  3.69378  0  0  0.442747  0  3.970951  0  0  0.461536  0  3.983055  0  1.026851  0  0.241891  0.430359  0  3.962103  0
C  C112  1  0.46736380  0.97265905  0.59208392  1  0  -0.405589  0  3.703517  0  0  -0.4841  0  3.938046  0  0  -0.488753  0  3.942509  0  -0.049727  0  -0.225339  -0.480731  0  3.934666  0
C  C113  1  0.40378081  0.52761533  0.90834638  1  0  -0.405067  0  3.701253  0  0  -0.483017  0  3.935607  0  0  -0.48764  0  3.939997  0  -0.042753  0  -0.225054  -0.479678  0  3.932288  0
C  C114  1  0.53263589  0.02734274  0.40791656  1  0  -0.405527  0  3.703325  0  0  -0.484019  0  3.937847  0  0  -0.488664  0  3.942289  0  -0.050162  0  -0.225282  -0.48064  0  3.934475  0
C  C115  1  0.59621480  0.47238371  0.09165315  1  0  -0.405025  0  3.701312  0  0  -0.482978  0  3.935639  0  0  -0.487601  0  3.940034  0  -0.042599  0  -0.22503  -0.47964  0  3.932313  0
N  N116  1  0.44847678  0.16142839  0.62227908  1  0  -0.401688  0  3.362741  0  0  -0.353969  0  3.595353  0  0  -0.370391  0  3.6046  0  -1.253989  0  -0.380096  -0.342868  0  3.588802  0
N  N117  1  0.16571755  0.33878831  0.87796703  1  0  -0.402216  0  3.361645  0  0  -0.35375  0  3.594767  0  0  -0.370216  0  3.604074  0  -1.266253  0  -0.379028  -0.342612  0  3.58817  0
N  N118  1  0.55151896  0.83857066  0.37772151  1  0  -0.401728  0  3.362778  0  0  -0.354003  0  3.5954  0  0  -0.370423  0  3.604653  0  -1.253737  0  -0.38015  -0.342892  0  3.588858  0
N  N119  1  0.83427484  0.66120890  0.12203103  1  0  -0.401997  0  3.361544  0  0  -0.353592  0  3.594688  0  0  -0.370059  0  3.603994  0  -1.266445  0  -0.378984  -0.342433  0  3.588021  0
N  N120  1  0.40588451  0.02655652  0.68981417  1  0  -0.457984  0  3.12658  0  0  -0.389246  0  3.404038  0  0  -0.411135  0  3.413139  0  -1.213831  0  -0.339637  -0.3743  0  3.397527  0
N  N121  1  0.18984962  0.47330005  0.81016570  1  0  -0.455546  0  3.126656  0  0  -0.388189  0  3.404494  0  0  -0.410052  0  3.413603  0  -1.212959  0  -0.338921  -0.373235  0  3.397964  0
N  N122  1  0.59411724  0.97344436  0.31018691  1  0  -0.457978  0  3.126564  0  0  -0.389209  0  3.404  0  0  -0.411075  0  3.413062  0  -1.213802  0  -0.339628  -0.374253  0  3.397501  0
N  N123  1  0.81014533  0.52669716  0.18983306  1  0  -0.455558  0  3.126627  0  0  -0.388146  0  3.404432  0  0  -0.410013  0  3.413543  0  -1.212783  0  -0.338941  -0.373194  0  3.397904  0
O  O124  1  0.23201894  0.74998416  0.63914652  1  0  -0.634894  0  2.091293  0  0  -0.569269  0  2.350871  0  0  -0.59849  0  2.338007  0  -1.146997  0  -0.317729  -0.54965  0  2.359422  0
O  O125  1  0.34389825  0.75011062  0.86101994  1  0  -0.635141  0  2.090979  0  0  -0.569716  0  2.35091  0  0  -0.598987  0  2.338067  0  -1.158325  0  -0.317651  -0.550059  0  2.359451  0
O  O126  1  0.76798277  0.25001946  0.36085235  1  0  -0.634966  0  2.091139  0  0  -0.569332  0  2.350708  0  0  -0.598557  0  2.337831  0  -1.146869  0  -0.31775  -0.549711  0  2.359255  0
O  O127  1  0.65610698  0.24988476  0.13897962  1  0  -0.63503  0  2.091134  0  0  -0.569607  0  2.351123  0  0  -0.598872  0  2.338279  0  -1.158299  0  -0.317628  -0.549952  0  2.359653  0
O  O128  1  0.20179181  0.57169324  0.67485991  1  0  -0.633649  0  2.07788  0  0  -0.568907  0  2.337681  0  0  -0.59718  0  2.323176  0  -1.171716  0  -0.318717  -0.549838  0  2.347226  0
O  O129  1  0.45569882  0.92857656  0.82548443  1  0  -0.633367  0  2.078696  0  0  -0.568338  0  2.33815  0  0  -0.596605  0  2.323691  0  -1.178232  0  -0.318918  -0.549199  0  2.347481  0
O  O130  1  0.79820888  0.42831038  0.32514074  1  0  -0.633692  0  2.078049  0  0  -0.568955  0  2.337855  0  0  -0.59722  0  2.32334  0  -1.171541  0  -0.31872  -0.549887  0  2.347396  0
O  O131  1  0.54431294  0.07141882  0.17451792  1  0  -0.633525  0  2.078388  0  0  -0.568369  0  2.337618  0  0  -0.596612  0  2.323108  0  -1.178137  0  -0.318953  -0.549323  0  2.347176  0
O  O132  1  0.17183923  0.84964649  0.74417781  1  0  -0.638367  0  2.070996  0  0  -0.575222  0  2.327992  0  0  -0.604134  0  2.315668  0  -1.178569  0  -0.316683  -0.55482  0  2.336106  0
O  O133  1  0.07792486  0.64995255  0.75566058  1  0  -0.638102  0  2.071408  0  0  -0.574988  0  2.328405  0  0  -0.603895  0  2.31611  0  -1.166913  0  -0.316854  -0.554598  0  2.33651  0
O  O134  1  0.82816627  0.15035164  0.25582545  1  0  -0.638465  0  2.070507  0  0  -0.57537  0  2.327527  0  0  -0.60428  0  2.315198  0  -1.178558  0  -0.316796  -0.554971  0  2.33563  0
O  O135  1  0.92208315  0.35005016  0.24434313  1  0  -0.638073  0  2.071522  0  0  -0.574961  0  2.328488  0  0  -0.60386  0  2.316196  0  -1.167028  0  -0.316839  -0.55458  0  2.336584  0
O  O136  1  0.52041276  0.82976552  0.72219849  1  0  -0.647633  0  2.071094  0  0  -0.584707  0  2.331125  0  0  -0.612931  0  2.316899  0  -1.180897  0  -0.318855  -0.564657  0  2.340004  0
O  O137  1  0.46947968  0.67075994  0.77830298  1  0  -0.649275  0  2.068691  0  0  -0.586455  0  2.328565  0  0  -0.614817  0  2.314697  0  -1.184017  0  -0.320103  -0.566422  0  2.337478  0
O  O138  1  0.47959012  0.17023352  0.27779612  1  0  -0.647653  0  2.070752  0  0  -0.58468  0  2.330465  0  0  -0.613053  0  2.316587  0  -1.181218  0  -0.318869  -0.564706  0  2.339697  0
O  O139  1  0.53051972  0.32924460  0.22169316  1  0  -0.649311  0  2.068514  0  0  -0.586437  0  2.328072  0  0  -0.614779  0  2.31414  0  -1.184165  0  -0.320143  -0.566476  0  2.33733  0
