# generated using pymatgen
data_YbH13(C9O4)2
_symmetry_space_group_name_H-M   'P 1'
_cell_length_a   8.25246292
_cell_length_b   12.24740751
_cell_length_c   12.37806719
_cell_angle_alpha   111.01150447
_cell_angle_beta   101.19747418
_cell_angle_gamma   107.97864370
_symmetry_Int_Tables_number   1
_chemical_formula_structural   YbH13(C9O4)2
_chemical_formula_sum   'Yb2 H26 C36 O16'
_cell_volume   1043.32695021
_cell_formula_units_Z   2
loop_
 _symmetry_equiv_pos_site_id
 _symmetry_equiv_pos_as_xyz
  1  'x, y, z'
loop_
 _atom_site_type_symbol
 _atom_site_label
 _atom_site_symmetry_multiplicity
 _atom_site_fract_x
 _atom_site_fract_y
 _atom_site_fract_z
 _atom_site_occupancy
 _atom_site_hle17_bader_spin_density
 _atom_site_hle17_ddec_charge
 _atom_site_hle17_ddec_spin_density
 _atom_site_hle17_ddec_sum_bond_order
 _atom_site_hle17_magmom
 _atom_site_hse06_10hf_bader_spin_density
 _atom_site_hse06_10hf_ddec_charge
 _atom_site_hse06_10hf_ddec_spin_density
 _atom_site_hse06_10hf_ddec_sum_bond_order
 _atom_site_hse06_10hf_magmom
 _atom_site_hse06_bader_spin_density
 _atom_site_hse06_ddec_charge
 _atom_site_hse06_ddec_spin_density
 _atom_site_hse06_ddec_sum_bond_order
 _atom_site_hse06_magmom
 _atom_site_pbe_bader_spin_density
 _atom_site_pbe_cm5_charge
 _atom_site_pbe_ddec_charge
 _atom_site_pbe_ddec_spin_density
 _atom_site_pbe_ddec_sum_bond_order
 _atom_site_pbe_magmom
Yb  Yb0  1  0.71189016  0.54351013  0.40593204  1  0  2.158862  0  1.804799  0  0  2.094313  0  2.132732  0  0  2.235326  0  1.918855  0  0  1.604119  2.059254  0  2.161635  0
Yb  Yb1  1  0.28811164  0.45649465  0.59407678  1  0  2.159002  0  1.804645  0  0  2.094331  0  2.132763  0  0  2.235341  0  1.918887  0  0  1.604157  2.059282  0  2.161672  0
H  H2  1  0.02861868  0.94272314  0.39234684  1  0  0.107125  0  0.939774  0  0  0.11787  0  0.997292  0  0  0.121459  0  0.995296  0  0  0.107907  0.115331  0  0.998633  0
H  H3  1  0.97139398  0.05723948  0.60761186  1  0  0.107158  0  0.939931  0  0  0.117842  0  0.997515  0  0  0.121429  0  0.995525  0  0  0.107958  0.115308  0  0.998858  0
H  H4  1  0.30283528  0.11641972  0.41008066  1  0  0.103473  0  0.961719  0  0  0.112812  0  1.024237  0  0  0.115403  0  1.023672  0  0  0.105666  0.111105  0  1.024452  0
H  H5  1  0.69717136  0.88355078  0.58988180  1  0  0.103454  0  0.961707  0  0  0.11287  0  1.024127  0  0  0.115466  0  1.023543  0  0  0.105705  0.111163  0  1.024343  0
H  H6  1  0.63385306  0.20901227  0.45213622  1  0  0.107336  0  0.951754  0  0  0.118663  0  1.012647  0  0  0.122655  0  1.009108  0  0  0.109878  0.116022  0  1.01458  0
H  H7  1  0.36617469  0.79097906  0.54785936  1  0  0.107195  0  0.951736  0  0  0.118531  0  1.012649  0  0  0.122537  0  1.009081  0  0  0.109888  0.115891  0  1.014568  0
H  H8  1  0.36205178  0.39576495  0.98363826  1  0  0.108528  0  0.936179  0  0  0.119397  0  0.992896  0  0  0.123043  0  0.990588  0  0  0.108798  0.11686  0  0.99437  0
H  H9  1  0.63791765  0.60421915  0.01636818  1  0  0.108493  0  0.936084  0  0  0.119358  0  0.992811  0  0  0.123004  0  0.990499  0  0  0.108751  0.116821  0  0.994284  0
H  H10  1  0.10207095  0.35741516  0.81427405  1  0  0.10705  0  0.95675  0  0  0.11496  0  1.021496  0  0  0.118074  0  1.02024  0  0  0.105911  0.11269  0  1.022643  0
H  H11  1  0.89789952  0.64257978  0.18573885  1  0  0.106935  0  0.956849  0  0  0.114906  0  1.02156  0  0  0.118024  0  1.020296  0  0  0.105839  0.112629  0  1.022698  0
H  H12  1  0.81789103  0.38513486  0.74668041  1  0  0.099762  0  0.95868  0  0  0.108636  0  1.025807  0  0  0.111718  0  1.023956  0  0  0.103197  0.10656  0  1.02674  0
H  H13  1  0.18210513  0.61486311  0.25332849  1  0  0.099745  0  0.958873  0  0  0.108592  0  1.026009  0  0  0.111675  0  1.024157  0  0  0.103165  0.106512  0  1.026932  0
H  H14  1  0.01674277  0.81204918  0.70499476  1  0  0.111805  0  0.962145  0  0  0.11993  0  1.023676  0  0  0.123725  0  1.021205  0  0  0.106702  0.117232  0  1.025381  0
H  H15  1  0.98325018  0.18797637  0.29501226  1  0  0.111882  0  0.962198  0  0  0.119935  0  1.02381  0  0  0.123724  0  1.02135  0  0  0.106715  0.11724  0  1.025505  0
H  H16  1  0.26673308  0.99315948  0.89279620  1  0  0.095859  0  0.93623  0  0  0.108614  0  0.989636  0  0  0.111877  0  0.988466  0  0  0.104576  0.106288  0  0.99057  0
H  H17  1  0.73325408  0.00686563  0.10720439  1  0  0.095743  0  0.936119  0  0  0.108585  0  0.989456  0  0  0.111853  0  0.988281  0  0  0.104521  0.106255  0  0.990388  0
H  H18  1  0.37026818  0.15990781  0.11043150  1  0  0.110269  0  0.932985  0  0  0.120779  0  0.991225  0  0  0.125211  0  0.987329  0  0  0.109869  0.117682  0  0.993803  0
H  H19  1  0.62974640  0.84011965  0.88957992  1  0  0.110369  0  0.932955  0  0  0.120808  0  0.991231  0  0  0.125264  0  0.987304  0  0  0.109897  0.117683  0  0.993844  0
H  H20  1  0.98142179  0.44536764  0.33444333  1  0  0.453503  0  0.834786  0  0  0.424784  0  0.893492  0  0  0.436843  0  0.876094  0  0  0.30844  0.416777  0  0.905171  0
H  H21  1  0.01857512  0.55462762  0.66555629  1  0  0.453503  0  0.834784  0  0  0.424781  0  0.893494  0  0  0.436843  0  0.876091  0  0  0.308429  0.416777  0  0.90517  0
H  H22  1  0.81497101  0.38986893  0.20826006  1  0  0.45907  0  0.78589  0  0  0.444728  0  0.828974  0  0  0.453347  0  0.817055  0  0  0.345092  0.439093  0  0.836968  0
H  H23  1  0.18503060  0.61013447  0.79174228  1  0  0.459096  0  0.785831  0  0  0.444751  0  0.828934  0  0  0.453368  0  0.817018  0  0  0.345122  0.439122  0  0.836919  0
H  H24  1  0.71215588  0.44995341  0.59317981  1  0  0.4468  0  0.850475  0  0  0.413133  0  0.919186  0  0  0.42499  0  0.902235  0  0  0.303098  0.404895  0  0.931212  0
H  H25  1  0.28784712  0.55004392  0.40682067  1  0  0.446856  0  0.850391  0  0  0.413168  0  0.919128  0  0  0.425025  0  0.902176  0  0  0.303079  0.404928  0  0.931154  0
H  H26  1  0.83842763  0.39652380  0.51997314  1  0  0.433857  0  0.873202  0  0  0.403035  0  0.937031  0  0  0.414439  0  0.920933  0  0  0.301447  0.395191  0  0.948351  0
H  H27  1  0.16157617  0.60347267  0.48002733  1  0  0.433878  0  0.873166  0  0  0.40304  0  0.937018  0  0  0.414442  0  0.920924  0  0  0.301472  0.395198  0  0.948337  0
C  C28  1  0.01609595  0.75253774  0.45566821  1  0  0.632165  0  3.919168  0  0  0.584793  0  4.219252  0  0  0.617181  0  4.22194  0  0  0.193972  0.561793  0  4.224251  0
C  C29  1  0.98393119  0.24745915  0.54432458  1  0  0.632116  0  3.918502  0  0  0.584678  0  4.218631  0  0  0.617065  0  4.221321  0  0  0.194021  0.561679  0  4.223637  0
C  C30  1  0.18157179  0.85551995  0.46753144  1  0  -0.066183  0  3.783273  0  0  -0.043738  0  4.020276  0  0  -0.051056  0  4.042646  0  0  -0.02025  -0.038387  0  4.004057  0
C  C31  1  0.81843146  0.14446163  0.53245051  1  0  -0.066434  0  3.783075  0  0  -0.043878  0  4.019989  0  0  -0.05119  0  4.042355  0  0  -0.020344  -0.038533  0  4.003782  0
C  C32  1  0.16383497  0.94796255  0.42778118  1  0  -0.066437  0  3.734456  0  0  -0.091705  0  3.985388  0  0  -0.092555  0  4.005353  0  0  -0.081374  -0.090857  0  3.971257  0
C  C33  1  0.83618251  0.05200965  0.57219043  1  0  -0.066266  0  3.734652  0  0  -0.091499  0  3.985534  0  0  -0.092351  0  4.005506  0  0  -0.081375  -0.090652  0  3.971413  0
C  C34  1  0.31544557  0.04255125  0.43599877  1  0  -0.09327  0  3.713351  0  0  -0.113778  0  3.961763  0  0  -0.116062  0  3.982211  0  0  -0.080107  -0.112166  0  3.947645  0
C  C35  1  0.68457669  0.95742868  0.56397648  1  0  -0.093434  0  3.713321  0  0  -0.113997  0  3.961735  0  0  -0.116283  0  3.982189  0  0  -0.080237  -0.112383  0  3.94762  0
C  C36  1  0.49076924  0.04675704  0.48005615  1  0  0.062798  0  3.779027  0  0  0.081257  0  4.001779  0  0  0.08055  0  4.026089  0  0  0.000265  0.081627  0  3.985469  0
C  C37  1  0.50925087  0.95323463  0.51992560  1  0  0.063065  0  3.778812  0  0  0.081458  0  4.001617  0  0  0.080757  0  4.025918  0  0  0.000291  0.081829  0  3.985309  0
C  C38  1  0.64843200  0.14031887  0.48568579  1  0  -0.098252  0  3.671086  0  0  -0.130799  0  3.914362  0  0  -0.129585  0  3.930955  0  0  -0.073928  -0.13111  0  3.902182  0
C  C39  1  0.35158251  0.85967079  0.51430066  1  0  -0.098273  0  3.670976  0  0  -0.130762  0  3.914249  0  0  -0.129549  0  3.93085  0  0  -0.07402  -0.131071  0  3.902067  0
C  C40  1  0.44007144  0.52500379  0.22743610  1  0  0.655351  0  3.88289  0  0  0.610162  0  4.173409  0  0  0.643336  0  4.174733  0  0  0.196058  0.586773  0  4.178479  0
C  C41  1  0.55991733  0.47498996  0.77257103  1  0  0.655464  0  3.883168  0  0  0.610283  0  4.17365  0  0  0.643461  0  4.174965  0  0  0.196111  0.586898  0  4.178732  0
C  C42  1  0.28384092  0.50513677  0.12840095  1  0  -0.057667  0  3.773839  0  0  -0.034888  0  4.007299  0  0  -0.041765  0  4.028992  0  0  -0.018565  -0.029881  0  3.991654  0
C  C43  1  0.71613543  0.49485665  0.87160168  1  0  -0.057529  0  3.773696  0  0  -0.03474  0  4.007123  0  0  -0.04162  0  4.028817  0  0  -0.018511  -0.029736  0  3.991499  0
C  C44  1  0.26183595  0.43307293  0.00349020  1  0  -0.055623  0  3.722429  0  0  -0.081824  0  3.974713  0  0  -0.082063  0  3.993817  0  0  -0.079253  -0.081395  0  3.961128  0
C  C45  1  0.73814502  0.56691573  0.99651518  1  0  -0.055677  0  3.72254  0  0  -0.081864  0  3.974826  0  0  -0.082103  0  3.993939  0  0  -0.079171  -0.08144  0  3.96124  0
C  C46  1  0.11721202  0.41204922  0.90997414  1  0  -0.105835  0  3.725434  0  0  -0.125754  0  3.977809  0  0  -0.128204  0  3.997596  0  0  -0.084823  -0.12402  0  3.964239  0
C  C47  1  0.88276931  0.58794294  0.09003494  1  0  -0.105763  0  3.725695  0  0  -0.125765  0  3.97803  0  0  -0.12822  0  3.99782  0  0  -0.084854  -0.124019  0  3.964434  0
C  C48  1  0.98854513  0.46280695  0.93674870  1  0  0.048863  0  3.804996  0  0  0.066005  0  4.032283  0  0  0.06515  0  4.057203  0  0  -0.007905  0.066547  0  4.01533  0
C  C49  1  0.01144795  0.53719336  0.06327043  1  0  0.049122  0  3.805263  0  0  0.06634  0  4.032453  0  0  0.065491  0  4.057374  0  0  -0.007811  0.066879  0  4.015491  0
C  C50  1  0.83869389  0.44338806  0.84275203  1  0  -0.113645  0  3.70448  0  0  -0.144472  0  3.949622  0  0  -0.143865  0  3.967762  0  0  -0.082082  -0.144342  0  3.93634  0
C  C51  1  0.16128973  0.55661228  0.15725979  1  0  -0.11353  0  3.705177  0  0  -0.144342  0  3.95024  0  0  -0.143738  0  3.968382  0  0  -0.081996  -0.144207  0  3.936931  0
C  C52  1  0.65934918  0.70761676  0.67473440  1  0  0.728063  0  3.855497  0  0  0.681405  0  4.15217  0  0  0.718649  0  4.144212  0  0  0.2344  0.656708  0  4.160486  0
C  C53  1  0.34064579  0.29238676  0.32526987  1  0  0.727927  0  3.855861  0  0  0.681308  0  4.15246  0  0  0.718552  0  4.144498  0  0  0.234216  0.656615  0  4.160763  0
C  C54  1  0.80804563  0.81755758  0.78729146  1  0  -0.071341  0  3.759882  0  0  -0.051227  0  3.997278  0  0  -0.059106  0  4.018574  0  0  -0.018524  -0.045536  0  3.981115  0
C  C55  1  0.19196361  0.18248216  0.21273112  1  0  -0.071089  0  3.760309  0  0  -0.050878  0  3.997538  0  0  -0.058758  0  4.018824  0  0  -0.01817  -0.045182  0  3.981366  0
C  C56  1  0.98932602  0.86034314  0.78767478  1  0  -0.074804  0  3.741291  0  0  -0.098106  0  3.990203  0  0  -0.098454  0  4.010321  0  0  -0.087875  -0.097439  0  3.975659  0
C  C57  1  0.01067649  0.13969044  0.21233120  1  0  -0.074907  0  3.741405  0  0  -0.098175  0  3.990328  0  0  -0.098517  0  4.010449  0  0  -0.087924  -0.097511  0  3.975766  0
C  C58  1  0.12732208  0.95996465  0.89188525  1  0  -0.114303  0  3.759161  0  0  -0.132566  0  4.006127  0  0  -0.136286  0  4.027831  0  0  -0.085661  -0.130007  0  3.99128  0
C  C59  1  0.87267878  0.04006625  0.10811147  1  0  -0.114164  0  3.758795  0  0  -0.132528  0  4.005791  0  0  -0.136255  0  4.027501  0  0  -0.085601  -0.129967  0  3.990937  0
C  C60  1  0.09155791  0.02174091  0.00014601  1  0  0.060885  0  3.792859  0  0  0.077581  0  4.020222  0  0  0.076984  0  4.045196  0  0  -0.003153  0.077949  0  4.003314  0
C  C61  1  0.90842849  0.97828281  0.99984625  1  0  0.060824  0  3.793307  0  0  0.077563  0  4.020604  0  0  0.076964  0  4.045586  0  0  -0.003099  0.077929  0  4.003693  0
C  C62  1  0.23051906  0.12459617  0.10830692  1  0  -0.096463  0  3.690918  0  0  -0.128465  0  3.935885  0  0  -0.127563  0  3.953235  0  0  -0.073131  -0.128621  0  3.923329  0
C  C63  1  0.76947419  0.87543550  0.89170751  1  0  -0.09638  0  3.691128  0  0  -0.128243  0  3.935978  0  0  -0.127363  0  3.953317  0  0  -0.072969  -0.128366  0  3.923442  0
O  O64  1  0.85917710  0.73580237  0.39630184  1  0  -0.661531  0  1.960724  0  0  -0.626166  0  2.191846  0  0  -0.660324  0  2.18238  0  0  -0.375356  -0.610187  0  2.197176  0
O  O65  1  0.14084870  0.26418463  0.60369006  1  0  -0.661452  0  1.960442  0  0  -0.626041  0  2.191538  0  0  -0.660193  0  2.182069  0  0  -0.375331  -0.61007  0  2.196893  0
O  O66  1  0.03071873  0.67607277  0.50343513  1  0  -0.720947  0  2.059801  0  0  -0.668547  0  2.295342  0  0  -0.704254  0  2.284732  0  0  -0.385944  -0.650494  0  2.302094  0
O  O67  1  0.96928288  0.32393063  0.49656721  1  0  -0.720912  0  2.059637  0  0  -0.668474  0  2.295169  0  0  -0.704178  0  2.284558  0  0  -0.385953  -0.650413  0  2.301921  0
O  O68  1  0.56786762  0.49643538  0.20174001  1  0  -0.671149  0  1.977921  0  0  -0.633867  0  2.212172  0  0  -0.669246  0  2.203656  0  0  -0.380359  -0.616517  0  2.216616  0
O  O69  1  0.43211534  0.50355239  0.79826534  1  0  -0.671251  0  1.977984  0  0  -0.633963  0  2.212243  0  0  -0.669346  0  2.203731  0  0  -0.38042  -0.616606  0  2.216693  0
O  O70  1  0.44615582  0.56975893  0.34102885  1  0  -0.725644  0  2.035681  0  0  -0.676272  0  2.270103  0  0  -0.713566  0  2.260169  0  0  -0.38991  -0.657763  0  2.276354  0
O  O71  1  0.55384236  0.43024332  0.65898002  1  0  -0.725635  0  2.035739  0  0  -0.676283  0  2.270182  0  0  -0.713572  0  2.260236  0  0  -0.38988  -0.657768  0  2.276438  0
O  O72  1  0.69925508  0.66367780  0.57849668  1  0  -0.761691  0  2.139816  0  0  -0.726091  0  2.416831  0  0  -0.768392  0  2.399755  0  0  -0.448616  -0.708402  0  2.425931  0
O  O73  1  0.30074708  0.33632304  0.42150751  1  0  -0.7617  0  2.139859  0  0  -0.726103  0  2.416854  0  0  -0.768402  0  2.399778  0  0  -0.448569  -0.708415  0  2.425937  0
O  O74  1  0.50166329  0.66194406  0.67933264  1  0  -0.732546  0  2.056859  0  0  -0.692951  0  2.306095  0  0  -0.731418  0  2.289721  0  0  -0.409021  -0.675455  0  2.313673  0
O  O75  1  0.49833646  0.33805834  0.32068920  1  0  -0.732554  0  2.056813  0  0  -0.692992  0  2.306005  0  0  -0.731456  0  2.289628  0  0  -0.409064  -0.675502  0  2.313583  0
O  O76  1  0.85231229  0.42882195  0.29748274  1  0  -0.893553  0  1.856112  0  0  -0.857531  0  2.034176  0  0  -0.888227  0  1.992378  0  0  -0.639466  -0.845128  0  2.055891  0
O  O77  1  0.14768559  0.57117418  0.70251872  1  0  -0.893598  0  1.856089  0  0  -0.857543  0  2.034203  0  0  -0.888236  0  1.992393  0  0  -0.639483  -0.845138  0  2.055911  0
O  O78  1  0.80389518  0.47107621  0.55259589  1  0  -0.910877  0  1.924937  0  0  -0.86458  0  2.117622  0  0  -0.898461  0  2.079741  0  0  -0.624315  -0.84916  0  2.139991  0
O  O79  1  0.19610808  0.52892245  0.44740736  1  0  -0.910941  0  1.924793  0  0  -0.864582  0  2.117518  0  0  -0.898462  0  2.079648  0  0  -0.62433  -0.849169  0  2.139894  0
