# generated using pymatgen
data_TbH14C11NO8
_symmetry_space_group_name_H-M   'P 1'
_cell_length_a   8.37047808
_cell_length_b   11.88886657
_cell_length_c   13.27820000
_cell_angle_alpha   90.00000000
_cell_angle_beta   90.00000000
_cell_angle_gamma   96.36994946
_symmetry_Int_Tables_number   1
_chemical_formula_structural   TbH14C11NO8
_chemical_formula_sum   'Tb4 H56 C44 N4 O32'
_cell_volume   1313.22875509
_cell_formula_units_Z   4
loop_
 _symmetry_equiv_pos_site_id
 _symmetry_equiv_pos_as_xyz
  1  'x, y, z'
loop_
 _atom_site_type_symbol
 _atom_site_label
 _atom_site_symmetry_multiplicity
 _atom_site_fract_x
 _atom_site_fract_y
 _atom_site_fract_z
 _atom_site_occupancy
 _atom_site_hle17_bader_spin_density
 _atom_site_hle17_ddec_charge
 _atom_site_hle17_ddec_spin_density
 _atom_site_hle17_ddec_sum_bond_order
 _atom_site_hle17_magmom
 _atom_site_hse06_10hf_bader_spin_density
 _atom_site_hse06_10hf_ddec_charge
 _atom_site_hse06_10hf_ddec_spin_density
 _atom_site_hse06_10hf_ddec_sum_bond_order
 _atom_site_hse06_10hf_magmom
 _atom_site_hse06_bader_spin_density
 _atom_site_hse06_ddec_charge
 _atom_site_hse06_ddec_spin_density
 _atom_site_hse06_ddec_sum_bond_order
 _atom_site_hse06_magmom
 _atom_site_pbe_bader_charge
 _atom_site_pbe_bader_spin_density
 _atom_site_pbe_cm5_charge
 _atom_site_pbe_ddec_charge
 _atom_site_pbe_ddec_spin_density
 _atom_site_pbe_ddec_sum_bond_order
 _atom_site_pbe_magmom
Tb  Tb0  1  0.00555147  0.33509042  0.59521697  1  0  2.245261  0  1.638738  0  0  2.084211  0  2.114403  0  0  2.207048  0  1.933165  0  2.177743  0  1.505032  2.046511  0  2.148919  0
Tb  Tb1  1  0.49445149  0.66491063  0.09521773  1  0  2.245299  0  1.638693  0  0  2.084268  0  2.114318  0  0  2.207081  0  1.933121  0  2.177758  0  1.505029  2.04659  0  2.148803  0
Tb  Tb2  1  0.99445041  0.66491063  0.40478227  1  0  2.245299  0  1.638724  0  0  2.084265  0  2.114353  0  0  2.207076  0  1.933155  0  2.177755  0  1.505016  2.046579  0  2.148847  0
Tb  Tb3  1  0.50555159  0.33509042  0.90478303  1  0  2.245271  0  1.638686  0  0  2.084234  0  2.11432  0  0  2.207053  0  1.933111  0  2.177744  0  1.505027  2.046535  0  2.148834  0
H  H4  1  0.80212521  0.52193279  0.61415629  1  0  0.445654  0  0.851352  0  0  0.413988  0  0.916796  0  0  0.42522  0  0.900378  0  0.659445  0  0.303308  0.406168  0  0.928396  0
H  H5  1  0.69787519  0.47806572  0.11415779  1  0  0.445624  0  0.85141  0  0  0.413977  0  0.916813  0  0  0.425208  0  0.900399  0  0.659453  0  0.303323  0.40616  0  0.928409  0
H  H6  1  0.19787508  0.47806572  0.38584221  1  0  0.445611  0  0.851431  0  0  0.413969  0  0.916827  0  0  0.425199  0  0.900413  0  0.659449  0  0.303316  0.40615  0  0.928426  0
H  H7  1  0.30212523  0.52193364  0.88584371  1  0  0.445613  0  0.851415  0  0  0.413964  0  0.916827  0  0  0.425195  0  0.900411  0  0.659438  0  0.303304  0.406145  0  0.928427  0
H  H8  1  0.77915523  0.46850029  0.72554111  1  0  0.45033  0  0.846219  0  0  0.420263  0  0.907333  0  0  0.432117  0  0.890272  0  0.660625  0  0.30186  0.412238  0  0.918933  0
H  H9  1  0.72084770  0.53149907  0.22554187  1  0  0.450486  0  0.845989  0  0  0.42029  0  0.907293  0  0  0.432194  0  0.89017  0  0.660613  0  0.301885  0.412266  0  0.918892  0
H  H10  1  0.22084758  0.53149907  0.27445813  1  0  0.450518  0  0.845958  0  0  0.420328  0  0.907257  0  0  0.432233  0  0.890132  0  0.660612  0  0.301896  0.412304  0  0.918856  0
H  H11  1  0.27915512  0.46850029  0.77445889  1  0  0.450331  0  0.846223  0  0  0.42026  0  0.907341  0  0  0.432116  0  0.890277  0  0.660624  0  0.301856  0.412235  0  0.918942  0
H  H12  1  0.93635210  0.26330824  0.80793029  1  0  0.447742  0  0.840715  0  0  0.419147  0  0.899162  0  0  0.430507  0  0.882795  0  0.635463  0  0.304883  0.411422  0  0.910361  0
H  H13  1  0.56364949  0.73669027  0.30793104  1  0  0.447728  0  0.84076  0  0  0.419134  0  0.899204  0  0  0.430493  0  0.882839  0  0.635448  0  0.304884  0.411408  0  0.910403  0
H  H14  1  0.06364819  0.73669027  0.19206896  1  0  0.447763  0  0.840711  0  0  0.419163  0  0.899161  0  0  0.430521  0  0.882797  0  0.635454  0  0.304887  0.411438  0  0.91036  0
H  H15  1  0.43635079  0.26330824  0.69206896  1  0  0.447753  0  0.840738  0  0  0.419153  0  0.89919  0  0  0.430511  0  0.882826  0  0.635449  0  0.304887  0.411427  0  0.91039  0
H  H16  1  0.12569224  0.25355831  0.79851260  1  0  0.449158  0  0.847038  0  0  0.417376  0  0.91144  0  0  0.429433  0  0.89407  0  0.657084  0  0.302309  0.409099  0  0.923489  0
H  H17  1  0.37430952  0.74644274  0.29851260  1  0  0.449166  0  0.847029  0  0  0.417391  0  0.911422  0  0  0.429448  0  0.894049  0  0.657082  0  0.302306  0.409114  0  0.923469  0
H  H18  1  0.87430844  0.74644274  0.20148815  1  0  0.449185  0  0.846998  0  0  0.417407  0  0.911394  0  0  0.429464  0  0.894021  0  0.657056  0  0.302326  0.40913  0  0.923442  0
H  H19  1  0.62569116  0.25355831  0.70148665  1  0  0.449153  0  0.847049  0  0  0.41737  0  0.911454  0  0  0.429427  0  0.894083  0  0.657076  0  0.302301  0.409093  0  0.923502  0
H  H20  1  0.15632396  0.19880804  0.38014942  1  0  0.069269  0  0.965566  0  0  0.079139  0  1.029273  0  0  0.081607  0  1.027157  0  0.095127  0  0.114356  0.077353  0  1.030757  0
H  H21  1  0.34367821  0.80118793  0.88015318  1  0  0.069238  0  0.965551  0  0  0.079068  0  1.029309  0  0  0.081533  0  1.027192  0  0.095103  0  0.114321  0.077286  0  1.030795  0
H  H22  1  0.84367726  0.80118877  0.61984757  1  0  0.069267  0  0.965582  0  0  0.07915  0  1.029275  0  0  0.081615  0  1.027157  0  0.095096  0  0.114368  0.077365  0  1.030759  0
H  H23  1  0.65632407  0.19880804  0.11985058  1  0  0.069279  0  0.965549  0  0  0.079173  0  1.029229  0  0  0.081645  0  1.027115  0  0.09512  0  0.114358  0.077387  0  1.030713  0
H  H24  1  0.06190145  0.05084352  0.25246419  1  0  0.11264  0  0.954225  0  0  0.123456  0  1.011947  0  0  0.126306  0  1.011618  0  0.099626  0  0.10998  0.12146  0  1.012162  0
H  H25  1  0.43809473  0.94915245  0.75246645  1  0  0.11266  0  0.954212  0  0  0.123464  0  1.011941  0  0  0.126313  0  1.011614  0  0.099724  0  0.10998  0.121469  0  1.012154  0
H  H26  1  0.93809485  0.94915245  0.74753430  1  0  0.112636  0  0.954227  0  0  0.123442  0  1.011956  0  0  0.126291  0  1.011629  0  0.099707  0  0.109975  0.121447  0  1.012169  0
H  H27  1  0.56190157  0.05084352  0.24753581  1  0  0.112628  0  0.954202  0  0  0.123442  0  1.011935  0  0  0.126292  0  1.011604  0  0.099679  0  0.109977  0.121447  0  1.012149  0
H  H28  1  0.80755918  0.92637383  0.28456568  1  0  0.110443  0  0.953861  0  0  0.119329  0  1.014662  0  0  0.122985  0  1.011547  0  0.13126  0  0.115405  0.116575  0  1.01707  0
H  H29  1  0.69243631  0.07362383  0.78456417  1  0  0.110444  0  0.953848  0  0  0.119336  0  1.014658  0  0  0.12299  0  1.011549  0  0.13129  0  0.115431  0.116583  0  1.017064  0
H  H30  1  0.19243606  0.07362299  0.71543583  1  0  0.110449  0  0.953856  0  0  0.119337  0  1.014669  0  0  0.12299  0  1.01156  0  0.131296  0  0.115438  0.116577  0  1.017082  0
H  H31  1  0.30756159  0.92637468  0.21543432  1  0  0.11045  0  0.953868  0  0  0.119335  0  1.014679  0  0  0.12299  0  1.011565  0  0.131268  0  0.115412  0.116578  0  1.01709  0
H  H32  1  0.65109622  0.95860192  0.44343736  1  0  0.127888  0  0.963485  0  0  0.131873  0  1.030961  0  0  0.13629  0  1.027742  0  0.145669  0  0.110768  0.128727  0  1.033227  0
H  H33  1  0.84890233  0.04139997  0.94343586  1  0  0.127879  0  0.963393  0  0  0.131859  0  1.030881  0  0  0.136276  0  1.027662  0  0.145368  0  0.110761  0.128713  0  1.03315  0
H  H34  1  0.34890235  0.04140082  0.55656339  1  0  0.127838  0  0.963406  0  0  0.13182  0  1.030907  0  0  0.136237  0  1.027688  0  0.145368  0  0.110754  0.128672  0  1.033178  0
H  H35  1  0.15109597  0.95860108  0.05656264  1  0  0.127918  0  0.963414  0  0  0.131898  0  1.030904  0  0  0.136316  0  1.027684  0  0.145669  0  0.11077  0.128751  0  1.033174  0
H  H36  1  0.52046949  0.22688311  0.50105285  1  0  0.114305  0  0.934523  0  0  0.131735  0  0.988147  0  0  0.133609  0  0.987859  0  0.057871  0  0.108702  0.130462  0  0.98816  0
H  H37  1  0.97952985  0.77311625  0.00105285  1  0  0.114295  0  0.934521  0  0  0.131739  0  0.988141  0  0  0.133614  0  0.987855  0  0.057882  0  0.108716  0.130466  0  0.988154  0
H  H38  1  0.47952974  0.77311625  0.49894715  1  0  0.11429  0  0.934522  0  0  0.131737  0  0.98814  0  0  0.13361  0  0.987853  0  0.057878  0  0.108714  0.130463  0  0.988153  0
H  H39  1  0.02047163  0.22688226  0.99894715  1  0  0.11432  0  0.934453  0  0  0.131733  0  0.988114  0  0  0.133605  0  0.987825  0  0.057919  0  0.108714  0.130459  0  0.988126  0
H  H40  1  0.56940669  0.37138776  0.52540179  1  0  0.123608  0  0.914332  0  0  0.140059  0  0.968164  0  0  0.142769  0  0.966803  0  0.056687  0  0.114344  0.138168  0  0.969017  0
H  H41  1  0.93059278  0.62861245  0.02540179  1  0  0.123588  0  0.914342  0  0  0.14005  0  0.968179  0  0  0.142762  0  0.966816  0  0.056689  0  0.114338  0.13816  0  0.969031  0
H  H42  1  0.43059267  0.62861245  0.47459821  1  0  0.123578  0  0.914351  0  0  0.140041  0  0.968189  0  0  0.142751  0  0.966826  0  0.056677  0  0.114334  0.138151  0  0.969041  0
H  H43  1  0.06940764  0.37138691  0.97459821  1  0  0.123595  0  0.914347  0  0  0.140052  0  0.96818  0  0  0.14276  0  0.966817  0  0.056765  0  0.114336  0.138161  0  0.969033  0
H  H44  1  0.47751463  0.41602585  0.34729406  1  0  0.076106  0  0.923679  0  0  0.094957  0  0.981376  0  0  0.096497  0  0.980941  0  0.049649  0  0.097193  0.09388  0  0.981492  0
H  H45  1  0.02248581  0.58397435  0.84729406  1  0  0.076108  0  0.923695  0  0  0.09496  0  0.981378  0  0  0.096499  0  0.980946  0  0.049646  0  0.097194  0.093883  0  0.981494  0
H  H46  1  0.52248353  0.58397435  0.65270594  1  0  0.076104  0  0.923668  0  0  0.094969  0  0.981348  0  0  0.096508  0  0.980918  0  0.049663  0  0.0972  0.093893  0  0.981465  0
H  H47  1  0.97751594  0.41602585  0.15270594  1  0  0.076117  0  0.923675  0  0  0.094968  0  0.981371  0  0  0.096508  0  0.980936  0  0.049654  0  0.097198  0.093891  0  0.981487  0
H  H48  1  0.42933555  0.26941803  0.32613683  1  0  0.06506  0  0.933478  0  0  0.085826  0  0.992451  0  0  0.08633  0  0.993371  0  0.027183  0  0.093193  0.085447  0  0.991802  0
H  H49  1  0.07066489  0.73058217  0.82613683  1  0  0.065048  0  0.933466  0  0  0.085821  0  0.992418  0  0  0.086326  0  0.993336  0  0.027188  0  0.093177  0.085435  0  0.991776  0
H  H50  1  0.57066368  0.73058133  0.67386317  1  0  0.06503  0  0.933455  0  0  0.085797  0  0.992437  0  0  0.086303  0  0.993355  0  0.027198  0  0.093167  0.085418  0  0.991788  0
H  H51  1  0.92933686  0.26941803  0.17386317  1  0  0.065065  0  0.933434  0  0  0.085832  0  0.992409  0  0  0.086337  0  0.993329  0  0.02719  0  0.093199  0.085451  0  0.991761  0
H  H52  1  0.71938558  0.23912892  0.35595563  1  0  0.102988  0  0.950252  0  0  0.11625  0  1.011059  0  0  0.117445  0  1.012717  0  0.049255  0  0.098691  0.115463  0  1.009709  0
H  H53  1  0.78061257  0.76087044  0.85595563  1  0  0.10297  0  0.950246  0  0  0.116246  0  1.01107  0  0  0.117441  0  1.01273  0  0.049257  0  0.098676  0.115456  0  1.009719  0
H  H54  1  0.28061139  0.76087128  0.64404437  1  0  0.102997  0  0.950185  0  0  0.116271  0  1.011015  0  0  0.117466  0  1.012675  0  0.049238  0  0.098693  0.115482  0  1.009664  0
H  H55  1  0.21938785  0.23912892  0.14404437  1  0  0.103006  0  0.950203  0  0  0.116279  0  1.011014  0  0  0.117473  0  1.012674  0  0.049238  0  0.098698  0.115491  0  1.009664  0
H  H56  1  0.68786167  0.32745043  0.25082391  1  0  0.102028  0  0.94975  0  0  0.114234  0  1.015558  0  0  0.116739  0  1.013788  0  0.011535  0  0.101968  0.112535  0  1.016547  0
H  H57  1  0.81213767  0.67254892  0.75082391  1  0  0.102028  0  0.949732  0  0  0.11425  0  1.01555  0  0  0.116754  0  1.013781  0  0.011544  0  0.10197  0.112549  0  1.016537  0
H  H58  1  0.31213769  0.67254977  0.74917609  1  0  0.102008  0  0.949763  0  0  0.114241  0  1.015563  0  0  0.116744  0  1.013796  0  0.011537  0  0.101971  0.112539  0  1.016551  0
H  H59  1  0.18786288  0.32745128  0.24917685  1  0  0.101993  0  0.949768  0  0  0.114211  0  1.015579  0  0  0.116716  0  1.013809  0  0.011754  0  0.101957  0.112512  0  1.016567  0
C  C60  1  0.04496734  0.14367100  0.39148303  1  0  0.139593  0  3.718555  0  0  0.110505  0  3.977996  0  0  0.11599  0  3.998905  0  0.473357  0  0.047235  0.106936  0  3.965674  0
C  C61  1  0.45503270  0.85632667  0.89148680  1  0  0.139616  0  3.718448  0  0  0.110557  0  3.97787  0  0  0.116045  0  3.998777  0  0.473501  0  0.047298  0.10698  0  3.965556  0
C  C62  1  0.95503069  0.85632836  0.60851396  1  0  0.139616  0  3.718538  0  0  0.110515  0  3.977957  0  0  0.116002  0  3.998863  0  0.473482  0  0.047278  0.106943  0  3.965638  0
C  C63  1  0.54496865  0.14367100  0.10851697  1  0  0.139534  0  3.718511  0  0  0.110431  0  3.977939  0  0  0.115909  0  3.998853  0  0.473315  0  0.047215  0.106862  0  3.965618  0
C  C64  1  0.99282563  0.06110126  0.32067600  1  0  -0.106761  0  3.693841  0  0  -0.120609  0  3.945255  0  0  -0.125909  0  3.96478  0  -0.070193  0  -0.07693  -0.117017  0  3.931534  0
C  C65  1  0.50717212  0.93889555  0.82067825  1  0  -0.106848  0  3.693764  0  0  -0.120659  0  3.94515  0  0  -0.125958  0  3.964672  0  -0.070305  0  -0.076943  -0.117066  0  3.931432  0
C  C66  1  0.00717094  0.93889640  0.67932175  1  0  -0.106789  0  3.69377  0  0  -0.120602  0  3.945168  0  0  -0.125903  0  3.964692  0  -0.070326  0  -0.076924  -0.11701  0  3.931447  0
C  C67  1  0.49282671  0.06110126  0.17932325  1  0  -0.106691  0  3.693812  0  0  -0.120538  0  3.945244  0  0  -0.125837  0  3.964769  0  -0.07024  0  -0.076907  -0.116946  0  3.931522  0
C  C68  1  0.85011545  0.99178216  0.33850597  1  0  0.004263  0  3.684626  0  0  -0.017908  0  3.941644  0  0  -0.014674  0  3.957543  0  -0.006839  0  -0.059021  -0.019925  0  3.931038  0
C  C69  1  0.64988256  0.00821635  0.83850673  1  0  0.004313  0  3.684491  0  0  -0.017911  0  3.941548  0  0  -0.014677  0  3.957446  0  -0.006714  0  -0.059064  -0.019927  0  3.930941  0
C  C70  1  0.14988125  0.00821635  0.66149327  1  0  0.004256  0  3.684489  0  0  -0.017956  0  3.941545  0  0  -0.014721  0  3.957444  0  -0.006693  0  -0.059083  -0.019967  0  3.93094  0
C  C71  1  0.35011773  0.99178216  0.16149478  1  0  0.004215  0  3.684566  0  0  -0.017974  0  3.94161  0  0  -0.01474  0  3.957509  0  -0.006671  0  -0.059053  -0.019989  0  3.931005  0
C  C72  1  0.76481481  0.00823751  0.42625582  1  0  -0.103962  0  3.677853  0  0  -0.126253  0  3.928659  0  0  -0.130065  0  3.946168  0  -0.025281  0  -0.072307  -0.123575  0  3.916359  0
C  C73  1  0.73518241  0.99176354  0.92625657  1  0  -0.103971  0  3.677826  0  0  -0.126229  0  3.928648  0  0  -0.130041  0  3.946156  0  -0.025109  0  -0.072312  -0.12355  0  3.916347  0
C  C74  1  0.23518123  0.99176439  0.57374343  1  0  -0.103898  0  3.677798  0  0  -0.126175  0  3.92864  0  0  -0.129987  0  3.946149  0  -0.025151  0  -0.072317  -0.123496  0  3.916337  0
C  C75  1  0.26481589  0.00823751  0.07374343  1  0  -0.103995  0  3.67777  0  0  -0.12628  0  3.928577  0  0  -0.130092  0  3.946085  0  -0.025429  0  -0.07231  -0.1236  0  3.916275  0
C  C76  1  0.82408268  0.09396666  0.49239957  1  0  0.084877  0  3.787478  0  0  0.091761  0  4.029795  0  0  0.091516  0  4.0537  0  0.460238  0  0.10725  0.091574  0  4.016294  0
C  C77  1  0.67591627  0.90603778  0.99240183  1  0  0.084897  0  3.787617  0  0  0.091771  0  4.029978  0  0  0.091528  0  4.053881  0  0.46028  0  0.107308  0.091584  0  4.016477  0
C  C78  1  0.17591390  0.90603862  0.50759817  1  0  0.084885  0  3.787541  0  0  0.091761  0  4.029923  0  0  0.091517  0  4.053826  0  0.460314  0  0.107302  0.091573  0  4.016423  0
C  C79  1  0.32408363  0.09396581  0.00760043  1  0  0.084871  0  3.787525  0  0  0.091764  0  4.029838  0  0  0.09152  0  4.053742  0  0.460232  0  0.107256  0.091577  0  4.016337  0
C  C80  1  0.72865073  0.11758908  0.58471178  1  0  0.616078  0  3.949203  0  0  0.564484  0  4.254727  0  0  0.597022  0  4.248927  0  1.585239  0  0.210902  0.542431  0  4.25977  0
C  C81  1  0.77135220  0.88241789  0.08471404  1  0  0.616283  0  3.948914  0  0  0.564643  0  4.254539  0  0  0.597181  0  4.248733  0  1.585722  0  0.210996  0.54259  0  4.259585  0
C  C82  1  0.27135075  0.88241704  0.41528671  1  0  0.616322  0  3.948801  0  0  0.564678  0  4.254439  0  0  0.597216  0  4.248634  0  1.585753  0  0.211022  0.542625  0  4.259486  0
C  C83  1  0.22865062  0.11758908  0.91528746  1  0  0.616177  0  3.949224  0  0  0.564574  0  4.254753  0  0  0.597113  0  4.24895  0  1.585253  0  0.210942  0.54252  0  4.259798  0
C  C84  1  0.32038676  0.31786723  0.52005091  1  0  0.707168  0  3.830051  0  0  0.656399  0  4.13423  0  0  0.689186  0  4.132794  0  1.51866  0  0.207093  0.633563  0  4.138999  0
C  C85  1  0.17961341  0.68213128  0.02005242  1  0  0.70697  0  3.830354  0  0  0.6563  0  4.134392  0  0  0.689088  0  4.132956  0  1.518712  0  0.207044  0.633465  0  4.139164  0
C  C86  1  0.67961379  0.68213297  0.47994834  1  0  0.707063  0  3.830105  0  0  0.656326  0  4.134241  0  0  0.689111  0  4.132806  0  1.518674  0  0.207085  0.63349  0  4.13901  0
C  C87  1  0.82038807  0.31786723  0.97994834  1  0  0.707127  0  3.830158  0  0  0.656404  0  4.134262  0  0  0.689187  0  4.132827  0  1.518705  0  0.207125  0.633569  0  4.139033  0
C  C88  1  0.48801902  0.31106090  0.48094847  1  0  -0.271341  0  3.651148  0  0  -0.302317  0  3.893849  0  0  -0.307541  0  3.899977  0  -0.016069  0  -0.160971  -0.29823  0  3.888471  0
C  C89  1  0.01198128  0.68893845  0.98094923  1  0  -0.271235  0  3.651151  0  0  -0.302303  0  3.893896  0  0  -0.307532  0  3.900033  0  -0.016078  0  -0.160974  -0.298215  0  3.888516  0
C  C90  1  0.51198020  0.68893845  0.51905077  1  0  -0.271239  0  3.6512  0  0  -0.30228  0  3.893959  0  0  -0.3075  0  3.900085  0  -0.016077  0  -0.160955  -0.298192  0  3.888582  0
C  C91  1  0.98802033  0.31106090  0.01905153  1  0  -0.271314  0  3.65111  0  0  -0.302314  0  3.893804  0  0  -0.307527  0  3.899917  0  -0.016209  0  -0.160985  -0.298226  0  3.888427  0
C  C92  1  0.51013938  0.33201394  0.36813725  1  0  -0.041238  0  3.651804  0  0  -0.085411  0  3.91114  0  0  -0.08459  0  3.922629  0  -0.003181  0  -0.156612  -0.08559  0  3.902393  0
C  C93  1  0.98985996  0.66798541  0.86813725  1  0  -0.041265  0  3.651778  0  0  -0.085393  0  3.911111  0  0  -0.084572  0  3.922604  0  -0.003161  0  -0.156593  -0.085571  0  3.902359  0
C  C94  1  0.48985879  0.66798626  0.63186200  1  0  -0.041232  0  3.651806  0  0  -0.085392  0  3.911195  0  0  -0.084573  0  3.92269  0  -0.003191  0  -0.156604  -0.085574  0  3.902446  0
C  C95  1  0.01014046  0.33201394  0.13186275  1  0  -0.041274  0  3.651771  0  0  -0.085435  0  3.91114  0  0  -0.084617  0  3.922627  0  -0.003214  0  -0.156625  -0.085614  0  3.902392  0
C  C96  1  0.68324788  0.32142359  0.33327032  1  0  -0.277293  0  3.641106  0  0  -0.314108  0  3.888454  0  0  -0.319401  0  3.89429  0  0.01168  0  -0.16289  -0.309949  0  3.882957  0
C  C97  1  0.81675014  0.67857492  0.83327108  1  0  -0.277232  0  3.641001  0  0  -0.314113  0  3.888407  0  0  -0.319406  0  3.894252  0  0.011735  0  -0.162855  -0.30994  0  3.88289  0
C  C98  1  0.31675149  0.67857661  0.66672968  1  0  -0.277251  0  3.641028  0  0  -0.314134  0  3.888453  0  0  -0.319427  0  3.894294  0  0.011694  0  -0.162894  -0.309965  0  3.882943  0
C  C99  1  0.18324763  0.32142274  0.16673043  1  0  -0.277282  0  3.641015  0  0  -0.314142  0  3.888424  0  0  -0.319437  0  3.894259  0  0.011479  0  -0.16292  -0.309979  0  3.882921  0
C  C100  1  0.79974703  0.41536570  0.37700215  1  0  0.76977  0  3.780322  0  0  0.728419  0  4.067389  0  0  0.763391  0  4.061514  0  1.568445  0  0.237933  0.704928  0  4.073721  0
C  C101  1  0.70025337  0.58463281  0.87700215  1  0  0.769783  0  3.780323  0  0  0.728441  0  4.067421  0  0  0.763406  0  4.061562  0  1.568379  0  0.237941  0.704947  0  4.073754  0
C  C102  1  0.20025339  0.58463365  0.62299785  1  0  0.769752  0  3.780325  0  0  0.728417  0  4.067409  0  0  0.763385  0  4.061542  0  1.568434  0  0.237926  0.704924  0  4.07374  0
C  C103  1  0.29974599  0.41536739  0.12299860  1  0  0.769757  0  3.78042  0  0  0.728398  0  4.067519  0  0  0.763375  0  4.061639  0  1.568483  0  0.23794  0.704906  0  4.073852  0
N  N104  1  0.96240238  0.16153233  0.47586420  1  0  -0.447362  0  3.27653  0  0  -0.396089  0  3.53911  0  0  -0.419273  0  3.562626  0  -1.251377  0  -0.375282  -0.386266  0  3.524995  0
N  N105  1  0.53759975  0.83846956  0.97586721  1  0  -0.447378  0  3.276641  0  0  -0.396091  0  3.539211  0  0  -0.419273  0  3.562725  0  -1.251521  0  -0.37532  -0.386272  0  3.5251  0
N  N106  1  0.03759738  0.83847041  0.52413354  1  0  -0.447437  0  3.27668  0  0  -0.396158  0  3.539279  0  0  -0.41934  0  3.562792  0  -1.251505  0  -0.375352  -0.386337  0  3.525165  0
N  N107  1  0.46240319  0.16153064  0.02413580  1  0  -0.447333  0  3.276547  0  0  -0.396061  0  3.539121  0  0  -0.419243  0  3.562639  0  -1.251334  0  -0.375266  -0.386239  0  3.525008  0
O  O108  1  0.61020078  0.05097048  0.60915335  1  0  -0.564799  0  1.920024  0  0  -0.52408  0  2.144445  0  0  -0.544666  0  2.136392  0  -1.166567  0  -0.304149  -0.509406  0  2.149144  0
O  O109  1  0.88980096  0.94903650  0.10915260  1  0  -0.564939  0  1.919866  0  0  -0.524223  0  2.144354  0  0  -0.544807  0  2.136298  0  -1.166757  0  -0.304259  -0.509549  0  2.149054  0
O  O110  1  0.38979952  0.94903565  0.39084740  1  0  -0.564915  0  1.919796  0  0  -0.524191  0  2.144277  0  0  -0.544775  0  2.136223  0  -1.166714  0  -0.304243  -0.509517  0  2.148977  0
O  O111  1  0.11020172  0.05096963  0.89084665  1  0  -0.564869  0  1.9201  0  0  -0.524148  0  2.144524  0  0  -0.544733  0  2.13647  0  -1.166574  0  -0.304186  -0.509473  0  2.149225  0
O  O112  1  0.77729318  0.21157436  0.63162552  1  0  -0.765753  0  2.099535  0  0  -0.700933  0  2.351518  0  0  -0.738312  0  2.339023  0  -1.194201  0  -0.410391  -0.681343  0  2.358293  0
O  O113  1  0.72270749  0.78843346  0.13162853  1  0  -0.765839  0  2.099566  0  0  -0.701021  0  2.351605  0  0  -0.738398  0  2.339106  0  -1.194529  0  -0.410397  -0.681432  0  2.358375  0
O  O114  1  0.22270724  0.78843261  0.36837147  1  0  -0.765879  0  2.099573  0  0  -0.701062  0  2.351618  0  0  -0.738437  0  2.339118  0  -1.194594  0  -0.410414  -0.681471  0  2.358387  0
O  O115  1  0.27729307  0.21157436  0.86837448  1  0  -0.765788  0  2.099568  0  0  -0.700963  0  2.351544  0  0  -0.738341  0  2.33905  0  -1.194217  0  -0.410391  -0.681372  0  2.358316  0
O  O116  1  0.21935490  0.36981778  0.47057282  1  0  -0.722312  0  2.0544  0  0  -0.663632  0  2.30174  0  0  -0.697123  0  2.292155  0  -1.203999  0  -0.366776  -0.645214  0  2.30752  0
O  O117  1  0.28064541  0.63018158  0.97057357  1  0  -0.722244  0  2.054544  0  0  -0.663601  0  2.30187  0  0  -0.697095  0  2.292288  0  -1.204003  0  -0.366771  -0.645184  0  2.307641  0
O  O118  1  0.78064553  0.63018158  0.52942568  1  0  -0.722346  0  2.054452  0  0  -0.663621  0  2.301736  0  0  -0.697109  0  2.292148  0  -1.203989  0  -0.366796  -0.645209  0  2.307524  0
O  O119  1  0.71935488  0.36981693  0.02942643  1  0  -0.722368  0  2.054484  0  0  -0.663663  0  2.301765  0  0  -0.697156  0  2.292187  0  -1.203982  0  -0.366812  -0.645241  0  2.307532  0
O  O120  1  0.27721229  0.27031685  0.60367746  1  0  -0.69797  0  1.982545  0  0  -0.639471  0  2.220002  0  0  -0.673515  0  2.211779  0  -1.186082  0  -0.353476  -0.620945  0  2.224971  0
O  O121  1  0.22278669  0.72968166  0.10367821  1  0  -0.697911  0  1.982607  0  0  -0.63943  0  2.220002  0  0  -0.673468  0  2.211778  0  -1.186139  0  -0.353437  -0.620906  0  2.22497  0
O  O122  1  0.72278800  0.72968166  0.39632104  1  0  -0.697899  0  1.982505  0  0  -0.639435  0  2.219981  0  0  -0.673476  0  2.211759  0  -1.186105  0  -0.353449  -0.62091  0  2.22495  0
O  O123  1  0.77721360  0.27031685  0.89632254  1  0  -0.697913  0  1.982584  0  0  -0.639455  0  2.220047  0  0  -0.673496  0  2.211823  0  -1.186139  0  -0.353447  -0.62093  0  2.225018  0
O  O124  1  0.87827793  0.39856654  0.45611830  1  0  -0.770206  0  2.093427  0  0  -0.72047  0  2.365197  0  0  -0.760389  0  2.354174  0  -1.219792  0  -0.404563  -0.702154  0  2.372316  0
O  O125  1  0.62172353  0.60143113  0.95611830  1  0  -0.770188  0  2.093445  0  0  -0.72047  0  2.365252  0  0  -0.760384  0  2.354237  0  -1.219792  0  -0.404551  -0.702161  0  2.372375  0
O  O126  1  0.12172103  0.60143113  0.54388245  1  0  -0.770157  0  2.093363  0  0  -0.720444  0  2.365167  0  0  -0.76036  0  2.354152  0  -1.219796  0  -0.404529  -0.70213  0  2.372286  0
O  O127  1  0.37827676  0.39856738  0.04388396  1  0  -0.770146  0  2.093488  0  0  -0.720412  0  2.365269  0  0  -0.760328  0  2.354244  0  -1.219761  0  -0.404535  -0.702098  0  2.372389  0
O  O128  1  0.81132396  0.51211346  0.33368228  1  0  -0.730914  0  2.05999  0  0  -0.668027  0  2.29468  0  0  -0.70366  0  2.282587  0  -1.197791  0  -0.365233  -0.648889  0  2.300836  0
O  O129  1  0.68867751  0.48788420  0.83368228  1  0  -0.730921  0  2.05999  0  0  -0.668071  0  2.294653  0  0  -0.703681  0  2.282561  0  -1.197822  0  -0.365278  -0.648932  0  2.300811  0
O  O130  1  0.18867766  0.48788590  0.66631848  1  0  -0.730914  0  2.060019  0  0  -0.668063  0  2.294674  0  0  -0.703677  0  2.282579  0  -1.197799  0  -0.365264  -0.648923  0  2.300831  0
O  O131  1  0.31132159  0.51211431  0.16631697  1  0  -0.730952  0  2.060034  0  0  -0.668048  0  2.294715  0  0  -0.703683  0  2.282619  0  -1.197859  0  -0.365247  -0.648912  0  2.300872  0
O  O132  1  0.82962204  0.45941897  0.65792954  1  0  -0.93445  0  1.841764  0  0  -0.885161  0  2.046062  0  0  -0.913919  0  2.00592  0  -1.309481  0  -0.661029  -0.871594  0  2.069664  0
O  O133  1  0.67038221  0.54058123  0.15792954  1  0  -0.93455  0  1.841609  0  0  -0.885164  0  2.046053  0  0  -0.913964  0  2.00582  0  -1.309478  0  -0.661055  -0.871605  0  2.069652  0
O  O134  1  0.17038196  0.54058038  0.34207046  1  0  -0.934575  0  1.841608  0  0  -0.885198  0  2.046034  0  0  -0.913996  0  2.005794  0  -1.309478  0  -0.661058  -0.871636  0  2.069635  0
O  O135  1  0.32962206  0.45941982  0.84207046  1  0  -0.93444  0  1.841836  0  0  -0.885156  0  2.046133  0  0  -0.91391  0  2.005986  0  -1.30945  0  -0.66102  -0.871591  0  2.069733  0
O  O136  1  0.03010440  0.27763184  0.76209577  1  0  -0.929869  0  1.844533  0  0  -0.878897  0  2.048155  0  0  -0.908935  0  2.007351  0  -1.280977  0  -0.662777  -0.864797  0  2.071881  0
O  O137  1  0.46989697  0.72236667  0.26209652  1  0  -0.929855  0  1.844555  0  0  -0.878888  0  2.048177  0  0  -0.908919  0  2.007371  0  -1.280948  0  -0.662767  -0.864793  0  2.071902  0
O  O138  1  0.96989603  0.72236752  0.23790348  1  0  -0.929908  0  1.844496  0  0  -0.878936  0  2.048124  0  0  -0.908966  0  2.007319  0  -1.280952  0  -0.662788  -0.86484  0  2.071849  0
O  O139  1  0.53010332  0.27763184  0.73790348  1  0  -0.929882  0  1.844587  0  0  -0.878914  0  2.04822  0  0  -0.908948  0  2.007416  0  -1.280967  0  -0.662766  -0.864814  0  2.071948  0
