# generated using pymatgen
data_Zn3H44C66(N2O5)3
_symmetry_space_group_name_H-M   'P 1'
_cell_length_a   11.15407805
_cell_length_b   11.15407523
_cell_length_c   25.63486238
_cell_angle_alpha   92.57767848
_cell_angle_beta   92.57713533
_cell_angle_gamma   100.57293126
_symmetry_Int_Tables_number   1
_chemical_formula_structural   Zn3H44C66(N2O5)3
_chemical_formula_sum   'Zn6 H88 C132 N12 O30'
_cell_volume   3127.39885036
_cell_formula_units_Z   2
loop_
 _symmetry_equiv_pos_site_id
 _symmetry_equiv_pos_as_xyz
  1  'x, y, z'
loop_
 _atom_site_type_symbol
 _atom_site_label
 _atom_site_symmetry_multiplicity
 _atom_site_fract_x
 _atom_site_fract_y
 _atom_site_fract_z
 _atom_site_occupancy
 _atom_site_pbe_bader_charge
 _atom_site_pbe_bader_spin_density
 _atom_site_pbe_cm5_charge
 _atom_site_pbe_ddec_charge
 _atom_site_pbe_ddec_spin_density
 _atom_site_pbe_ddec_sum_bond_order
 _atom_site_pbe_magmom
Zn  Zn0  1  0.99999919  0.50000001  0.49999970  1  1.421101  0  0.692004  1.049853  0  2.129081  0
Zn  Zn1  1  0.49999969  0.99999951  0.99999995  1  1.420954  0  0.691994  1.049837  0  2.129043  0
Zn  Zn2  1  0.15517680  0.81659390  0.50760677  1  1.319716  0  0.680971  0.825305  0  2.401285  0
Zn  Zn3  1  0.18340449  0.84481883  0.99239400  1  1.319713  0  0.680963  0.825308  0  2.4013  0
Zn  Zn4  1  0.84482307  0.18340440  0.49239389  1  1.319847  0  0.680971  0.825313  0  2.40121  0
Zn  Zn5  1  0.81659264  0.15517895  0.00760621  1  1.319714  0  0.680968  0.825307  0  2.401235  0
H  H6  1  0.90620771  0.94737854  0.41362531  1  0.135811  0  0.107806  0.122092  0  1.031529  0
H  H7  1  0.05262434  0.09378915  0.08637391  1  0.135827  0  0.10782  0.12213  0  1.031481  0
H  H8  1  0.09379396  0.05262370  0.58637508  1  0.13585  0  0.107813  0.122105  0  1.031533  0
H  H9  1  0.94737736  0.90620861  0.91362638  1  0.135835  0  0.107812  0.122104  0  1.031522  0
H  H10  1  0.63603554  0.35821501  0.47471902  1  0.088819  0  0.102473  0.103758  0  1.051885  0
H  H11  1  0.64178399  0.36396368  0.02528068  1  0.088824  0  0.102478  0.103752  0  1.05188  0
H  H12  1  0.36396525  0.64178348  0.52528049  1  0.088858  0  0.102461  0.103746  0  1.051861  0
H  H13  1  0.35821590  0.63603194  0.97471993  1  0.088861  0  0.102445  0.103732  0  1.051906  0
H  H14  1  0.38776142  0.37581459  0.31364779  1  0.061559  0  0.102034  0.110384  0  1.013846  0
H  H15  1  0.62419335  0.61224436  0.18635042  1  0.061778  0  0.102037  0.110397  0  1.013829  0
H  H16  1  0.61224387  0.62419284  0.68635198  1  0.061474  0  0.102018  0.110378  0  1.013812  0
H  H17  1  0.37580648  0.38775932  0.81364762  1  0.061737  0  0.102012  0.110379  0  1.013837  0
H  H18  1  0.28281727  0.40078286  0.39681392  1  0.100112  0  0.103803  0.101983  0  1.015902  0
H  H19  1  0.59921543  0.71718125  0.10318305  1  0.100091  0  0.103782  0.101893  0  1.015987  0
H  H20  1  0.71718440  0.59921939  0.60318529  1  0.100029  0  0.103792  0.101951  0  1.015923  0
H  H21  1  0.40077621  0.28281727  0.89681433  1  0.099987  0  0.103799  0.101963  0  1.015893  0
H  H22  1  0.32940444  0.43453628  0.55791155  1  0.101827  0  0.101393  0.108233  0  1.038465  0
H  H23  1  0.56546156  0.67059249  0.94208809  1  0.101861  0  0.101336  0.108136  0  1.038491  0
H  H24  1  0.67059543  0.56546203  0.44208755  1  0.101815  0  0.101352  0.108181  0  1.038504  0
H  H25  1  0.43453741  0.32940384  0.05791212  1  0.101853  0  0.101368  0.108179  0  1.03851  0
H  H26  1  0.76732898  0.01214989  0.34645796  1  0.097037  0  0.106728  0.126176  0  0.99562  0
H  H27  1  0.98785334  0.23266910  0.15354159  1  0.097066  0  0.106728  0.126155  0  0.995602  0
H  H28  1  0.23266812  0.98785147  0.65354387  1  0.097045  0  0.106723  0.126141  0  0.995654  0
H  H29  1  0.01214929  0.76732705  0.84645908  1  0.09705  0  0.10672  0.126158  0  0.995617  0
H  H30  1  0.29973910  0.70423894  0.60429125  1  0.111238  0  0.12293  0.097738  0  0.979247  0
H  H31  1  0.29576345  0.70026321  0.89570880  1  0.111196  0  0.122901  0.097721  0  0.979243  0
H  H32  1  0.70026260  0.29576062  0.39570830  1  0.111217  0  0.122917  0.097747  0  0.979199  0
H  H33  1  0.70423821  0.29974083  0.10429317  1  0.111227  0  0.12292  0.097716  0  0.979244  0
H  H34  1  0.51292705  0.02949463  0.13344808  1  0.116327  0  0.106101  0.113711  0  1.017271  0
H  H35  1  0.97051406  0.48706904  0.36655445  1  0.116237  0  0.106072  0.113671  0  1.017222  0
H  H36  1  0.48707007  0.97050404  0.86655292  1  0.116322  0  0.106081  0.113684  0  1.017347  0
H  H37  1  0.02949221  0.51292960  0.63344595  1  0.116209  0  0.106074  0.113682  0  1.01733  0
H  H38  1  0.27862118  0.28453775  0.46586830  1  0.14066  0  0.126886  0.129575  0  1.021388  0
H  H39  1  0.71545906  0.72137860  0.03413079  1  0.140645  0  0.126864  0.129504  0  1.021513  0
H  H40  1  0.72137777  0.71546039  0.53412961  1  0.140669  0  0.126885  0.129537  0  1.021461  0
H  H41  1  0.28453716  0.27861900  0.96586901  1  0.140687  0  0.126875  0.129548  0  1.021429  0
H  H42  1  0.82699993  0.87404357  0.24239580  1  0.05619  0  0.101411  0.117011  0  1.0123  0
H  H43  1  0.12595288  0.17299697  0.25760096  1  0.055984  0  0.101422  0.116954  0  1.012286  0
H  H44  1  0.17300259  0.12596781  0.75760790  1  0.056254  0  0.101373  0.116941  0  1.012242  0
H  H45  1  0.87403879  0.82699796  0.74239752  1  0.056196  0  0.101461  0.117055  0  1.012287  0
H  H46  1  0.77601355  0.57086820  0.36414849  1  0.085533  0  0.104491  0.107431  0  1.002503  0
H  H47  1  0.42913277  0.22398621  0.13585063  1  0.085507  0  0.104496  0.107442  0  1.002457  0
H  H48  1  0.22399362  0.42913331  0.63585042  1  0.08554  0  0.104503  0.107418  0  1.002515  0
H  H49  1  0.57086801  0.77601227  0.86415005  1  0.085534  0  0.104501  0.107422  0  1.00251  0
H  H50  1  0.28661240  0.77680119  0.36765373  1  0.086525  0  0.103796  0.107354  0  1.004284  0
H  H51  1  0.22320130  0.71338328  0.13234872  1  0.086617  0  0.103767  0.107333  0  1.004322  0
H  H52  1  0.71338285  0.22320341  0.63234696  1  0.08663  0  0.103766  0.107382  0  1.004294  0
H  H53  1  0.77679308  0.28661577  0.86765184  1  0.086703  0  0.10376  0.107361  0  1.004275  0
H  H54  1  0.87525850  0.95443089  0.15480135  1  0.082171  0  0.104301  0.106086  0  1.00504  0
H  H55  1  0.04556821  0.12473404  0.34519584  1  0.082208  0  0.104262  0.106037  0  1.005032  0
H  H56  1  0.12474402  0.04557959  0.84520272  1  0.082176  0  0.104244  0.106038  0  1.00503  0
H  H57  1  0.95442347  0.87525910  0.65480261  1  0.082174  0  0.10426  0.106062  0  1.005057  0
H  H58  1  0.39045274  0.75295547  0.28454609  1  0.099201  0  0.104926  0.120683  0  1.027396  0
H  H59  1  0.24705185  0.60955101  0.21545635  1  0.099239  0  0.104922  0.120634  0  1.027454  0
H  H60  1  0.60954799  0.24705018  0.71545512  1  0.099251  0  0.104917  0.120681  0  1.02741  0
H  H61  1  0.75294798  0.39045357  0.78454482  1  0.099261  0  0.104906  0.120671  0  1.027422  0
H  H62  1  0.56657874  0.09747667  0.57908499  1  0.101707  0  0.108673  0.113324  0  1.054316  0
H  H63  1  0.90252583  0.43341745  0.92091276  1  0.10174  0  0.108711  0.113374  0  1.054244  0
H  H64  1  0.43342019  0.90252594  0.42091222  1  0.101757  0  0.10869  0.113362  0  1.054271  0
H  H65  1  0.09747405  0.56657997  0.07908632  1  0.101716  0  0.108677  0.113316  0  1.054306  0
H  H66  1  0.63695575  0.63588411  0.29546421  1  0.099865  0  0.101299  0.11711  0  1.044007  0
H  H67  1  0.36411750  0.36304769  0.20453464  1  0.099816  0  0.101297  0.117121  0  1.044007  0
H  H68  1  0.36304866  0.36411867  0.70453585  1  0.099848  0  0.101283  0.117103  0  1.043978  0
H  H69  1  0.63588237  0.63695061  0.79546602  1  0.099801  0  0.10129  0.117118  0  1.044028  0
H  H70  1  0.46438896  0.95297994  0.22234909  1  0.091805  0  0.103765  0.118067  0  0.992565  0
H  H71  1  0.04702853  0.53561114  0.27765317  1  0.091428  0  0.10376  0.118041  0  0.992357  0
H  H72  1  0.53560998  0.04702088  0.77765199  1  0.091097  0  0.103739  0.118002  0  0.992391  0
H  H73  1  0.95297683  0.46438643  0.72234719  1  0.091339  0  0.103795  0.118092  0  0.992535  0
H  H74  1  0.55278718  0.22379428  0.53386134  1  0.09964  0  0.111265  0.100953  0  1.031562  0
H  H75  1  0.77620545  0.44721156  0.96613747  1  0.099723  0  0.111236  0.100924  0  1.031606  0
H  H76  1  0.44721087  0.77620278  0.46613692  1  0.099769  0  0.111221  0.100953  0  1.031557  0
H  H77  1  0.22379533  0.55278692  0.03386204  1  0.099754  0  0.111248  0.100936  0  1.031579  0
H  H78  1  0.44937428  0.25933687  0.58064568  1  0.098241  0  0.11315  0.104391  0  0.981046  0
H  H79  1  0.74066256  0.55062422  0.91935418  1  0.098264  0  0.113203  0.10453  0  0.981034  0
H  H80  1  0.55062652  0.74065982  0.41935340  1  0.098246  0  0.113213  0.10451  0  0.981036  0
H  H81  1  0.25933640  0.44937391  0.08064645  1  0.098204  0  0.11318  0.104491  0  0.981059  0
H  H82  1  0.11294048  0.06910645  0.44149527  1  0.160541  0  0.12379  0.127645  0  1.020523  0
H  H83  1  0.93089086  0.88706000  0.05850373  1  0.160563  0  0.123781  0.127626  0  1.020575  0
H  H84  1  0.88705757  0.93089150  0.55850261  1  0.160584  0  0.123798  0.127634  0  1.020539  0
H  H85  1  0.06910443  0.11294011  0.94149570  1  0.160513  0  0.123782  0.127615  0  1.020542  0
H  H86  1  0.49552103  0.76335890  0.65970742  1  0.080231  0  0.108434  0.111364  0  1.006975  0
H  H87  1  0.23664437  0.50447954  0.84029351  1  0.080066  0  0.108429  0.111372  0  1.007039  0
H  H88  1  0.50448251  0.23663922  0.34028941  1  0.07975  0  0.108454  0.111348  0  1.006967  0
H  H89  1  0.76336280  0.49552107  0.15971202  1  0.079707  0  0.108438  0.11136  0  1.006938  0
H  H90  1  0.63333037  0.96332513  0.64392361  1  0.100448  0  0.113378  0.107989  0  0.970786  0
H  H91  1  0.03668046  0.36666802  0.85607550  1  0.100437  0  0.11337  0.107954  0  0.97075  0
H  H92  1  0.36667132  0.03667443  0.35607282  1  0.100387  0  0.11335  0.107948  0  0.970771  0
H  H93  1  0.96332672  0.63333170  0.14392689  1  0.100367  0  0.113317  0.107914  0  0.970808  0
C  C94  1  0.69692485  0.99584489  0.13871208  1  -0.022486  0  -0.031907  -0.068887  0  4.008282  0
C  C95  1  0.00416226  0.30307255  0.36128738  1  -0.022339  0  -0.03187  -0.068683  0  4.008044  0
C  C96  1  0.30307499  0.00415701  0.86128826  1  -0.022372  0  -0.031958  -0.06892  0  4.008219  0
C  C97  1  0.99583764  0.69692217  0.63871243  1  -0.022377  0  -0.031882  -0.068762  0  4.008147  0
C  C98  1  0.27942312  0.59092342  0.38763411  1  -0.029384  0  -0.024078  -0.054714  0  3.977697  0
C  C99  1  0.40907540  0.72057674  0.11236564  1  -0.029426  0  -0.024143  -0.054848  0  3.977851  0
C  C100  1  0.72057854  0.40907972  0.61236589  1  -0.029398  0  -0.024089  -0.054749  0  3.977868  0
C  C101  1  0.59091624  0.27942088  0.88763328  1  -0.029359  0  -0.024053  -0.054674  0  3.97768  0
C  C102  1  0.64235416  0.90852337  0.23691890  1  0.393529  0  0.089037  0.274552  0  4.052657  0
C  C103  1  0.09147543  0.35764273  0.26308109  1  0.393512  0  0.089062  0.274529  0  4.052625  0
C  C104  1  0.35764658  0.09148138  0.76308307  1  0.393669  0  0.089009  0.27447  0  4.052523  0
C  C105  1  0.90852354  0.64235360  0.73691873  1  0.393225  0  0.089055  0.274566  0  4.052746  0
C  C106  1  0.84869900  0.75487806  0.39377522  1  -0.039894  0  -0.026242  -0.054441  0  3.973344  0
C  C107  1  0.24512388  0.15129858  0.10622450  1  -0.039757  0  -0.026198  -0.054391  0  3.973472  0
C  C108  1  0.15130449  0.24512544  0.60622483  1  -0.039505  0  -0.026245  -0.054446  0  3.973451  0
C  C109  1  0.75487601  0.84869793  0.89377613  1  -0.039595  0  -0.026217  -0.054374  0  3.973371  0
C  C110  1  0.84718185  0.87903639  0.38790006  1  -0.049762  0  -0.086033  -0.076527  0  3.96698  0
C  C111  1  0.12096569  0.15281782  0.11209917  1  -0.049687  0  -0.086031  -0.076596  0  3.966869  0
C  C112  1  0.15281983  0.12096495  0.61210030  1  -0.049299  0  -0.086054  -0.076645  0  3.966966  0
C  C113  1  0.87903509  0.84718156  0.88790074  1  -0.049752  0  -0.086017  -0.076577  0  3.966907  0
C  C114  1  0.57491459  0.41990503  0.48499294  1  -0.070961  0  -0.092677  -0.125711  0  3.980484  0
C  C115  1  0.58009374  0.42508327  0.01500659  1  -0.07103  0  -0.092685  -0.125695  0  3.980457  0
C  C116  1  0.42508529  0.58009238  0.51500653  1  -0.071053  0  -0.092686  -0.125665  0  3.98061  0
C  C117  1  0.41990524  0.57491217  0.98499321  1  -0.070962  0  -0.092643  -0.125659  0  3.980491  0
C  C118  1  0.39492784  0.97322523  0.55788362  1  0.531338  0  0.124548  0.162313  0  4.014622  0
C  C119  1  0.02677338  0.60507114  0.94211704  1  0.531339  0  0.124566  0.162226  0  4.014556  0
C  C120  1  0.60507018  0.02677542  0.44211587  1  0.531401  0  0.124551  0.162325  0  4.014611  0
C  C121  1  0.97322373  0.39493022  0.05788323  1  0.531438  0  0.124565  0.162324  0  4.01455  0
C  C122  1  0.93138819  0.72010589  0.43644770  1  1.587147  0  0.210436  0.584829  0  4.205776  0
C  C123  1  0.27989631  0.06860879  0.06355254  1  1.587159  0  0.210447  0.58491  0  4.205759  0
C  C124  1  0.06861257  0.27989618  0.56355305  1  1.587157  0  0.210427  0.584864  0  4.205782  0
C  C125  1  0.72010358  0.93138772  0.93644886  1  1.587284  0  0.210384  0.584739  0  4.205777  0
C  C126  1  0.36571039  0.46348047  0.32614829  1  -0.013665  0  -0.101362  -0.200926  0  4.002073  0
C  C127  1  0.53652207  0.63429426  0.17385080  1  -0.013685  0  -0.10138  -0.20108  0  4.00229  0
C  C128  1  0.63429402  0.53652231  0.67385176  1  -0.013623  0  -0.101365  -0.201006  0  4.002279  0
C  C129  1  0.46347687  0.36570656  0.82614716  1  -0.013909  0  -0.101373  -0.201047  0  4.002208  0
C  C130  1  0.30783060  0.47783445  0.37239240  1  0.005714  0  -0.077829  -0.059422  0  3.985734  0
C  C131  1  0.52216904  0.69217142  0.12760564  1  0.005646  0  -0.077764  -0.059149  0  3.985769  0
C  C132  1  0.69217287  0.52217263  0.62760694  1  0.005668  0  -0.077812  -0.059304  0  3.985714  0
C  C133  1  0.47782534  0.30782763  0.87239259  1  0.005648  0  -0.077849  -0.059404  0  3.985666  0
C  C134  1  0.33759278  0.04446346  0.52102591  1  0.962217  0  0.207808  0.165128  0  3.999552  0
C  C135  1  0.95553448  0.66240615  0.97897372  1  0.962194  0  0.207768  0.165133  0  3.999518  0
C  C136  1  0.66240524  0.95553718  0.47897280  1  0.962142  0  0.207827  0.165191  0  3.999517  0
C  C137  1  0.04446355  0.33759449  0.02102617  1  0.962157  0  0.207817  0.165088  0  3.999535  0
C  C138  1  0.39359093  0.56233882  0.29443434  1  0.332483  0  0.084397  0.25995  0  4.033441  0
C  C139  1  0.43766430  0.60641666  0.20556731  1  0.332265  0  0.084319  0.259935  0  4.03319  0
C  C140  1  0.60641164  0.43766539  0.70556727  1  0.332492  0  0.084304  0.259873  0  4.0335  0
C  C141  1  0.56233460  0.39358864  0.79443230  1  0.332373  0  0.084364  0.259985  0  4.033336  0
C  C142  1  0.40522679  0.46281315  0.53308837  1  -0.048873  0  -0.090559  -0.123345  0  3.963695  0
C  C143  1  0.53718489  0.59477005  0.96691078  1  -0.048509  0  -0.090527  -0.12325  0  3.963432  0
C  C144  1  0.59477218  0.53718408  0.46691108  1  -0.048466  0  -0.090518  -0.123238  0  3.963499  0
C  C145  1  0.46281317  0.40522522  0.03308901  1  -0.048936  0  -0.090517  -0.123233  0  3.963444  0
C  C146  1  0.76940444  0.91564474  0.35036763  1  -0.018016  0  -0.100894  -0.19661  0  3.997799  0
C  C147  1  0.08435564  0.23059537  0.14963220  1  -0.018015  0  -0.100926  -0.196585  0  3.997731  0
C  C148  1  0.23059450  0.08435608  0.64963384  1  -0.018473  0  -0.100887  -0.196487  0  3.997662  0
C  C149  1  0.91564423  0.76940294  0.85036807  1  -0.017993  0  -0.100918  -0.196587  0  3.997695  0
C  C150  1  0.36147990  0.79108176  0.60036916  1  0.501883  0  0.055519  0.103599  0  3.965353  0
C  C151  1  0.20892095  0.63851872  0.89963166  1  0.502128  0  0.055522  0.103581  0  3.965388  0
C  C152  1  0.63851996  0.20891834  0.39962998  1  0.501885  0  0.055519  0.103565  0  3.965245  0
C  C153  1  0.79107982  0.36148155  0.10037061  1  0.501885  0  0.055557  0.103668  0  3.965293  0
C  C154  1  0.58110564  0.99640278  0.15794326  1  -0.016044  0  -0.079686  -0.060539  0  3.972906  0
C  C155  1  0.00360597  0.41889190  0.34205842  1  -0.015952  0  -0.079748  -0.060696  0  3.97294  0
C  C156  1  0.41889421  0.00359731  0.84205782  1  -0.016131  0  -0.079729  -0.060623  0  3.972999  0
C  C157  1  0.99639940  0.58110568  0.65794194  1  -0.01598  0  -0.079763  -0.060703  0  3.972977  0
C  C158  1  0.27829802  0.19239837  0.47748046  1  0.315905  0  0.014832  -0.085986  0  3.886151  0
C  C159  1  0.80759953  0.72169948  0.02251802  1  0.315985  0  0.014905  -0.08582  0  3.886194  0
C  C160  1  0.72170002  0.80760048  0.52251783  1  0.315957  0  0.014874  -0.08588  0  3.886089  0
C  C161  1  0.19239762  0.27829561  0.97748174  1  0.31603  0  0.014913  -0.085951  0  3.886147  0
C  C162  1  0.69304990  0.82689947  0.31806746  1  0.422184  0  0.077724  0.247672  0  4.056338  0
C  C163  1  0.17310166  0.30694966  0.18193119  1  0.422485  0  0.07771  0.247583  0  4.056508  0
C  C164  1  0.30694995  0.17310242  0.68193366  1  0.422148  0  0.077736  0.24765  0  4.056321  0
C  C165  1  0.82689730  0.69304757  0.81806904  1  0.422436  0  0.077712  0.247593  0  4.056454  0
C  C166  1  0.75865406  0.90830803  0.21857305  1  -0.028331  0  -0.115498  -0.23123  0  4.029471  0
C  C167  1  0.09169195  0.24134377  0.28142362  1  -0.028299  0  -0.115461  -0.231034  0  4.029535  0
C  C168  1  0.24135120  0.09170298  0.78143069  1  -0.028257  0  -0.115441  -0.231082  0  4.029242  0
C  C169  1  0.90830064  0.75865044  0.71857369  1  -0.028206  0  -0.115552  -0.231273  0  4.029758  0
C  C170  1  0.77339067  0.66731000  0.36011525  1  -0.05144  0  -0.086524  -0.081983  0  3.998258  0
C  C171  1  0.33269193  0.22661000  0.13988372  1  -0.051617  0  -0.08652  -0.082033  0  3.998162  0
C  C172  1  0.22661465  0.33269294  0.63988483  1  -0.05181  0  -0.08651  -0.081955  0  3.998362  0
C  C173  1  0.66730978  0.77338777  0.86011618  1  -0.051696  0  -0.086527  -0.082009  0  3.998272  0
C  C174  1  0.30939971  0.68922323  0.35551351  1  -0.0688  0  -0.086324  -0.077253  0  3.997859  0
C  C175  1  0.31078024  0.69060229  0.14448651  1  -0.069177  0  -0.086277  -0.077274  0  3.997898  0
C  C176  1  0.69060195  0.31078081  0.64448612  1  -0.069142  0  -0.08628  -0.07733  0  3.997874  0
C  C177  1  0.68921504  0.30939782  0.85551253  1  -0.069136  0  -0.086219  -0.077211  0  3.997813  0
C  C178  1  0.78498757  0.95247705  0.16971935  1  -0.012747  0  -0.084457  -0.06473  0  3.994267  0
C  C179  1  0.04752615  0.21500888  0.33027740  1  -0.012981  0  -0.084508  -0.064867  0  3.994357  0
C  C180  1  0.21501405  0.04753237  0.83028312  1  -0.012828  0  -0.08439  -0.064668  0  3.994113  0
C  C181  1  0.95246735  0.78498550  0.66972072  1  -0.012967  0  -0.084452  -0.064781  0  3.994349  0
C  C182  1  0.36582771  0.67596442  0.30894173  1  0.024068  0  -0.108241  -0.215294  0  4.025018  0
C  C183  1  0.32403973  0.63417170  0.19105889  1  0.02443  0  -0.108167  -0.215142  0  4.02486  0
C  C184  1  0.63417121  0.32403909  0.69105901  1  0.024447  0  -0.108151  -0.215161  0  4.024752  0
C  C185  1  0.67596012  0.36582840  0.80894063  1  0.024404  0  -0.10821  -0.215277  0  4.024846  0
C  C186  1  0.50794396  0.01111902  0.58566994  1  -0.063881  0  -0.084042  -0.162211  0  3.931397  0
C  C187  1  0.98888321  0.49205536  0.91432937  1  -0.063706  0  -0.08417  -0.162254  0  3.931387  0
C  C188  1  0.49205408  0.98887983  0.41432796  1  -0.06369  0  -0.084075  -0.162259  0  3.931394  0
C  C189  1  0.01112029  0.50794634  0.08567143  1  -0.06386  0  -0.084064  -0.162208  0  3.931398  0
C  C190  1  0.69584756  0.70295160  0.32188808  1  -0.076928  0  -0.107196  -0.207399  0  4.000729  0
C  C191  1  0.29704887  0.30415358  0.17811032  1  -0.076943  0  -0.107221  -0.207348  0  4.0008  0
C  C192  1  0.30415413  0.29704796  0.67811108  1  -0.076966  0  -0.107226  -0.207409  0  4.000792  0
C  C193  1  0.70295193  0.69584401  0.82188956  1  -0.076935  0  -0.107202  -0.207347  0  4.000881  0
C  C194  1  0.55411595  0.95405194  0.20700240  1  -0.038577  0  -0.106911  -0.211255  0  4.005291  0
C  C195  1  0.04595353  0.44588146  0.29299918  1  -0.038037  0  -0.106825  -0.21109  0  4.005079  0
C  C196  1  0.44588114  0.04595121  0.79300025  1  -0.037722  0  -0.106845  -0.211086  0  4.005118  0
C  C197  1  0.95405000  0.55411666  0.70700155  1  -0.038036  0  -0.106876  -0.211171  0  4.00523  0
C  C198  1  0.21730060  0.61038872  0.43710658  1  1.597199  0  0.218755  0.598618  0  4.174563  0
C  C199  1  0.38961089  0.78270063  0.06289416  1  1.59718  0  0.218776  0.598704  0  4.174467  0
C  C200  1  0.78270108  0.38961262  0.56289495  1  1.597168  0  0.218714  0.598553  0  4.174642  0
C  C201  1  0.61038622  0.21729984  0.93710492  1  1.597163  0  0.218766  0.598677  0  4.174696  0
C  C202  1  0.46674863  0.25608724  0.53874945  1  0.241123  0  -0.050303  -0.111932  0  3.874898  0
C  C203  1  0.74391275  0.53324855  0.96124919  1  0.241308  0  -0.050364  -0.112104  0  3.875015  0
C  C204  1  0.53324851  0.74390965  0.46124878  1  0.241254  0  -0.050327  -0.112096  0  3.874881  0
C  C205  1  0.25608804  0.46674903  0.03875070  1  0.241034  0  -0.050296  -0.112021  0  3.874872  0
C  C206  1  0.48060534  0.38154347  0.51811398  1  -0.012349  0  -0.015879  0.079983  0  3.990676  0
C  C207  1  0.61845530  0.51939224  0.98188566  1  -0.012825  0  -0.015853  0.080005  0  3.990643  0
C  C208  1  0.51939453  0.61845483  0.48188512  1  -0.01283  0  -0.015895  0.079929  0  3.99073  0
C  C209  1  0.38154368  0.48060320  0.01811454  1  -0.012331  0  -0.015905  0.07995  0  3.990695  0
C  C210  1  0.19695623  0.08437861  0.46580917  1  0.461723  0  0.016709  0.006177  0  3.954896  0
C  C211  1  0.91562108  0.80304321  0.03418972  1  0.461399  0  0.016729  0.00615  0  3.954939  0
C  C212  1  0.80304089  0.91562096  0.53418951  1  0.46152  0  0.016712  0.006205  0  3.954906  0
C  C213  1  0.08437696  0.19695564  0.96580974  1  0.46138  0  0.016637  0.006119  0  3.954916  0
C  C214  1  0.47037752  0.82421649  0.63080738  1  -0.057621  0  -0.085171  -0.137752  0  3.983102  0
C  C215  1  0.17579182  0.52962102  0.86919379  1  -0.057503  0  -0.085222  -0.137855  0  3.983217  0
C  C216  1  0.52962508  0.17578414  0.36919065  1  -0.057471  0  -0.085243  -0.137818  0  3.983113  0
C  C217  1  0.82421719  0.47037815  0.13081019  1  -0.057501  0  -0.085242  -0.137856  0  3.983151  0
C  C218  1  0.54554191  0.93515233  0.62224391  1  -0.024627  0  -0.064604  -0.017151  0  3.98148  0
C  C219  1  0.06485508  0.45445919  0.87775541  1  -0.024763  0  -0.064515  -0.017022  0  3.981324  0
C  C220  1  0.45445977  0.06484902  0.37775333  1  -0.024577  0  -0.064554  -0.017054  0  3.981386  0
C  C221  1  0.93515300  0.54554249  0.12224626  1  -0.024367  0  -0.064527  -0.017044  0  3.981435  0
C  C222  1  0.73026955  0.04515739  0.08749410  1  1.521243  0  0.201674  0.568123  0  4.179657  0
C  C223  1  0.95484757  0.26972869  0.41250603  1  1.521337  0  0.201671  0.567897  0  4.179922  0
C  C224  1  0.26973305  0.95484234  0.91250820  1  1.5213  0  0.201649  0.568027  0  4.179774  0
C  C225  1  0.04515322  0.73026889  0.58749385  1  1.521252  0  0.201723  0.568041  0  4.179767  0
N  N226  1  0.32552216  0.86220291  0.56449357  1  -1.212724  0  -0.308616  -0.271863  0  3.453941  0
N  N227  1  0.13779842  0.67447807  0.93550553  1  -1.212911  0  -0.308543  -0.271736  0  3.453768  0
N  N228  1  0.67447587  0.13779594  0.43550589  1  -1.212667  0  -0.308606  -0.271849  0  3.453903  0
N  N229  1  0.86220141  0.32552561  0.06449407  1  -1.212579  0  -0.308615  -0.271863  0  3.453927  0
N  N230  1  0.36668968  0.16627576  0.51205972  1  -1.21861  0  -0.225874  0.021943  0  3.711269  0
N  N231  1  0.83372118  0.63330695  0.98793966  1  -1.219047  0  -0.225853  0.021909  0  3.711163  0
N  N232  1  0.63330745  0.83372201  0.48793932  1  -1.218976  0  -0.225846  0.021962  0  3.711078  0
N  N233  1  0.16627597  0.36668903  0.01206012  1  -1.218696  0  -0.225908  0.022012  0  3.711139  0
N  N234  1  0.23455952  0.99426902  0.49295756  1  -1.206086  0  -0.340462  -0.303651  0  3.532163  0
N  N235  1  0.00572951  0.76543641  0.00704186  1  -1.205675  0  -0.34047  -0.303609  0  3.532098  0
N  N236  1  0.76543577  0.00572930  0.50704145  1  -1.205778  0  -0.340488  -0.303732  0  3.532181  0
N  N237  1  0.99426853  0.23456244  0.99295760  1  -1.205698  0  -0.340399  -0.303536  0  3.532072  0
O  O238  1  0.15185987  0.51872758  0.45565884  1  -1.176796  0  -0.307418  -0.553044  0  2.339064  0
O  O239  1  0.48127083  0.84813721  0.04434058  1  -1.176639  0  -0.307408  -0.553038  0  2.339123  0
O  O240  1  0.84813909  0.48127055  0.54434063  1  -1.176718  0  -0.307364  -0.552919  0  2.339085  0
O  O241  1  0.51872720  0.15186343  0.95565931  1  -1.176728  0  -0.307382  -0.552977  0  2.339049  0
O  O242  1  0.45620230  0.54380839  0.25000104  1  -1.111791  0  -0.154924  -0.225796  0  2.57193  0
O  O243  1  0.54380116  0.45620047  0.74999951  1  -1.111801  0  -0.154882  -0.225761  0  2.572124  0
O  O244  1  0.91582346  0.60869356  0.44772227  1  -1.174647  0  -0.311602  -0.565212  0  2.313379  0
O  O245  1  0.39131057  0.08417152  0.05227856  1  -1.174702  0  -0.311606  -0.56526  0  2.313261  0
O  O246  1  0.08417364  0.39130870  0.55227958  1  -1.174682  0  -0.311615  -0.56527  0  2.313339  0
O  O247  1  0.60868929  0.91582768  0.94772056  1  -1.174857  0  -0.311587  -0.565197  0  2.31339  0
O  O248  1  0.60648709  0.86171666  0.28367270  1  -1.098568  0  -0.157358  -0.230438  0  2.590377  0
O  O249  1  0.13828394  0.39351097  0.21632693  1  -1.098804  0  -0.157358  -0.230447  0  2.590354  0
O  O250  1  0.39351184  0.13828505  0.71632917  1  -1.098894  0  -0.157318  -0.230421  0  2.590325  0
O  O251  1  0.86171685  0.60648572  0.78367371  1  -1.098626  0  -0.157349  -0.230432  0  2.590363  0
O  O252  1  0.23861226  0.72069581  0.45623950  1  -1.197017  0  -0.323992  -0.570682  0  2.410175  0
O  O253  1  0.27930185  0.76138580  0.04376132  1  -1.197052  0  -0.324023  -0.570745  0  2.410031  0
O  O254  1  0.76138761  0.27930249  0.54376116  1  -1.197002  0  -0.324019  -0.570716  0  2.41004  0
O  O255  1  0.72069530  0.23861019  0.95623728  1  -1.196967  0  -0.324073  -0.57081  0  2.410194  0
O  O256  1  0.00931963  0.80884594  0.45737295  1  -1.185916  0  -0.32153  -0.540665  0  2.381082  0
O  O257  1  0.19115467  0.99067881  0.04262625  1  -1.185952  0  -0.321538  -0.54069  0  2.381134  0
O  O258  1  0.99068206  0.19115451  0.54262740  1  -1.185996  0  -0.321484  -0.540589  0  2.381055  0
O  O259  1  0.80884523  0.00931591  0.95737550  1  -1.185911  0  -0.321506  -0.540585  0  2.381078  0
O  O260  1  0.65230031  0.08452177  0.05731157  1  -1.196263  0  -0.319836  -0.584866  0  2.339067  0
O  O261  1  0.91548233  0.34769822  0.44268762  1  -1.196236  0  -0.319838  -0.584762  0  2.339232  0
O  O262  1  0.34770139  0.91547689  0.94268913  1  -1.196353  0  -0.319821  -0.584841  0  2.339203  0
O  O263  1  0.08451936  0.65230133  0.55731193  1  -1.196215  0  -0.319853  -0.584781  0  2.339185  0
O  O264  1  0.84117133  0.05489068  0.07513058  1  -1.156549  0  -0.310661  -0.537584  0  2.278646  0
O  O265  1  0.94511451  0.15882729  0.42486935  1  -1.156599  0  -0.310662  -0.537523  0  2.27878  0
O  O266  1  0.15882853  0.94510852  0.92487088  1  -1.156533  0  -0.310609  -0.537534  0  2.278695  0
O  O267  1  0.05488535  0.84117191  0.57513093  1  -1.156561  0  -0.310669  -0.537581  0  2.27867  0
