# generated using pymatgen
data_Ca2H10C14O11
_symmetry_space_group_name_H-M   'P 1'
_cell_length_a   6.34397324
_cell_length_b   9.13265397
_cell_length_c   14.32016823
_cell_angle_alpha   102.07765468
_cell_angle_beta   103.79849994
_cell_angle_gamma   93.37825309
_symmetry_Int_Tables_number   1
_chemical_formula_structural   Ca2H10C14O11
_chemical_formula_sum   'Ca4 H20 C28 O22'
_cell_volume   782.70214492
_cell_formula_units_Z   2
loop_
 _symmetry_equiv_pos_site_id
 _symmetry_equiv_pos_as_xyz
  1  'x, y, z'
loop_
 _atom_site_type_symbol
 _atom_site_label
 _atom_site_symmetry_multiplicity
 _atom_site_fract_x
 _atom_site_fract_y
 _atom_site_fract_z
 _atom_site_occupancy
 _atom_site_hle17_bader_spin_density
 _atom_site_hle17_ddec_charge
 _atom_site_hle17_ddec_spin_density
 _atom_site_hle17_ddec_sum_bond_order
 _atom_site_hle17_magmom
 _atom_site_hse06_10hf_bader_spin_density
 _atom_site_hse06_10hf_ddec_charge
 _atom_site_hse06_10hf_ddec_spin_density
 _atom_site_hse06_10hf_ddec_sum_bond_order
 _atom_site_hse06_10hf_magmom
 _atom_site_hse06_bader_spin_density
 _atom_site_hse06_ddec_charge
 _atom_site_hse06_ddec_spin_density
 _atom_site_hse06_ddec_sum_bond_order
 _atom_site_hse06_magmom
 _atom_site_pbe_bader_spin_density
 _atom_site_pbe_cm5_charge
 _atom_site_pbe_ddec_charge
 _atom_site_pbe_ddec_spin_density
 _atom_site_pbe_ddec_sum_bond_order
 _atom_site_pbe_magmom
Ca  Ca0  1  0.25779417  0.08168386  0.85539524  1  0  1.518329  0  1.135794  0  0  1.384559  0  1.485743  0  0  1.42977  0  1.442428  0  0  0.885265  1.350282  0  1.517273  0
Ca  Ca1  1  0.74220523  0.91831496  0.14460419  1  0  1.518323  0  1.135781  0  0  1.384564  0  1.485727  0  0  1.429775  0  1.442407  0  0  0.88526  1.350282  0  1.51727  0
Ca  Ca2  1  0.24291178  0.17620324  0.15263594  1  0  1.555313  0  1.058197  0  0  1.422714  0  1.402059  0  0  1.46625  0  1.358925  0  0  0.900092  1.38925  0  1.43436  0
Ca  Ca3  1  0.75708763  0.82379558  0.84736349  1  0  1.555335  0  1.058176  0  0  1.422723  0  1.402057  0  0  1.466262  0  1.358921  0  0  0.900085  1.389255  0  1.434351  0
H  H4  1  0.34261278  0.73790339  0.16209959  1  0  0.119539  0  0.968945  0  0  0.123805  0  1.042528  0  0  0.128524  0  1.037925  0  0  0.117464  0.120946  0  1.044981  0
H  H5  1  0.65739151  0.26209542  0.83790174  1  0  0.119534  0  0.968924  0  0  0.123811  0  1.042493  0  0  0.128532  0  1.037887  0  0  0.117452  0.120937  0  1.044962  0
H  H6  1  0.45239794  0.53073584  0.23317234  1  0  0.403213  0  0.883109  0  0  0.375607  0  0.95724  0  0  0.386664  0  0.944485  0  0  0.308364  0.367589  0  0.96671  0
H  H7  1  0.54760471  0.46926296  0.76682812  1  0  0.403139  0  0.883246  0  0  0.37559  0  0.957276  0  0  0.386647  0  0.944516  0  0  0.308356  0.367566  0  0.966763  0
H  H8  1  0.23046653  0.35180372  0.77735171  1  0  0.385028  0  0.907262  0  0  0.355211  0  0.983726  0  0  0.366996  0  0.971024  0  0  0.303914  0.347007  0  0.992402  0
H  H9  1  0.76953470  0.64819621  0.22264946  1  0  0.385022  0  0.907282  0  0  0.355204  0  0.983752  0  0  0.366991  0  0.971047  0  0  0.303907  0.346999  0  0.992428  0
H  H10  1  0.15871378  0.62177627  0.84273132  1  0  0.109302  0  0.948087  0  0  0.117496  0  1.016359  0  0  0.121832  0  1.012093  0  0  0.114018  0.114832  0  1.019067  0
H  H11  1  0.84128563  0.37822255  0.15726880  1  0  0.10924  0  0.948135  0  0  0.117457  0  1.016387  0  0  0.121792  0  1.012123  0  0  0.114012  0.114795  0  1.019099  0
H  H12  1  0.27727323  0.92051054  0.54383206  1  0  0.104657  0  0.948514  0  0  0.115508  0  1.010554  0  0  0.118937  0  1.008506  0  0  0.103169  0.113047  0  1.012288  0
H  H13  1  0.72272980  0.07949053  0.45616805  1  0  0.104635  0  0.948528  0  0  0.115508  0  1.010545  0  0  0.118935  0  1.008499  0  0  0.103173  0.113047  0  1.012282  0
H  H14  1  0.11379115  0.79245555  0.28252579  1  0  0.379447  0  0.860366  0  0  0.352831  0  0.937473  0  0  0.363598  0  0.924665  0  0  0.316498  0.345264  0  0.946506  0
H  H15  1  0.88621044  0.20754665  0.71747363  1  0  0.379466  0  0.860353  0  0  0.352851  0  0.937454  0  0  0.363619  0  0.924646  0  0  0.316517  0.345283  0  0.946486  0
H  H16  1  0.21293967  0.41426590  0.35288651  1  0  0.406702  0  0.794801  0  0  0.3985  0  0.836263  0  0  0.405624  0  0.829015  0  0  0.352585  0.391539  0  0.84444  0
H  H17  1  0.78705707  0.58573630  0.64711380  1  0  0.406588  0  0.79494  0  0  0.398406  0  0.836373  0  0  0.405531  0  0.829125  0  0  0.352551  0.391444  0  0.844548  0
H  H18  1  0.28056604  0.38473155  0.52025103  1  0  0.111678  0  0.95339  0  0  0.117501  0  1.021411  0  0  0.12241  0  1.01689  0  0  0.095811  0.113958  0  1.024903  0
H  H19  1  0.71943214  0.61526952  0.47974997  1  0  0.111665  0  0.953431  0  0  0.117489  0  1.021449  0  0  0.1224  0  1.016925  0  0  0.095771  0.113943  0  1.024944  0
H  H20  1  0.27238854  0.76654510  0.70324934  1  0  0.439703  0  0.809355  0  0  0.422794  0  0.861773  0  0  0.430992  0  0.850669  0  0  0.339397  0.415683  0  0.870854  0
H  H21  1  0.72760964  0.23345596  0.29675167  1  0  0.439707  0  0.809378  0  0  0.422799  0  0.861791  0  0  0.430996  0  0.850668  0  0  0.339401  0.415689  0  0.870871  0
H  H22  1  0.38213530  0.92813638  0.70322540  1  0  0.436536  0  0.865215  0  0  0.402581  0  0.934935  0  0  0.414398  0  0.917673  0  0  0.310395  0.393635  0  0.947898  0
H  H23  1  0.61786573  0.07186244  0.29677420  1  0  0.43652  0  0.86524  0  0  0.402562  0  0.934964  0  0  0.41438  0  0.9177  0  0  0.31037  0.393617  0  0.947926  0
C  C24  1  0.25196254  0.85631724  0.00180710  1  0  0.710312  0  3.862858  0  0  0.658878  0  4.154357  0  0  0.696715  0  4.141112  0  0  0.250059  0.629835  0  4.166826  0
C  C25  1  0.74803687  0.14368157  0.99819303  1  0  0.710391  0  3.862849  0  0  0.658939  0  4.154363  0  0  0.696774  0  4.141124  0  0  0.250098  0.629895  0  4.166834  0
C  C26  1  0.25276207  0.69664040  0.00250916  1  0  -0.095238  0  3.882156  0  0  -0.07569  0  4.134261  0  0  -0.08479  0  4.156399  0  0  -0.026855  -0.068198  0  4.118313  0
C  C27  1  0.74724201  0.30335728  0.99749060  1  0  -0.095363  0  3.882292  0  0  -0.075776  0  4.134381  0  0  -0.08487  0  4.156501  0  0  -0.026836  -0.06828  0  4.118423  0
C  C28  1  0.30638889  0.65278580  0.09287436  1  0  -0.205852  0  3.762385  0  0  -0.246692  0  4.032151  0  0  -0.246787  0  4.049028  0  0  -0.102024  -0.246744  0  4.01996  0
C  C29  1  0.69361395  0.34721414  0.90712558  1  0  -0.205784  0  3.762358  0  0  -0.246615  0  4.032134  0  0  -0.24671  0  4.049014  0  0  -0.101975  -0.246653  0  4.019948  0
C  C30  1  0.30295133  0.50106441  0.09293781  1  0  0.211364  0  3.824293  0  0  0.205368  0  4.087407  0  0  0.209887  0  4.105756  0  0  0.064921  0.202349  0  4.074292  0
C  C31  1  0.69704970  0.49893441  0.90706178  1  0  0.211424  0  3.82418  0  0  0.205325  0  4.087454  0  0  0.209841  0  4.105805  0  0  0.064915  0.202309  0  4.074334  0
C  C32  1  0.24908153  0.38810466  0.00392975  1  0  0.166605  0  3.929204  0  0  0.152437  0  4.181703  0  0  0.161454  0  4.202161  0  0  0.073622  0.146854  0  4.165667  0
C  C33  1  0.75091750  0.61189190  0.99607003  1  0  0.166617  0  3.929146  0  0  0.152495  0  4.181666  0  0  0.161518  0  4.202113  0  0  0.07363  0.146912  0  4.165629  0
C  C34  1  0.19997085  0.43704985  0.91425808  1  0  0.218157  0  3.821319  0  0  0.21193  0  4.081876  0  0  0.216341  0  4.10058  0  0  0.06696  0.208767  0  4.068786  0
C  C35  1  0.80002856  0.56294897  0.08574205  1  0  0.218141  0  3.821186  0  0  0.211885  0  4.081806  0  0  0.216294  0  4.100513  0  0  0.066943  0.208721  0  4.068719  0
C  C36  1  0.19795854  0.58778506  0.91287184  1  0  -0.185992  0  3.767526  0  0  -0.23011  0  4.042095  0  0  -0.229494  0  4.058531  0  0  -0.098757  -0.230578  0  4.029998  0
C  C37  1  0.80204068  0.41221263  0.08712741  1  0  -0.18587  0  3.767487  0  0  -0.230006  0  4.042065  0  0  -0.229393  0  4.058508  0  0  -0.098743  -0.230479  0  4.029977  0
C  C38  1  0.33418323  0.20873194  0.65269102  1  0  0.693105  0  3.824172  0  0  0.635895  0  4.127716  0  0  0.672558  0  4.115674  0  0  0.22193  0.610684  0  4.134891  0
C  C39  1  0.66581493  0.79126913  0.34730859  1  0  0.693094  0  3.824221  0  0  0.635803  0  4.127887  0  0  0.672466  0  4.115848  0  0  0.221908  0.610588  0  4.135067  0
C  C40  1  0.28604033  0.15847217  0.54432148  1  0  -0.067772  0  3.830484  0  0  -0.051638  0  4.082353  0  0  -0.061104  0  4.106851  0  0  -0.039328  -0.045612  0  4.065453  0
C  C41  1  0.71396108  0.84152890  0.45567916  1  0  -0.067723  0  3.830463  0  0  -0.051569  0  4.082357  0  0  -0.061034  0  4.106857  0  0  -0.039313  -0.045546  0  4.065462  0
C  C42  1  0.25601627  0.00408755  0.49931067  1  0  -0.166481  0  3.756761  0  0  -0.201777  0  4.01646  0  0  -0.202889  0  4.038042  0  0  -0.100496  -0.200375  0  4.001468  0
C  C43  1  0.74398514  0.99591352  0.50068927  1  0  -0.166499  0  3.75673  0  0  -0.201784  0  4.01643  0  0  -0.202897  0  4.038015  0  0  -0.100498  -0.200383  0  4.001441  0
C  C44  1  0.19601962  0.95490937  0.39728524  1  0  0.217877  0  3.828091  0  0  0.208268  0  4.098069  0  0  0.213003  0  4.116389  0  0  0.064165  0.204645  0  4.085831  0
C  C45  1  0.80398198  0.04509283  0.60271488  1  0  0.217921  0  3.827962  0  0  0.208257  0  4.098045  0  0  0.212992  0  4.11636  0  0  0.064161  0.204634  0  4.085807  0
C  C46  1  0.16191029  0.05898568  0.33587043  1  0  0.141313  0  3.962829  0  0  0.124659  0  4.226296  0  0  0.13391  0  4.245309  0  0  0.061926  0.118547  0  4.212879  0
C  C47  1  0.83808788  0.94101539  0.66412987  1  0  0.141407  0  3.962653  0  0  0.124695  0  4.226192  0  0  0.133951  0  4.245197  0  0  0.061907  0.118584  0  4.212773  0
C  C48  1  0.19816680  0.21408093  0.38320503  1  0  0.170901  0  3.865097  0  0  0.160415  0  4.145059  0  0  0.164541  0  4.16312  0  0  0.047001  0.157592  0  4.131678  0
C  C49  1  0.80182975  0.78592015  0.61679511  1  0  0.170751  0  3.865163  0  0  0.160335  0  4.145077  0  0  0.164459  0  4.163135  0  0  0.047024  0.157514  0  4.131692  0
C  C50  1  0.25810205  0.26476018  0.48509707  1  0  -0.217648  0  3.807932  0  0  -0.256758  0  4.077422  0  0  -0.256715  0  4.094851  0  0  -0.124284  -0.255885  0  4.064453  0
C  C51  1  0.74189612  0.73524090  0.51490323  1  0  -0.217612  0  3.808053  0  0  -0.256741  0  4.077505  0  0  -0.256703  0  4.094937  0  0  -0.124272  -0.255869  0  4.064538  0
O  O52  1  0.13541562  0.89393781  0.92572929  1  0  -0.773381  0  2.03103  0  0  -0.705855  0  2.296062  0  0  -0.734324  0  2.28285  0  0  -0.411696  -0.687176  0  2.307844  0
O  O53  1  0.86458522  0.10605988  0.07427083  1  0  -0.773399  0  2.030975  0  0  -0.705886  0  2.296039  0  0  -0.734354  0  2.282826  0  0  -0.41172  -0.687207  0  2.307822  0
O  O54  1  0.36894447  0.95557141  0.07671361  1  0  -0.759343  0  1.994043  0  0  -0.687307  0  2.248652  0  0  -0.716173  0  2.236781  0  0  -0.400912  -0.668094  0  2.25931  0
O  O55  1  0.63105331  0.04442741  0.92328565  1  0  -0.759361  0  1.993997  0  0  -0.687331  0  2.248635  0  0  -0.716199  0  2.236768  0  0  -0.400945  -0.668117  0  2.25929  0
O  O56  1  0.35161667  0.44980032  0.17912888  1  0  -0.597669  0  2.150773  0  0  -0.53698  0  2.37675  0  0  -0.556959  0  2.367039  0  0  -0.388918  -0.52227  0  2.384016  0
O  O57  1  0.64838435  0.55019850  0.82087072  1  0  -0.597655  0  2.150855  0  0  -0.536965  0  2.376824  0  0  -0.556943  0  2.367113  0  0  -0.388925  -0.522255  0  2.384087  0
O  O58  1  0.24827166  0.24343347  0.00422577  1  0  -0.744344  0  2.060207  0  0  -0.682745  0  2.319215  0  0  -0.712254  0  2.318054  0  0  -0.453846  -0.657812  0  2.318444  0
O  O59  1  0.75172775  0.75656534  0.99577436  1  0  -0.744374  0  2.060207  0  0  -0.682791  0  2.319228  0  0  -0.712303  0  2.31806  0  0  -0.453854  -0.657855  0  2.318455  0
O  O60  1  0.15666327  0.32440361  0.82910177  1  0  -0.6097  0  2.240315  0  0  -0.543486  0  2.468783  0  0  -0.563755  0  2.458713  0  0  -0.397773  -0.528167  0  2.474832  0
O  O61  1  0.84333815  0.67559745  0.17089887  1  0  -0.609704  0  2.240292  0  0  -0.543469  0  2.468733  0  0  -0.563732  0  2.458645  0  0  -0.397764  -0.528146  0  2.474782  0
O  O62  1  0.34579185  0.35129714  0.69199900  1  0  -0.666163  0  1.984729  0  0  -0.606229  0  2.206779  0  0  -0.629479  0  2.192485  0  0  -0.331299  -0.590116  0  2.218133  0
O  O63  1  0.65420975  0.64870506  0.30800182  1  0  -0.666162  0  1.984749  0  0  -0.606169  0  2.206842  0  0  -0.629411  0  2.192531  0  0  -0.331268  -0.590057  0  2.218193  0
O  O64  1  0.35335076  0.11067631  0.70578035  1  0  -0.722487  0  2.026214  0  0  -0.655908  0  2.274951  0  0  -0.682993  0  2.263106  0  0  -0.358308  -0.635478  0  2.282137  0
O  O65  1  0.64665370  0.88932363  0.29421975  1  0  -0.722476  0  2.026292  0  0  -0.655885  0  2.275078  0  0  -0.682974  0  2.263235  0  0  -0.358305  -0.635451  0  2.282264  0
O  O66  1  0.16811127  0.80432061  0.35443591  1  0  -0.49233  0  2.08659  0  0  -0.446163  0  2.295606  0  0  -0.463153  0  2.287197  0  0  -0.358316  -0.434403  0  2.303421  0
O  O67  1  0.83189032  0.19568159  0.64556351  1  0  -0.492359  0  2.086586  0  0  -0.446171  0  2.295622  0  0  -0.463158  0  2.287208  0  0  -0.358333  -0.434413  0  2.303438  0
O  O68  1  0.10014469  0.01179318  0.23814885  1  0  -0.751018  0  2.038268  0  0  -0.683753  0  2.29382  0  0  -0.711887  0  2.289858  0  0  -0.454931  -0.662385  0  2.295647  0
O  O69  1  0.89985367  0.98820902  0.76185163  1  0  -0.751089  0  2.03823  0  0  -0.683781  0  2.293782  0  0  -0.711914  0  2.289819  0  0  -0.454945  -0.662412  0  2.295606  0
O  O70  1  0.16527595  0.30980440  0.31732676  1  0  -0.569733  0  2.134059  0  0  -0.517273  0  2.347525  0  0  -0.532907  0  2.336344  0  0  -0.366732  -0.505214  0  2.357433  0
O  O71  1  0.83472240  0.69019780  0.68267302  1  0  -0.569562  0  2.13418  0  0  -0.517132  0  2.347611  0  0  -0.532769  0  2.336427  0  0  -0.366694  -0.505075  0  2.357514  0
O  O72  1  0.39210040  0.84448601  0.73946836  1  0  -0.873934  0  1.780817  0  0  -0.818613  0  1.964442  0  0  -0.838774  0  1.934423  0  0  -0.583074  -0.803812  0  1.987404  0
O  O73  1  0.60789921  0.15551393  0.26053194  1  0  -0.873923  0  1.78085  0  0  -0.818604  0  1.964483  0  0  -0.838766  0  1.934445  0  0  -0.583058  -0.8038  0  1.987447  0
