# generated using pymatgen
data_ZnH11C9N2ClO2
_symmetry_space_group_name_H-M   'P 1'
_cell_length_a   10.30886337
_cell_length_b   17.55739017
_cell_length_c   17.55567199
_cell_angle_alpha   119.99647373
_cell_angle_beta   90.00002895
_cell_angle_gamma   89.99993989
_symmetry_Int_Tables_number   1
_chemical_formula_structural   ZnH11C9N2ClO2
_chemical_formula_sum   'Zn6 H66 C54 N12 Cl6 O12'
_cell_volume   2751.91024134
_cell_formula_units_Z   6
loop_
 _symmetry_equiv_pos_site_id
 _symmetry_equiv_pos_as_xyz
  1  'x, y, z'
loop_
 _atom_site_type_symbol
 _atom_site_label
 _atom_site_symmetry_multiplicity
 _atom_site_fract_x
 _atom_site_fract_y
 _atom_site_fract_z
 _atom_site_occupancy
 _atom_site_pbe_bader_charge
 _atom_site_pbe_bader_spin_density
 _atom_site_pbe_cm5_charge
 _atom_site_pbe_ddec_charge
 _atom_site_pbe_ddec_spin_density
 _atom_site_pbe_ddec_sum_bond_order
 _atom_site_pbe_magmom
Zn  Zn0  1  0.90916299  0.53730841  0.45712873  1  1.190759  0  0.609169  0.71607  0  2.493413  0
Zn  Zn1  1  0.74235826  0.45712095  0.91981862  1  1.191655  0  0.60915  0.715775  0  2.492103  0
Zn  Zn2  1  0.57577575  0.91984138  0.46273001  1  1.192401  0  0.609695  0.71659  0  2.491886  0
Zn  Zn3  1  0.40916229  0.46269105  0.54287061  1  1.190762  0  0.609183  0.716125  0  2.493356  0
Zn  Zn4  1  0.24235799  0.54287829  0.08018105  1  1.191703  0  0.609157  0.71578  0  2.492098  0
Zn  Zn5  1  0.07577476  0.08015886  0.53726990  1  1.192409  0  0.609685  0.71656  0  2.491931  0
H  H6  1  0.95590061  0.56763419  0.90058596  1  0.123665  0  0.118969  0.093622  0  1.01937  0
H  H7  1  0.78895732  0.90069262  0.33289535  1  0.117472  0  0.118818  0.093356  0  1.02008  0
H  H8  1  0.62237209  0.33283028  0.43229419  1  0.122762  0  0.118527  0.092887  0  1.018964  0
H  H9  1  0.45590055  0.43236695  0.09941508  1  0.123679  0  0.118975  0.093653  0  1.019342  0
H  H10  1  0.28895640  0.09930748  0.66710455  1  0.117489  0  0.118824  0.093343  0  1.02012  0
H  H11  1  0.12237395  0.66716912  0.56770426  1  0.122754  0  0.118517  0.092846  0  1.018971  0
H  H12  1  0.01221840  0.61683060  0.79289454  1  0.072129  0  0.115573  0.126729  0  0.980925  0
H  H13  1  0.84540198  0.79299615  0.17609441  1  0.086213  0  0.115846  0.127563  0  0.981012  0
H  H14  1  0.67867134  0.17600272  0.38315039  1  0.086703  0  0.116038  0.127937  0  0.98027  0
H  H15  1  0.51222014  0.38316935  0.20710570  1  0.0721  0  0.115581  0.126771  0  0.980896  0
H  H16  1  0.34540197  0.20700392  0.82390550  1  0.086228  0  0.115835  0.127533  0  0.981009  0
H  H17  1  0.17867199  0.82399689  0.61684895  1  0.086904  0  0.116038  0.127935  0  0.980245  0
H  H18  1  0.67145409  0.47805165  0.64517663  1  0.135289  0  0.106594  0.12343  0  1.026699  0
H  H19  1  0.50487766  0.64514533  0.16721309  1  0.114545  0  0.107112  0.124582  0  1.026261  0
H  H20  1  0.33795780  0.16715224  0.52202507  1  0.124444  0  0.106323  0.123656  0  1.026447  0
H  H21  1  0.17145409  0.52194853  0.35482328  1  0.135302  0  0.106599  0.123415  0  1.026673  0
H  H22  1  0.00487837  0.35485528  0.83278649  1  0.114561  0  0.107099  0.124557  0  1.026277  0
H  H23  1  0.83795799  0.83284808  0.47797573  1  0.124464  0  0.106306  0.123603  0  1.026508  0
H  H24  1  0.63033034  0.43493388  0.75833576  1  0.147268  0  0.123408  0.10248  0  0.997165  0
H  H25  1  0.46370432  0.75828166  0.32346951  1  0.139167  0  0.123442  0.102532  0  0.995734  0
H  H26  1  0.29684742  0.32340420  0.56509719  1  0.139952  0  0.123807  0.102863  0  0.995966  0
H  H27  1  0.13033017  0.56506657  0.24166505  1  0.147274  0  0.123408  0.102503  0  0.997127  0
H  H28  1  0.96370477  0.24171923  0.67653064  1  0.139158  0  0.123439  0.102518  0  0.995751  0
H  H29  1  0.79684786  0.67659533  0.43490215  1  0.139952  0  0.123808  0.102847  0  0.99596  0
H  H30  1  0.80178453  0.61962462  0.64011238  1  0.086417  0  0.122887  0.120402  0  0.943266  0
H  H31  1  0.63518682  0.64016661  0.02052390  1  0.104152  0  0.122952  0.120305  0  0.942952  0
H  H32  1  0.46841939  0.02039267  0.38031068  1  0.078953  0  0.122639  0.120293  0  0.94285  0
H  H33  1  0.30178381  0.38037604  0.35988810  1  0.086416  0  0.122888  0.120398  0  0.943268  0
H  H34  1  0.13518668  0.35983359  0.97947601  1  0.104145  0  0.122944  0.12031  0  0.942943  0
H  H35  1  0.96841847  0.97960700  0.61968955  1  0.078933  0  0.122663  0.120321  0  0.942805  0
H  H36  1  0.97063827  0.60943496  0.65400647  1  0.070421  0  0.111555  0.093862  0  0.975663  0
H  H37  1  0.80402406  0.65402765  0.04463740  1  0.05697  0  0.111409  0.09389  0  0.975401  0
H  H38  1  0.63723333  0.04461360  0.39060697  1  0.071409  0  0.111548  0.093801  0  0.975807  0
H  H39  1  0.47063752  0.39056560  0.34599400  1  0.070429  0  0.111556  0.093856  0  0.97569  0
H  H40  1  0.30402392  0.34597211  0.95536284  1  0.056975  0  0.111407  0.0939  0  0.975403  0
H  H41  1  0.13723374  0.95538660  0.60939293  1  0.071406  0  0.111548  0.093797  0  0.975798  0
H  H42  1  0.99211798  0.42990005  0.60022845  1  0.066845  0  0.107539  0.070643  0  0.969141  0
H  H43  1  0.82532428  0.60022128  0.17034642  1  0.062338  0  0.107421  0.070456  0  0.968811  0
H  H44  1  0.65856348  0.17031748  0.57010159  1  0.063169  0  0.10776  0.071756  0  0.968434  0
H  H45  1  0.49211793  0.57009993  0.39977145  1  0.066856  0  0.107522  0.070637  0  0.96911  0
H  H46  1  0.32532491  0.39977881  0.82965349  1  0.062332  0  0.107437  0.070461  0  0.968785  0
H  H47  1  0.15856300  0.82968238  0.42989865  1  0.06308  0  0.107766  0.071758  0  0.968412  0
H  H48  1  0.85029541  0.32042062  0.48191566  1  0.011712  0  0.085337  0.117634  0  1.015827  0
H  H49  1  0.68354832  0.48196343  0.16157962  1  0.015831  0  0.085871  0.118325  0  1.016035  0
H  H50  1  0.51688740  0.16149408  0.67962426  1  0.036897  0  0.085678  0.118192  0  1.01577  0
H  H51  1  0.35029430  0.67957969  0.51808514  1  0.01171  0  0.085308  0.117615  0  1.01585  0
H  H52  1  0.18354875  0.51803585  0.83842005  1  0.015839  0  0.085874  0.11832  0  1.016039  0
H  H53  1  0.01688680  0.83850497  0.32037574  1  0.036881  0  0.085678  0.118186  0  1.015771  0
H  H54  1  0.01595999  0.29222856  0.45705624  1  0.102565  0  0.088467  0.147962  0  1.014449  0
H  H55  1  0.84920192  0.45710334  0.16492108  1  0.097007  0  0.088488  0.148446  0  1.015109  0
H  H56  1  0.68257589  0.16483737  0.70777307  1  0.097924  0  0.088655  0.148529  0  1.015078  0
H  H57  1  0.51595949  0.70777171  0.54294367  1  0.102566  0  0.088461  0.147962  0  1.014445  0
H  H58  1  0.34920132  0.54289616  0.83507825  1  0.096998  0  0.088481  0.148389  0  1.015113  0
H  H59  1  0.18257528  0.83516247  0.29222716  1  0.097931  0  0.088659  0.148523  0  1.015065  0
H  H60  1  0.92971536  0.34010622  0.40263545  1  0.042015  0  0.08338  0.12885  0  1.026455  0
H  H61  1  0.76297224  0.40265924  0.06263747  1  0.070836  0  0.083395  0.128737  0  1.026824  0
H  H62  1  0.59633755  0.06255219  0.65994514  1  0.073543  0  0.083394  0.128522  0  1.027005  0
H  H63  1  0.42971533  0.65989380  0.59736445  1  0.042002  0  0.083398  0.128905  0  1.026453  0
H  H64  1  0.26297164  0.59734056  0.93736276  1  0.070836  0  0.083394  0.128729  0  1.026828  0
H  H65  1  0.09633680  0.93744713  0.34005453  1  0.073557  0  0.083391  0.128504  0  1.027059  0
H  H66  1  0.78905285  0.47121013  0.53409911  1  0.4783  0  0.290967  0.248806  0  1.001277  0
H  H67  1  0.62235914  0.53408878  0.06284510  1  0.48435  0  0.290349  0.248773  0  1.001166  0
H  H68  1  0.45560326  0.06282454  0.52878575  1  0.473035  0  0.291076  0.249417  0  1.000866  0
H  H69  1  0.28905293  0.52878965  0.46590113  1  0.478295  0  0.290976  0.248827  0  1.001332  0
H  H70  1  0.12235974  0.46591086  0.93715424  1  0.48435  0  0.290337  0.24875  0  1.001175  0
H  H71  1  0.95560326  0.93717489  0.47121359  1  0.473026  0  0.291077  0.249401  0  1.000897  0
C  C72  1  0.89609575  0.54973804  0.84285342  1  0.492662  0  0.044461  0.085618  0  3.953481  0
C  C73  1  0.72918743  0.84294262  0.29309319  1  0.455828  0  0.044333  0.085778  0  3.956523  0
C  C74  1  0.56249162  0.29301557  0.45018543  1  0.461101  0  0.046028  0.087496  0  3.953801  0
C  C75  1  0.39609571  0.45026224  0.15714738  1  0.492685  0  0.044461  0.085597  0  3.95346  0
C  C76  1  0.22918741  0.15705785  0.70690638  1  0.455822  0  0.04433  0.085779  0  3.956569  0
C  C77  1  0.06249243  0.70698354  0.54981334  1  0.461113  0  0.046013  0.087458  0  3.953832  0
C  C78  1  0.92618825  0.57664293  0.78264933  1  -0.066318  0  -0.081978  -0.187145  0  3.958952  0
C  C79  1  0.75936827  0.78272517  0.20601114  1  -0.066961  0  -0.082614  -0.188131  0  3.959525  0
C  C80  1  0.59260170  0.20592421  0.42330951  1  -0.028218  0  -0.083475  -0.189551  0  3.960201  0
C  C81  1  0.42619025  0.42335644  0.21735123  1  -0.066365  0  -0.081985  -0.187208  0  3.958949  0
C  C82  1  0.25936725  0.21727529  0.79398844  1  -0.066879  0  -0.082613  -0.188129  0  3.959497  0
C  C83  1  0.09260238  0.79407578  0.57668950  1  -0.028483  0  -0.083458  -0.189499  0  3.960158  0
C  C84  1  0.84690986  0.55052307  0.70905884  1  -0.00574  0  0.013047  0.142288  0  3.947266  0
C  C85  1  0.68023932  0.70905855  0.15857289  1  -0.001707  0  0.014336  0.142647  0  3.946868  0
C  C86  1  0.51335054  0.15846938  0.44946553  1  -0.02227  0  0.013774  0.142177  0  3.947902  0
C  C87  1  0.34691091  0.44947757  0.29094164  1  -0.005684  0  0.013032  0.142239  0  3.947358  0
C  C88  1  0.18023724  0.29094105  0.84142645  1  -0.001851  0  0.014342  0.142682  0  3.946857  0
C  C89  1  0.01335013  0.84153033  0.55053381  1  -0.022195  0  0.01376  0.1421  0  3.947947  0
C  C90  1  0.73874279  0.49841967  0.69978518  1  -0.021596  0  -0.079133  -0.164406  0  3.919968  0
C  C91  1  0.57213431  0.69977335  0.20143642  1  -0.012397  0  -0.080636  -0.166123  0  3.92201  0
C  C92  1  0.40522415  0.20134915  0.50159586  1  0.035567  0  -0.078647  -0.163883  0  3.920177  0
C  C93  1  0.23874278  0.50158047  0.30021473  1  -0.021602  0  -0.079138  -0.164388  0  3.919997  0
C  C94  1  0.07213412  0.30022722  0.79856316  1  -0.012373  0  -0.08068  -0.166176  0  3.922085  0
C  C95  1  0.90522442  0.79865032  0.49840348  1  0.035341  0  -0.078629  -0.163789  0  3.920225  0
C  C96  1  0.71478967  0.47395388  0.76230027  1  0.444655  0  0.05387  0.107272  0  3.910088  0
C  C97  1  0.54812389  0.76228467  0.28840122  1  0.471729  0  0.054402  0.10837  0  3.909312  0
C  C98  1  0.38129225  0.28832443  0.52606676  1  0.42477  0  0.053393  0.107142  0  3.909246  0
C  C99  1  0.21479053  0.52604594  0.23769996  1  0.44465  0  0.053853  0.107224  0  3.910128  0
C  C100  1  0.04812373  0.23771592  0.71159836  1  0.471712  0  0.054471  0.108421  0  3.909376  0
C  C101  1  0.88129362  0.71167472  0.47393290  1  0.424982  0  0.053432  0.107166  0  3.909244  0
C  C102  1  0.87703632  0.57501907  0.63990713  1  0.257749  0  -0.060628  -0.088546  0  3.903163  0
C  C103  1  0.71040173  0.63992077  0.06492397  1  0.266798  0  -0.061119  -0.089146  0  3.903126  0
C  C104  1  0.54357994  0.06483861  0.42496871  1  0.26406  0  -0.060952  -0.089048  0  3.903996  0
C  C105  1  0.37703649  0.42498098  0.36009277  1  0.257735  0  -0.060619  -0.088474  0  3.9032  0
C  C106  1  0.21040155  0.36007939  0.93507594  1  0.266629  0  -0.061148  -0.089217  0  3.903096  0
C  C107  1  0.04358036  0.93516132  0.57503153  1  0.26409  0  -0.060949  -0.089037  0  3.903928  0
C  C108  1  0.98024564  0.43207862  0.53890986  1  0.281181  0  -0.003455  0.046452  0  3.8597  0
C  C109  1  0.81351893  0.53889603  0.10685847  1  0.285476  0  -0.003348  0.046737  0  3.860574  0
C  C110  1  0.64677271  0.10682233  0.56793039  1  0.261052  0  -0.005861  0.04261  0  3.863407  0
C  C111  1  0.48024565  0.56792193  0.46109062  1  0.280163  0  -0.003498  0.0464  0  3.859627  0
C  C112  1  0.31351950  0.46110317  0.89314120  1  0.285472  0  -0.003338  0.046838  0  3.860455  0
C  C113  1  0.14677309  0.89317786  0.43206952  1  0.260939  0  -0.005838  0.042663  0  3.863413  0
C  C114  1  0.11234489  0.45980982  0.51982025  1  1.575519  0  0.212217  0.578529  0  4.133458  0
C  C115  1  0.94569160  0.51991171  0.06014604  1  1.594608  0  0.21385  0.580287  0  4.130578  0
C  C116  1  0.77892407  0.06008348  0.54016031  1  1.577534  0  0.213745  0.580898  0  4.129099  0
C  C117  1  0.61234366  0.54019007  0.48017999  1  1.575509  0  0.212224  0.578552  0  4.133409  0
C  C118  1  0.44569121  0.48008797  0.93985420  1  1.59459  0  0.213778  0.58013  0  4.130847  0
C  C119  1  0.27892439  0.93991630  0.45983993  1  1.577721  0  0.213723  0.580871  0  4.129128  0
C  C120  1  0.94191848  0.34053297  0.46506779  1  -0.070696  0  -0.243867  -0.400523  0  3.893373  0
C  C121  1  0.77515881  0.46510076  0.12461476  1  -0.094683  0  -0.244888  -0.402114  0  3.896007  0
C  C122  1  0.60850567  0.12454020  0.65949293  1  -0.115336  0  -0.243708  -0.400679  0  3.896009  0
C  C123  1  0.44191839  0.65946785  0.53493358  1  -0.06969  0  -0.2438  -0.400509  0  3.893305  0
C  C124  1  0.27515924  0.53489936  0.87538515  1  -0.094674  0  -0.24488  -0.402053  0  3.895906  0
C  C125  1  0.10850502  0.87545936  0.34050764  1  -0.115337  0  -0.243741  -0.400688  0  3.896123  0
N  N126  1  0.88126184  0.49767567  0.55021953  1  -1.102126  0  -0.48493  -0.34349  0  3.532001  0
N  N127  1  0.71459335  0.55021214  0.05252520  1  -1.128883  0  -0.484246  -0.343051  0  3.531323  0
N  N128  1  0.54781711  0.05249507  0.50231673  1  -1.091902  0  -0.484484  -0.343206  0  3.533277  0
N  N129  1  0.38126098  0.50232495  0.44978094  1  -1.102124  0  -0.484927  -0.343537  0  3.531993  0
N  N130  1  0.21459399  0.44978858  0.94747527  1  -1.128686  0  -0.484216  -0.343019  0  3.531261  0
N  N131  1  0.04781647  0.94750462  0.49768261  1  -1.091891  0  -0.484493  -0.343203  0  3.533292  0
N  N132  1  0.79245391  0.49876568  0.83277318  1  -1.257092  0  -0.328721  -0.217577  0  3.555768  0
N  N133  1  0.62565421  0.83281479  0.33402548  1  -1.246886  0  -0.328511  -0.217975  0  3.558692  0
N  N134  1  0.45892345  0.33395813  0.50121045  1  -1.270944  0  -0.329109  -0.218339  0  3.556705  0
N  N135  1  0.29245379  0.50123500  0.16722729  1  -1.257095  0  -0.328722  -0.217531  0  3.555778  0
N  N136  1  0.12565318  0.16718598  0.66597499  1  -1.246882  0  -0.328508  -0.217898  0  3.558703  0
N  N137  1  0.95892396  0.66604073  0.49878831  1  -1.270971  0  -0.329125  -0.218273  0  3.556763  0
Cl  Cl138  1  0.91554685  0.44069096  0.31408975  1  -0.670793  0  -0.37049  -0.541551  0  1.061203  0
Cl  Cl139  1  0.74901187  0.31410317  0.87342103  1  -0.667682  0  -0.370346  -0.541509  0  1.06093  0
Cl  Cl140  1  0.58223630  0.87339094  0.55932127  1  -0.670096  0  -0.370324  -0.541569  0  1.061171  0
Cl  Cl141  1  0.41554609  0.55930907  0.68591015  1  -0.670777  0  -0.370482  -0.541554  0  1.061197  0
Cl  Cl142  1  0.24901332  0.68589729  0.12657855  1  -0.667688  0  -0.370362  -0.541535  0  1.060914  0
Cl  Cl143  1  0.08223708  0.12660897  0.44067897  1  -0.670094  0  -0.37032  -0.541566  0  1.061192  0
O  O144  1  0.21039550  0.42207566  0.52934537  1  -1.191796  0  -0.31957  -0.548542  0  2.340966  0
O  O145  1  0.04369401  0.52956296  0.10750244  1  -1.195212  0  -0.320326  -0.548921  0  2.340282  0
O  O146  1  0.87694746  0.10736491  0.57791752  1  -1.197179  0  -0.319732  -0.548972  0  2.339511  0
O  O147  1  0.71039517  0.57792417  0.47065487  1  -1.191769  0  -0.319593  -0.548564  0  2.340948  0
O  O148  1  0.54369424  0.47043877  0.89249828  1  -1.195163  0  -0.320272  -0.54883  0  2.340383  0
O  O149  1  0.37694686  0.89263514  0.42208238  1  -1.197177  0  -0.319733  -0.548966  0  2.339515  0
O  O150  1  0.11419081  0.51690247  0.49512632  1  -1.192889  0  -0.314764  -0.55865  0  2.289504  0
O  O151  1  0.94770097  0.49519138  0.97835973  1  -1.201745  0  -0.315303  -0.559744  0  2.287405  0
O  O152  1  0.78087592  0.97832832  0.48300233  1  -1.188305  0  -0.315525  -0.559593  0  2.286618  0
O  O153  1  0.61419068  0.48309741  0.50487392  1  -1.1929  0  -0.314764  -0.558666  0  2.2895  0
O  O154  1  0.44770071  0.50480593  0.02163945  1  -1.201748  0  -0.31529  -0.559727  0  2.28753  0
O  O155  1  0.28087404  0.02167179  0.51699757  1  -1.188309  0  -0.315523  -0.559606  0  2.286619  0
