# generated using pymatgen
data_CdH13C12(NO2)3
_symmetry_space_group_name_H-M   'P 1'
_cell_length_a   7.74418299
_cell_length_b   9.16173234
_cell_length_c   10.31713200
_cell_angle_alpha   107.54437166
_cell_angle_beta   90.25990256
_cell_angle_gamma   95.99105315
_symmetry_Int_Tables_number   1
_chemical_formula_structural   CdH13C12(NO2)3
_chemical_formula_sum   'Cd2 H26 C24 N6 O12'
_cell_volume   693.63949259
_cell_formula_units_Z   2
loop_
 _symmetry_equiv_pos_site_id
 _symmetry_equiv_pos_as_xyz
  1  'x, y, z'
loop_
 _atom_site_type_symbol
 _atom_site_label
 _atom_site_symmetry_multiplicity
 _atom_site_fract_x
 _atom_site_fract_y
 _atom_site_fract_z
 _atom_site_occupancy
 _atom_site_pbe_bader_spin_density
 _atom_site_pbe_cm5_charge
 _atom_site_pbe_ddec_charge
 _atom_site_pbe_ddec_spin_density
 _atom_site_pbe_ddec_sum_bond_order
 _atom_site_pbe_magmom
Cd  Cd0  1  0.30833475  0.19821404  0.59927659  1  0  0.785858  1.006493  0  2.072905  0
Cd  Cd1  1  0.69165856  0.80178177  0.40072365  1  0  0.785855  1.006542  0  2.07287  0
H  H2  1  0.11670955  0.83694137  0.81317676  1  0  0.350159  0.309788  0  0.878621  0
H  H3  1  0.88329960  0.16306325  0.18682038  1  0  0.350148  0.309705  0  0.87858  0
H  H4  1  0.97101114  0.96518628  0.66535708  1  0  0.137767  0.109567  0  1.067723  0
H  H5  1  0.02898771  0.03482216  0.33464620  1  0  0.137786  0.109586  0  1.06773  0
H  H6  1  0.65832157  0.43695968  0.45080440  1  0  0.108864  0.129465  0  1.028387  0
H  H7  1  0.34168878  0.56304118  0.54918712  1  0  0.108831  0.129424  0  1.028474  0
H  H8  1  0.09657392  0.52366463  0.83624320  1  0  0.107374  0.126648  0  1.001478  0
H  H9  1  0.90342978  0.47633897  0.16375539  1  0  0.107379  0.126625  0  1.001536  0
H  H10  1  0.75404681  0.55792340  0.00335954  1  0  0.105129  0.117133  0  1.010905  0
H  H11  1  0.24596164  0.44206371  0.99662986  1  0  0.105103  0.117123  0  1.010868  0
H  H12  1  0.67507647  0.73963224  0.08390078  1  0  0.101587  0.130693  0  1.039686  0
H  H13  1  0.32492942  0.26036123  0.91609960  1  0  0.101678  0.130832  0  1.039578  0
H  H14  1  0.84302778  0.72744697  0.96614305  1  0  0.09814  0.112621  0  1.015172  0
H  H15  1  0.15697325  0.27255162  0.03384750  1  0  0.098148  0.112624  0  1.015143  0
H  H16  1  0.45772271  0.72961586  0.75425000  1  0  0.108499  0.132623  0  1.024849  0
H  H17  1  0.54227121  0.27038455  0.24575128  1  0  0.108531  0.132649  0  1.02481  0
H  H18  1  0.64643336  0.84629038  0.84149134  1  0  0.107638  0.128634  0  0.985549  0
H  H19  1  0.35356200  0.15370456  0.15851368  1  0  0.10767  0.128672  0  0.98549  0
H  H20  1  0.45577085  0.82860102  0.93429704  1  0  0.104908  0.122194  0  0.980105  0
H  H21  1  0.54423376  0.17139626  0.06570993  1  0  0.104908  0.122184  0  0.979996  0
H  H22  1  0.59013266  0.40228610  0.84481671  1  0  0.121872  0.049912  0  1.024725  0
H  H23  1  0.40987990  0.59770717  0.15518105  1  0  0.121866  0.049894  0  1.024703  0
H  H24  1  0.60752313  0.14536525  0.76717260  1  0  0.279189  0.383223  0  0.961377  0
H  H25  1  0.39246822  0.85463390  0.23282632  1  0  0.279204  0.383346  0  0.96121  0
H  H26  1  0.48184807  0.00091815  0.67393626  1  0  0.278489  0.371776  0  0.979672  0
H  H27  1  0.51814767  0.99908691  0.32606710  1  0  0.278444  0.371731  0  0.979728  0
C  C28  1  0.94272476  0.84431237  0.65753381  1  0  0.165914  0.202733  0  3.912488  0
C  C29  1  0.05726924  0.15569052  0.34247093  1  0  0.165876  0.202672  0  3.912707  0
C  C30  1  0.84011616  0.60189422  0.59615295  1  0  0.087237  0.138397  0  4.042614  0
C  C31  1  0.15989071  0.39811143  0.40384236  1  0  0.087238  0.1385  0  4.04252  0
C  C32  1  0.75165227  0.45659380  0.53509804  1  0  -0.082041  -0.152077  0  3.932336  0
C  C33  1  0.24835431  0.54341462  0.46490564  1  0  -0.082042  -0.152118  0  3.932553  0
C  C34  1  0.78803352  0.33552049  0.58337151  1  0  -0.028645  -0.088249  0  3.990327  0
C  C35  1  0.21197328  0.66447861  0.41662820  1  0  -0.028693  -0.088353  0  3.990506  0
C  C36  1  0.91026772  0.36037317  0.69311770  1  0  -0.015098  -0.051749  0  3.978659  0
C  C37  1  0.08973324  0.63962140  0.30688170  1  0  -0.014972  -0.051583  0  3.978634  0
C  C38  1  0.00091724  0.50538955  0.75357712  1  0  -0.09328  -0.198152  0  3.984659  0
C  C39  1  0.99908213  0.49461595  0.24641485  1  0  -0.093247  -0.198025  0  3.984807  0
C  C40  1  0.96382067  0.62461307  0.70397164  1  0  0.097131  0.148343  0  4.048235  0
C  C41  1  0.03618810  0.37539592  0.29602255  1  0  0.097112  0.148164  0  4.048239  0
C  C42  1  0.93818572  0.23597111  0.75672104  1  0  0.204077  0.596125  0  4.225965  0
C  C43  1  0.06180835  0.76402918  0.24327827  1  0  0.20407  0.596123  0  4.225992  0
C  C44  1  0.72332480  0.66646432  0.98949828  1  0  -0.142782  -0.293859  0  3.929204  0
C  C45  1  0.27669003  0.33352918  0.01050353  1  0  -0.142838  -0.29405  0  3.929259  0
C  C46  1  0.53368359  0.76701135  0.85040803  1  0  -0.132679  -0.26562  0  3.86371  0
C  C47  1  0.46630806  0.23299136  0.14959363  1  0  -0.132695  -0.265702  0  3.863914  0
C  C48  1  0.52916947  0.49000742  0.81267960  1  0  0.16968  0.291182  0  4.113799  0
C  C49  1  0.47083528  0.50998059  0.18732438  1  0  0.169579  0.291067  0  4.113944  0
C  C50  1  0.70228533  0.17699265  0.51038476  1  0  0.202699  0.567455  0  4.22241  0
C  C51  1  0.29771716  0.82301342  0.48961722  1  0  0.202717  0.567507  0  4.222199  0
N  N52  1  0.83163688  0.74162328  0.56995542  1  0  -0.349102  -0.35289  0  3.431238  0
N  N53  1  0.16836438  0.25837359  0.43004449  1  0  -0.34908  -0.352848  0  3.431027  0
N  N54  1  0.02476630  0.77950273  0.74024720  1  0  -0.374587  -0.269101  0  3.590416  0
N  N55  1  0.97524111  0.22049436  0.25975696  1  0  -0.37459  -0.26896  0  3.590409  0
N  N56  1  0.59351302  0.63428545  0.87940336  1  0  -0.281958  0.033154  0  3.728205  0
N  N57  1  0.40649779  0.36570437  0.12059356  1  0  -0.281927  0.033358  0  3.728489  0
O  O58  1  0.08661753  0.18487682  0.74633728  1  0  -0.32967  -0.56587  0  2.28347  0
O  O59  1  0.91337670  0.81512589  0.25366452  1  0  -0.329723  -0.565963  0  2.283502  0
O  O60  1  0.81685658  0.19599230  0.82504789  1  0  -0.345353  -0.587677  0  2.124219  0
O  O61  1  0.18313501  0.80401962  0.17495578  1  0  -0.345349  -0.587681  0  2.124182  0
O  O62  1  0.48249932  0.10733803  0.74025453  1  0  -0.597431  -0.774691  0  2.054222  0
O  O63  1  0.51749301  0.89266134  0.25974839  1  0  -0.597422  -0.774786  0  2.054193  0
O  O64  1  0.41068831  0.45416593  0.72115912  1  0  -0.309181  -0.478385  0  2.365015  0
O  O65  1  0.58931305  0.54584130  0.27884306  1  0  -0.309171  -0.478388  0  2.36517  0
O  O66  1  0.78105370  0.06305539  0.51282881  1  0  -0.310541  -0.535195  0  2.279847  0
O  O67  1  0.21893583  0.93694544  0.48717914  1  0  -0.310592  -0.535277  0  2.279836  0
O  O68  1  0.55669461  0.16692065  0.44628730  1  0  -0.329857  -0.594652  0  2.303467  0
O  O69  1  0.44330780  0.83308548  0.55371567  1  0  -0.329807  -0.594586  0  2.303377  0
