# generated using pymatgen
data_ZnH10(C5N2)2
_symmetry_space_group_name_H-M   'P 1'
_cell_length_a   7.29884432
_cell_length_b   11.65647146
_cell_length_c   13.56825890
_cell_angle_alpha   86.78396092
_cell_angle_beta   74.45567409
_cell_angle_gamma   71.73777355
_symmetry_Int_Tables_number   1
_chemical_formula_structural   ZnH10(C5N2)2
_chemical_formula_sum   'Zn4 H40 C40 N16'
_cell_volume   1055.64114424
_cell_formula_units_Z   4
loop_
 _symmetry_equiv_pos_site_id
 _symmetry_equiv_pos_as_xyz
  1  'x, y, z'
loop_
 _atom_site_type_symbol
 _atom_site_label
 _atom_site_symmetry_multiplicity
 _atom_site_fract_x
 _atom_site_fract_y
 _atom_site_fract_z
 _atom_site_occupancy
 _atom_site_hle17_bader_spin_density
 _atom_site_hle17_ddec_charge
 _atom_site_hle17_ddec_spin_density
 _atom_site_hle17_ddec_sum_bond_order
 _atom_site_hle17_magmom
 _atom_site_hse06_10hf_bader_spin_density
 _atom_site_hse06_10hf_ddec_charge
 _atom_site_hse06_10hf_ddec_spin_density
 _atom_site_hse06_10hf_ddec_sum_bond_order
 _atom_site_hse06_10hf_magmom
 _atom_site_hse06_bader_spin_density
 _atom_site_hse06_ddec_charge
 _atom_site_hse06_ddec_spin_density
 _atom_site_hse06_ddec_sum_bond_order
 _atom_site_hse06_magmom
 _atom_site_pbe_bader_spin_density
 _atom_site_pbe_cm5_charge
 _atom_site_pbe_ddec_charge
 _atom_site_pbe_ddec_spin_density
 _atom_site_pbe_ddec_sum_bond_order
 _atom_site_pbe_magmom
Zn  Zn0  1  0.27698136  0.66886535  0.87703737  1  0  0.838064  0  2.179155  0  0  0.654059  0  2.6483  0  0  0.691884  0  2.604858  0  0  0.661053  0.628339  0  2.677892  0
Zn  Zn1  1  0.82281713  0.83084617  0.62243113  1  0  0.839204  0  2.179639  0  0  0.655215  0  2.648738  0  0  0.692924  0  2.605449  0  0  0.662106  0.62957  0  2.67824  0
Zn  Zn2  1  0.72301770  0.33113638  0.12296609  1  0  0.838024  0  2.179314  0  0  0.654017  0  2.648505  0  0  0.691838  0  2.605065  0  0  0.661054  0.628295  0  2.678082  0
Zn  Zn3  1  0.17718457  0.16913929  0.37757205  1  0  0.839236  0  2.179581  0  0  0.655267  0  2.648673  0  0  0.692979  0  2.605379  0  0  0.662105  0.629616  0  2.678191  0
H  H4  1  0.44385781  0.82094393  0.98145703  1  0  0.07499  0  0.958393  0  0  0.084107  0  1.024311  0  0  0.086183  0  1.022352  0  0  0.114754  0.082491  0  1.025865  0
H  H5  1  0.24647114  0.67871511  0.51780589  1  0  0.075608  0  0.957683  0  0  0.08406  0  1.024114  0  0  0.08613  0  1.022167  0  0  0.114297  0.082459  0  1.025668  0
H  H6  1  0.55614708  0.17907041  0.01854436  1  0  0.07502  0  0.958345  0  0  0.084075  0  1.024328  0  0  0.086168  0  1.022347  0  0  0.114777  0.082463  0  1.025879  0
H  H7  1  0.75352744  0.32128198  0.48219186  1  0  0.075509  0  0.957693  0  0  0.083978  0  1.024118  0  0  0.086049  0  1.022168  0  0  0.114261  0.082376  0  1.025683  0
H  H8  1  0.31190184  0.97275395  0.12881521  1  0  0.102943  0  0.937485  0  0  0.11684  0  0.989032  0  0  0.11948  0  0.989259  0  0  0.108728  0.114916  0  0.989105  0
H  H9  1  0.41290203  0.52729295  0.37006792  1  0  0.103729  0  0.937091  0  0  0.117162  0  0.989163  0  0  0.119915  0  0.989267  0  0  0.108155  0.115171  0  0.989317  0
H  H10  1  0.68809099  0.02725864  0.87118911  1  0  0.102901  0  0.937543  0  0  0.11681  0  0.989068  0  0  0.119449  0  0.989299  0  0  0.108709  0.114894  0  0.989131  0
H  H11  1  0.58709721  0.47271215  0.62992381  1  0  0.103719  0  0.937047  0  0  0.117174  0  0.989105  0  0  0.119945  0  0.989188  0  0  0.10817  0.115178  0  0.989263  0
H  H12  1  0.94834308  0.03030182  0.21988108  1  0  0.099828  0  0.948844  0  0  0.111847  0  1.005705  0  0  0.113289  0  1.00574  0  0  0.10991  0.110728  0  1.005795  0
H  H13  1  0.19722891  0.46999751  0.27919172  1  0  0.100066  0  0.949543  0  0  0.112249  0  1.006322  0  0  0.113701  0  1.006327  0  0  0.10962  0.111133  0  1.0064  0
H  H14  1  0.05164993  0.96970173  0.78012324  1  0  0.099789  0  0.948879  0  0  0.111825  0  1.005712  0  0  0.113261  0  1.00575  0  0  0.109875  0.110705  0  1.005804  0
H  H15  1  0.80276345  0.53000320  0.72080617  1  0  0.100126  0  0.949511  0  0  0.112296  0  1.006323  0  0  0.113741  0  1.006323  0  0  0.109621  0.111177  0  1.0064  0
H  H16  1  0.73225241  0.92834224  0.16580548  1  0  0.10883  0  0.938175  0  0  0.122312  0  0.99164  0  0  0.125333  0  0.991193  0  0  0.109727  0.120122  0  0.992176  0
H  H17  1  0.82518886  0.57167007  0.33374990  1  0  0.110034  0  0.936998  0  0  0.122996  0  0.990956  0  0  0.126011  0  0.99051  0  0  0.110031  0.12085  0  0.991427  0
H  H18  1  0.26775224  0.07165764  0.83419617  1  0  0.10886  0  0.938092  0  0  0.122319  0  0.991581  0  0  0.12534  0  0.991136  0  0  0.109724  0.120133  0  0.992118  0
H  H19  1  0.17480222  0.42832717  0.66625521  1  0  0.11004  0  0.936994  0  0  0.123005  0  0.990953  0  0  0.126018  0  0.990508  0  0  0.110027  0.120852  0  0.991426  0
H  H20  1  0.71607120  0.76415978  0.06862621  1  0  0.076607  0  0.919481  0  0  0.092616  0  0.982427  0  0  0.09409  0  0.980913  0  0  0.10537  0.091549  0  0.98358  0
H  H21  1  0.54809945  0.73594735  0.43117766  1  0  0.076906  0  0.919843  0  0  0.093012  0  0.982485  0  0  0.094423  0  0.980998  0  0  0.105522  0.091979  0  0.983631  0
H  H22  1  0.28393641  0.23584543  0.93137130  1  0  0.07661  0  0.91938  0  0  0.09261  0  0.982343  0  0  0.094082  0  0.98083  0  0  0.105393  0.091547  0  0.983504  0
H  H23  1  0.45189813  0.26404624  0.56882562  1  0  0.076959  0  0.919777  0  0  0.093078  0  0.982441  0  0  0.094492  0  0.98095  0  0  0.105553  0.092039  0  0.983583  0
H  H24  1  0.82397066  0.79424172  0.93930505  1  0  0.084223  0  0.924265  0  0  0.100519  0  0.98791  0  0  0.100757  0  0.988495  0  0  0.110367  0.100389  0  0.987473  0
H  H25  1  0.55773006  0.70565443  0.56039857  1  0  0.084342  0  0.925438  0  0  0.100619  0  0.988986  0  0  0.100857  0  0.989514  0  0  0.110203  0.100477  0  0.988603  0
H  H26  1  0.17603741  0.20576352  0.06069340  1  0  0.084216  0  0.92433  0  0  0.100525  0  0.98796  0  0  0.100762  0  0.988545  0  0  0.110382  0.100398  0  0.98753  0
H  H27  1  0.44226495  0.29434279  0.43960548  1  0  0.084292  0  0.925345  0  0  0.100612  0  0.988922  0  0  0.100852  0  0.989448  0  0  0.110158  0.100462  0  0.98854  0
H  H28  1  0.85212858  0.57824270  0.13708312  1  0  0.0544  0  0.934924  0  0  0.069301  0  1.001103  0  0  0.069989  0  1.000787  0  0  0.093841  0.068789  0  1.001351  0
H  H29  1  0.56652553  0.92213247  0.36285765  1  0  0.054669  0  0.935312  0  0  0.069861  0  1.001675  0  0  0.070563  0  1.00137  0  0  0.094157  0.06933  0  1.00193  0
H  H30  1  0.14787407  0.42176167  0.86291690  1  0  0.054402  0  0.935002  0  0  0.069277  0  1.001187  0  0  0.069965  0  1.000871  0  0  0.093853  0.068768  0  1.001436  0
H  H31  1  0.43347021  0.07786197  0.63714279  1  0  0.054705  0  0.935331  0  0  0.06991  0  1.001672  0  0  0.070612  0  1.001367  0  0  0.094162  0.069377  0  1.001928  0
H  H32  1  0.08481466  0.60881828  0.11980991  1  0  0.075829  0  0.956106  0  0  0.089454  0  1.023363  0  0  0.08986  0  1.023897  0  0  0.101276  0.089106  0  1.023058  0
H  H33  1  0.81282068  0.89122514  0.37996823  1  0  0.075221  0  0.955837  0  0  0.089212  0  1.023  0  0  0.089682  0  1.023473  0  0  0.101252  0.088822  0  1.022736  0
H  H34  1  0.91519219  0.39118511  0.88018643  1  0  0.075804  0  0.956053  0  0  0.089409  0  1.023334  0  0  0.089816  0  1.023869  0  0  0.101243  0.089063  0  1.023026  0
H  H35  1  0.18717459  0.10876928  0.62003127  1  0  0.075203  0  0.955801  0  0  0.089214  0  1.02294  0  0  0.089682  0  1.023417  0  0  0.101239  0.088826  0  1.022666  0
H  H36  1  0.87737104  0.60972580  0.86051502  1  0  0.066004  0  0.949385  0  0  0.082394  0  1.013881  0  0  0.081653  0  1.015905  0  0  0.09949  0.082891  0  1.012488  0
H  H37  1  0.34803224  0.89014148  0.63929267  1  0  0.066349  0  0.948146  0  0  0.082734  0  1.012737  0  0  0.081979  0  1.014756  0  0  0.099854  0.08325  0  1.011366  0
H  H38  1  0.12263944  0.39027668  0.13948099  1  0  0.065985  0  0.949357  0  0  0.082305  0  1.01394  0  0  0.081561  0  1.015967  0  0  0.099449  0.082803  0  1.012553  0
H  H39  1  0.65196512  0.10985561  0.36070486  1  0  0.066375  0  0.94812  0  0  0.082728  0  1.012715  0  0  0.081973  0  1.014731  0  0  0.099861  0.083248  0  1.011341  0
H  H40  1  0.72724436  0.57755306  0.97868569  1  0  0.0755  0  0.947991  0  0  0.091585  0  1.009779  0  0  0.091691  0  1.01121  0  0  0.099072  0.091401  0  1.00894  0
H  H41  1  0.28346316  0.92263519  0.52113933  1  0  0.076658  0  0.947978  0  0  0.092623  0  1.009993  0  0  0.092777  0  1.011336  0  0  0.099356  0.092424  0  1.009212  0
H  H42  1  0.27276157  0.42245122  0.02130971  1  0  0.075492  0  0.948057  0  0  0.091588  0  1.009817  0  0  0.091694  0  1.011251  0  0  0.099075  0.091402  0  1.008985  0
H  H43  1  0.71653829  0.07736009  0.47885786  1  0  0.076711  0  0.947975  0  0  0.09261  0  1.010025  0  0  0.092759  0  1.011369  0  0  0.09935  0.092411  0  1.009245  0
C  C44  1  0.28752566  0.84833850  0.02506780  1  0  0.137514  0  3.732415  0  0  0.098474  0  3.992743  0  0  0.106594  0  4.010754  0  0  0.050219  0.093321  0  3.980479  0
C  C45  1  0.16085941  0.65145321  0.47421065  1  0  0.139173  0  3.730717  0  0  0.101066  0  3.990451  0  0  0.10919  0  4.008484  0  0  0.051436  0.095871  0  3.978247  0
C  C46  1  0.71247863  0.15167221  0.97493313  1  0  0.137454  0  3.732247  0  0  0.098493  0  3.992578  0  0  0.106599  0  4.01058  0  0  0.050184  0.093335  0  3.980323  0
C  C47  1  0.83913946  0.34854569  0.52578732  1  0  0.139446  0  3.730544  0  0  0.101325  0  3.990321  0  0  0.109451  0  4.008359  0  0  0.051508  0.096124  0  3.978127  0
C  C48  1  0.21282072  0.93331173  0.10521377  1  0  -0.118857  0  3.735416  0  0  -0.132849  0  3.989335  0  0  -0.141859  0  4.012125  0  0  -0.08029  -0.127131  0  3.974053  0
C  C49  1  0.25082280  0.56666467  0.39389327  1  0  -0.121425  0  3.735871  0  0  -0.135377  0  3.98988  0  0  -0.144435  0  4.012568  0  0  -0.08059  -0.129645  0  3.974701  0
C  C50  1  0.78717302  0.06669812  0.89478957  1  0  -0.118796  0  3.735321  0  0  -0.132829  0  3.989259  0  0  -0.141836  0  4.012037  0  0  -0.080238  -0.127114  0  3.973959  0
C  C51  1  0.74917407  0.43333780  0.60610212  1  0  -0.121445  0  3.735729  0  0  -0.13542  0  3.989757  0  0  -0.144496  0  4.012436  0  0  -0.080575  -0.129681  0  3.974556  0
C  C52  1  0.01025854  0.96434324  0.15650952  1  0  0.035118  0  3.688312  0  0  0.014516  0  3.937144  0  0  0.020077  0  3.955585  0  0  -0.055441  0.011153  0  3.924578  0
C  C53  1  0.13019750  0.53577790  0.34267437  1  0  0.034419  0  3.688516  0  0  0.013682  0  3.93726  0  0  0.019207  0  3.955779  0  0  -0.055304  0.010353  0  3.924634  0
C  C54  1  0.98974670  0.03566119  0.84349354  1  0  0.035195  0  3.688275  0  0  0.014596  0  3.937077  0  0  0.020167  0  3.955514  0  0  -0.055331  0.011237  0  3.924502  0
C  C55  1  0.86979803  0.46422189  0.65732225  1  0  0.034299  0  3.68856  0  0  0.013599  0  3.937272  0  0  0.019136  0  3.955783  0  0  -0.055338  0.010272  0  3.924637  0
C  C56  1  0.89078392  0.90768387  0.12671414  1  0  -0.159105  0  3.693721  0  0  -0.174852  0  3.935385  0  0  -0.183988  0  3.957594  0  0  -0.081475  -0.169068  0  3.920563  0
C  C57  1  0.92429125  0.59230139  0.37268886  1  0  -0.159255  0  3.689375  0  0  -0.174332  0  3.931354  0  0  -0.183482  0  3.953616  0  0  -0.081447  -0.168538  0  3.916496  0
C  C58  1  0.10921785  0.09231784  0.87328806  1  0  -0.159162  0  3.693701  0  0  -0.174899  0  3.935347  0  0  -0.184038  0  3.957557  0  0  -0.081493  -0.169116  0  3.920523  0
C  C59  1  0.07570208  0.40769581  0.62731404  1  0  -0.159171  0  3.689361  0  0  -0.174265  0  3.931315  0  0  -0.183416  0  3.953574  0  0  -0.081405  -0.168473  0  3.916451  0
C  C60  1  0.97629567  0.82217705  0.04632988  1  0  0.240077  0  3.727938  0  0  0.239285  0  3.969832  0  0  0.247532  0  3.991405  0  0  0.122981  0.233903  0  3.955201  0
C  C61  1  0.84444462  0.67769958  0.45317573  1  0  0.242592  0  3.722201  0  0  0.241239  0  3.964803  0  0  0.249397  0  3.986384  0  0  0.123736  0.235922  0  3.950174  0
C  C62  1  0.02371378  0.17782640  0.95366950  1  0  0.240102  0  3.727826  0  0  0.239341  0  3.969675  0  0  0.247587  0  3.991245  0  0  0.12293  0.233967  0  3.955047  0
C  C63  1  0.15555371  0.32229308  0.54682586  1  0  0.24244  0  3.722335  0  0  0.241159  0  3.964926  0  0  0.249319  0  3.986508  0  0  0.123673  0.23584  0  3.950281  0
C  C64  1  0.85941427  0.75479401  0.01042663  1  0  -0.097949  0  3.70546  0  0  -0.160005  0  3.959665  0  0  -0.157557  0  3.970439  0  0  -0.061896  -0.161651  0  3.952212  0
C  C65  1  0.62436817  0.74516611  0.48927552  1  0  -0.09967  0  3.70599  0  0  -0.161978  0  3.95961  0  0  -0.15933  0  3.970164  0  0  -0.062312  -0.16374  0  3.952303  0
C  C66  1  0.14059185  0.24521124  0.98957234  1  0  -0.097979  0  3.7054  0  0  -0.160066  0  3.959578  0  0  -0.157618  0  3.970352  0  0  -0.061924  -0.161738  0  3.952155  0
C  C67  1  0.37562849  0.25482929  0.51072777  1  0  -0.099583  0  3.705825  0  0  -0.162064  0  3.95969  0  0  -0.159409  0  3.970229  0  0  -0.062306  -0.163803  0  3.952354  0
C  C68  1  0.00202247  0.56651986  0.08433114  1  0  -0.026004  0  3.631161  0  0  -0.080151  0  3.883308  0  0  -0.077217  0  3.895396  0  0  -0.074809  -0.082031  0  3.874899  0
C  C69  1  0.65242468  0.93358649  0.41556689  1  0  -0.024026  0  3.630532  0  0  -0.079865  0  3.883858  0  0  -0.076863  0  3.89578  0  0  -0.07429  -0.081785  0  3.8756  0
C  C70  1  0.99798485  0.43348447  0.91566709  1  0  -0.025946  0  3.631373  0  0  -0.08  0  3.883344  0  0  -0.077071  0  3.895441  0  0  -0.074808  -0.081882  0  3.874931  0
C  C71  1  0.34757332  0.06640975  0.58443326  1  0  -0.024159  0  3.63054  0  0  -0.079987  0  3.88388  0  0  -0.076983  0  3.89581  0  0  -0.074351  -0.081905  0  3.87561  0
C  C72  1  0.88222433  0.56671007  0.93433695  1  0  -0.03  0  3.646179  0  0  -0.085362  0  3.898466  0  0  -0.082394  0  3.911462  0  0  -0.07663  -0.087274  0  3.889423  0
C  C73  1  0.38345280  0.93326628  0.56555859  1  0  -0.031733  0  3.645678  0  0  -0.087664  0  3.898285  0  0  -0.08469  0  3.911372  0  0  -0.077848  -0.089572  0  3.889148  0
C  C74  1  0.11778102  0.43329335  0.06566086  1  0  -0.029949  0  3.646081  0  0  -0.085263  0  3.898331  0  0  -0.082294  0  3.911326  0  0  -0.076598  -0.087176  0  3.889298  0
C  C75  1  0.61654368  0.06672814  0.43444112  1  0  -0.031963  0  3.645848  0  0  -0.087685  0  3.898213  0  0  -0.08476  0  3.911418  0  0  -0.0779  -0.089593  0  3.889079  0
C  C76  1  0.56991324  0.40689357  0.86311310  1  0  -0.119772  0  2.788375  0  0  -0.149466  0  3.057614  0  0  -0.138536  0  3.067869  0  0  -0.04086  -0.156213  0  3.050203  0
C  C77  1  0.83953954  0.09274455  0.63656613  1  0  -0.119864  0  2.788099  0  0  -0.149429  0  3.056891  0  0  -0.138464  0  3.067078  0  0  -0.041007  -0.156219  0  3.049557  0
C  C78  1  0.43007776  0.59312502  0.13687594  1  0  -0.119647  0  2.786621  0  0  -0.149354  0  3.055843  0  0  -0.138408  0  3.066091  0  0  -0.040907  -0.156104  0  3.048421  0
C  C79  1  0.16042653  0.90724709  0.36342979  1  0  -0.119825  0  2.788033  0  0  -0.149387  0  3.056844  0  0  -0.138421  0  3.06703  0  0  -0.040903  -0.156176  0  3.049512  0
C  C80  1  0.62017293  0.78546488  0.73633021  1  0  -0.088079  0  3.275034  0  0  -0.077848  0  3.605393  0  0  -0.072805  0  3.608913  0  0  0.018221  -0.081337  0  3.603189  0
C  C81  1  0.14234307  0.71443508  0.76320968  1  0  -0.087809  0  3.28051  0  0  -0.077314  0  3.610735  0  0  -0.072312  0  3.61421  0  0  0.018253  -0.080772  0  3.608577  0
C  C82  1  0.37983196  0.21452519  0.26367743  1  0  -0.08821  0  3.275003  0  0  -0.077984  0  3.605361  0  0  -0.072941  0  3.608878  0  0  0.018139  -0.08147  0  3.603164  0
C  C83  1  0.85766491  0.28556116  0.23679047  1  0  -0.087859  0  3.280514  0  0  -0.077363  0  3.610728  0  0  -0.072359  0  3.614197  0  0  0.018208  -0.080818  0  3.608569  0
N  N84  1  0.17151884  0.79472977  0.99580737  1  0  -0.347638  0  3.319797  0  0  -0.26767  0  3.589528  0  0  -0.287181  0  3.604562  0  0  -0.327678  -0.254665  0  3.579259  0
N  N85  1  0.96208581  0.70503235  0.50360039  1  0  -0.350607  0  3.318407  0  0  -0.270501  0  3.588091  0  0  -0.290041  0  3.603225  0  0  -0.328611  -0.257451  0  3.577697  0
N  N86  1  0.82848682  0.20527730  0.00419257  1  0  -0.347595  0  3.319475  0  0  -0.267673  0  3.589216  0  0  -0.287179  0  3.604252  0  0  -0.327714  -0.25467  0  3.578949  0
N  N87  1  0.03791085  0.29496213  0.49640195  1  0  -0.350753  0  3.318423  0  0  -0.270703  0  3.588191  0  0  -0.290236  0  3.603295  0  0  -0.328654  -0.257654  0  3.577802  0
N  N88  1  0.97932998  0.62767412  0.98764446  1  0  -0.216693  0  3.226936  0  0  -0.125889  0  3.471988  0  0  -0.142254  0  3.491287  0  0  -0.332121  -0.114403  0  3.458408  0
N  N89  1  0.59464330  0.87223556  0.51216608  1  0  -0.216511  0  3.229223  0  0  -0.122906  0  3.471045  0  0  -0.139514  0  3.490592  0  0  -0.331376  -0.111244  0  3.457274  0
N  N90  1  0.02067537  0.37232930  0.01235334  1  0  -0.216768  0  3.226995  0  0  -0.125875  0  3.471872  0  0  -0.142239  0  3.491174  0  0  -0.332141  -0.114383  0  3.458294  0
N  N91  1  0.40535711  0.12775977  0.48783353  1  0  -0.216413  0  3.229108  0  0  -0.122809  0  3.470974  0  0  -0.139422  0  3.490515  0  0  -0.331345  -0.111152  0  3.457192  0
N  N92  1  0.46333500  0.50745448  0.86965735  1  0  -0.480998  0  3.307156  0  0  -0.389822  0  3.634804  0  0  -0.414017  0  3.64249  0  0  -0.42371  -0.373501  0  3.629053  0
N  N93  1  0.84098522  0.99202379  0.62996793  1  0  -0.481334  0  3.308758  0  0  -0.390387  0  3.63656  0  0  -0.414521  0  3.644207  0  0  -0.424083  -0.374122  0  3.630865  0
N  N94  1  0.53668451  0.49253094  0.13034373  1  0  -0.481064  0  3.305626  0  0  -0.389879  0  3.633313  0  0  -0.414088  0  3.640994  0  0  -0.423561  -0.373545  0  3.627542  0
N  N95  1  0.15900241  0.00796349  0.37003560  1  0  -0.48131  0  3.308708  0  0  -0.390374  0  3.636534  0  0  -0.414507  0  3.644178  0  0  -0.424127  -0.374102  0  3.630837  0
N  N96  1  0.50847697  0.75397632  0.80274960  1  0  -0.385947  0  3.056542  0  0  -0.324809  0  3.340752  0  0  -0.342005  0  3.353033  0  0  -0.350733  -0.313272  0  3.332464  0
N  N97  1  0.06527696  0.74565408  0.69676875  1  0  -0.385563  0  3.06132  0  0  -0.324591  0  3.345254  0  0  -0.341716  0  3.357576  0  0  -0.350444  -0.313111  0  3.336947  0
N  N98  1  0.49153017  0.24601463  0.19725679  1  0  -0.385849  0  3.056433  0  0  -0.324692  0  3.340588  0  0  -0.341888  0  3.35287  0  0  -0.35066  -0.313153  0  3.3323  0
N  N99  1  0.93473793  0.25434300  0.30322835  1  0  -0.385528  0  3.061359  0  0  -0.324545  0  3.345268  0  0  -0.34167  0  3.357584  0  0  -0.350432  -0.313067  0  3.336973  0
