# generated using pymatgen
data_Zn2H11C14N9O4
_symmetry_space_group_name_H-M   'P 1'
_cell_length_a   7.77453829
_cell_length_b   10.19226099
_cell_length_c   13.37296132
_cell_angle_alpha   110.84051960
_cell_angle_beta   105.55418592
_cell_angle_gamma   93.57765960
_symmetry_Int_Tables_number   1
_chemical_formula_structural   Zn2H11C14N9O4
_chemical_formula_sum   'Zn4 H22 C28 N18 O8'
_cell_volume   939.30796129
_cell_formula_units_Z   2
loop_
 _symmetry_equiv_pos_site_id
 _symmetry_equiv_pos_as_xyz
  1  'x, y, z'
loop_
 _atom_site_type_symbol
 _atom_site_label
 _atom_site_symmetry_multiplicity
 _atom_site_fract_x
 _atom_site_fract_y
 _atom_site_fract_z
 _atom_site_occupancy
 _atom_site_hle17_bader_spin_density
 _atom_site_hle17_ddec_charge
 _atom_site_hle17_ddec_spin_density
 _atom_site_hle17_ddec_sum_bond_order
 _atom_site_hle17_magmom
 _atom_site_hse06_10hf_bader_spin_density
 _atom_site_hse06_10hf_ddec_charge
 _atom_site_hse06_10hf_ddec_spin_density
 _atom_site_hse06_10hf_ddec_sum_bond_order
 _atom_site_hse06_10hf_magmom
 _atom_site_hse06_bader_spin_density
 _atom_site_hse06_ddec_charge
 _atom_site_hse06_ddec_spin_density
 _atom_site_hse06_ddec_sum_bond_order
 _atom_site_hse06_magmom
 _atom_site_pbe_bader_spin_density
 _atom_site_pbe_cm5_charge
 _atom_site_pbe_ddec_charge
 _atom_site_pbe_ddec_spin_density
 _atom_site_pbe_ddec_sum_bond_order
 _atom_site_pbe_magmom
Zn  Zn0  1  0.62848739  0.87756940  0.25570958  1  0  0.98577  0  1.885417  0  0  0.806251  0  2.340673  0  0  0.855165  0  2.28797  0  0  0.680205  0.770824  0  2.377331  0
Zn  Zn1  1  0.37151269  0.12243063  0.74428831  1  0  0.985813  0  1.885349  0  0  0.806332  0  2.340589  0  0  0.855244  0  2.287886  0  0  0.68023  0.770914  0  2.377248  0
Zn  Zn2  1  0.99999921  0.50000006  0.49999937  1  0  0.789133  0  2.105012  0  0  0.573425  0  2.569831  0  0  0.615261  0  2.532247  0  0  0.693669  0.543474  0  2.596206  0
Zn  Zn3  1  0.49999859  0.49999948  0.49999896  1  0  0.79293  0  2.09334  0  0  0.576562  0  2.557598  0  0  0.61874  0  2.519838  0  0  0.693241  0.546339  0  2.58411  0
H  H4  1  0.03678309  0.29561677  0.07902431  1  0  0.319493  0  0.8674  0  0  0.300514  0  0.926646  0  0  0.305424  0  0.926243  0  0  0.335368  0.296202  0  0.928618  0
H  H5  1  0.96321859  0.70438436  0.92097637  1  0  0.319486  0  0.867403  0  0  0.300501  0  0.926679  0  0  0.30541  0  0.926285  0  0  0.335363  0.296188  0  0.928655  0
H  H6  1  0.82890078  0.35085451  0.20545195  1  0  0.123833  0  0.887577  0  0  0.13764  0  0.936234  0  0  0.139706  0  0.934598  0  0  0.161428  0.136053  0  0.937487  0
H  H7  1  0.17109593  0.64914234  0.79454609  1  0  0.123823  0  0.887655  0  0  0.137658  0  0.936259  0  0  0.139723  0  0.934624  0  0  0.161437  0.136071  0  0.937513  0
H  H8  1  0.37219904  0.36694287  0.20289258  1  0  0.124513  0  0.889856  0  0  0.137465  0  0.940783  0  0  0.139668  0  0.938907  0  0  0.160599  0.135767  0  0.942202  0
H  H9  1  0.62780091  0.63306252  0.79710896  1  0  0.124457  0  0.889955  0  0  0.137469  0  0.940829  0  0  0.139666  0  0.93895  0  0  0.160593  0.135771  0  0.942249  0
H  H10  1  0.93249257  0.15034397  0.36943261  1  0  0.097795  0  0.934423  0  0  0.106118  0  0.996176  0  0  0.108643  0  0.993564  0  0  0.134312  0.104264  0  0.998133  0
H  H11  1  0.06750887  0.84965610  0.63056851  1  0  0.097786  0  0.934437  0  0  0.106119  0  0.996183  0  0  0.108632  0  0.993585  0  0  0.134302  0.104265  0  0.998142  0
H  H12  1  0.38814305  0.14014366  0.35843675  1  0  0.098699  0  0.914124  0  0  0.111442  0  0.96898  0  0  0.11349  0  0.966844  0  0  0.139496  0.109994  0  0.970489  0
H  H13  1  0.61185680  0.85985532  0.64156234  1  0  0.098688  0  0.914119  0  0  0.111431  0  0.968978  0  0  0.113478  0  0.966843  0  0  0.139493  0.109983  0  0.970487  0
H  H14  1  0.97788673  0.73700727  0.37319980  1  0  0.097754  0  0.911763  0  0  0.111064  0  0.965743  0  0  0.113054  0  0.963648  0  0  0.139859  0.10965  0  0.967202  0
H  H15  1  0.02211154  0.26299062  0.62679726  1  0  0.097769  0  0.91174  0  0  0.111083  0  0.965715  0  0  0.113073  0  0.96362  0  0  0.139876  0.10967  0  0.967172  0
H  H16  1  0.44592429  0.73855371  0.38635053  1  0  0.094654  0  0.928848  0  0  0.104565  0  0.988294  0  0  0.106806  0  0.986027  0  0  0.13527  0.102928  0  0.990009  0
H  H17  1  0.55407579  0.26144631  0.61364737  1  0  0.09466  0  0.928871  0  0  0.104576  0  0.988308  0  0  0.106817  0  0.98604  0  0  0.135271  0.102938  0  0.990023  0
H  H18  1  0.15137634  0.93215519  0.15912397  1  0  0.113967  0  0.983667  0  0  0.119147  0  1.051727  0  0  0.123613  0  1.047897  0  0  0.099524  0.11575  0  1.055123  0
H  H19  1  0.84862688  0.06784696  0.84087423  1  0  0.113905  0  0.983681  0  0  0.119087  0  1.051747  0  0  0.123554  0  1.047918  0  0  0.099519  0.115691  0  1.055142  0
H  H20  1  0.66772217  0.00426600  0.95088448  1  0  0.126249  0  0.955115  0  0  0.132899  0  1.019287  0  0  0.137483  0  1.015507  0  0  0.104375  0.129604  0  1.021912  0
H  H21  1  0.33227911  0.99573937  0.04911576  1  0  0.126257  0  0.955095  0  0  0.132898  0  1.019269  0  0  0.137486  0  1.015484  0  0  0.104385  0.129603  0  1.021894  0
H  H22  1  0.02311325  0.72194255  0.16470636  1  0  0.110151  0  0.978594  0  0  0.116624  0  1.045208  0  0  0.120748  0  1.041965  0  0  0.099071  0.113518  0  1.048132  0
H  H23  1  0.97688653  0.27805006  0.83529253  1  0  0.11017  0  0.978534  0  0  0.116659  0  1.045133  0  0  0.120782  0  1.04189  0  0  0.099081  0.113553  0  1.048056  0
H  H24  1  0.28009585  0.43179086  0.95265258  1  0  0.132344  0  0.962774  0  0  0.138727  0  1.026874  0  0  0.14316  0  1.02333  0  0  0.105494  0.135582  0  1.029247  0
H  H25  1  0.71990354  0.56820601  0.04734662  1  0  0.132397  0  0.962793  0  0  0.138758  0  1.026901  0  0  0.143191  0  1.023361  0  0  0.105506  0.135614  0  1.029276  0
C  C26  1  0.97584513  0.36865525  0.23412487  1  0  0.223763  0  3.619372  0  0  0.157659  0  3.896246  0  0  0.16999  0  3.909071  0  0  0.175934  0.149543  0  3.887621  0
C  C27  1  0.02415338  0.63134372  0.76587326  1  0  0.223716  0  3.619425  0  0  0.157626  0  3.896286  0  0  0.169953  0  3.909114  0  0  0.175932  0.149508  0  3.887662  0
C  C28  1  0.25532649  0.37690598  0.23297338  1  0  0.225985  0  3.618494  0  0  0.158526  0  3.897753  0  0  0.170839  0  3.910701  0  0  0.176086  0.150428  0  3.889076  0
C  C29  1  0.74466922  0.62309836  0.76702797  1  0  0.225976  0  3.61847  0  0  0.158458  0  3.89775  0  0  0.170781  0  3.910683  0  0  0.176035  0.150358  0  3.889073  0
C  C30  1  0.80673407  0.18365925  0.38033024  1  0  0.192902  0  3.729591  0  0  0.135884  0  4.002688  0  0  0.14792  0  4.017614  0  0  0.135589  0.128068  0  3.992256  0
C  C31  1  0.19326579  0.81633974  0.61966960  1  0  0.192885  0  3.729624  0  0  0.135856  0  4.002709  0  0  0.147903  0  4.017637  0  0  0.135569  0.128043  0  3.992274  0
C  C32  1  0.53019898  0.17784187  0.37400813  1  0  0.203957  0  3.707851  0  0  0.147392  0  3.980524  0  0  0.160003  0  3.994605  0  0  0.141705  0.13919  0  3.970414  0
C  C33  1  0.46979978  0.82215818  0.62599107  1  0  0.203971  0  3.707772  0  0  0.147415  0  3.980451  0  0  0.160027  0  3.994534  0  0  0.141713  0.139214  0  3.970342  0
C  C34  1  0.85152972  0.71415217  0.38869960  1  0  0.211924  0  3.702875  0  0  0.154376  0  3.976802  0  0  0.167361  0  3.990335  0  0  0.143603  0.145976  0  3.967046  0
C  C35  1  0.14846854  0.28584570  0.61129671  1  0  0.211948  0  3.702793  0  0  0.154408  0  3.97672  0  0  0.167396  0  3.990251  0  0  0.143625  0.146009  0  3.966964  0
C  C36  1  0.58230721  0.71550592  0.39630635  1  0  0.199547  0  3.734011  0  0  0.14122  0  4.00895  0  0  0.153687  0  4.023509  0  0  0.136898  0.133046  0  3.998822  0
C  C37  1  0.41769263  0.28449302  0.60369048  1  0  0.199541  0  3.733946  0  0  0.141226  0  4.008879  0  0  0.153694  0  4.023438  0  0  0.136919  0.133053  0  3.998751  0
C  C38  1  0.78815165  0.92691667  0.12700752  1  0  0.608314  0  3.935884  0  0  0.562859  0  4.22335  0  0  0.595938  0  4.218495  0  0  0.185176  0.540541  0  4.225848  0
C  C39  1  0.21185186  0.07308666  0.87299776  1  0  0.608168  0  3.936171  0  0  0.562722  0  4.223628  0  0  0.595799  0  4.218774  0  0  0.185141  0.540405  0  4.226124  0
C  C40  1  0.89830959  0.96462869  0.06172950  1  0  -0.069214  0  3.784686  0  0  -0.047003  0  4.01934  0  0  -0.053234  0  4.041161  0  0  -0.027371  -0.042744  0  4.005088  0
C  C41  1  0.10169948  0.03537567  0.93827467  1  0  -0.069238  0  3.784863  0  0  -0.047039  0  4.019533  0  0  -0.053269  0  4.041349  0  0  -0.027426  -0.042782  0  4.005281  0
C  C42  1  0.08563352  0.96327610  0.09018064  1  0  -0.105394  0  3.757036  0  0  -0.130009  0  4.013069  0  0  -0.130737  0  4.031799  0  0  -0.100571  -0.12976  0  4.001906  0
C  C43  1  0.91437081  0.03672500  0.90981895  1  0  -0.105243  0  3.757087  0  0  -0.129857  0  4.013131  0  0  -0.130585  0  4.031862  0  0  -0.100554  -0.129606  0  4.001965  0
C  C44  1  0.81294773  0.00183520  0.97131396  1  0  -0.094196  0  3.729634  0  0  -0.116698  0  3.980002  0  0  -0.11722  0  3.997978  0  0  -0.094898  -0.116061  0  3.967727  0
C  C45  1  0.18705841  0.99816803  0.02868647  1  0  -0.094108  0  3.729487  0  0  -0.116588  0  3.979841  0  0  -0.117114  0  3.997811  0  0  -0.094846  -0.115952  0  3.967568  0
C  C46  1  0.01261478  0.62447341  0.09272504  1  0  -0.10754  0  3.761018  0  0  -0.130929  0  4.016274  0  0  -0.131696  0  4.035057  0  0  -0.101773  -0.130619  0  4.004957  0
C  C47  1  0.98738441  0.37552247  0.90727836  1  0  -0.107482  0  3.760849  0  0  -0.130872  0  4.016134  0  0  -0.131637  0  4.034917  0  0  -0.101692  -0.130562  0  4.004814  0
C  C48  1  0.15666633  0.46035572  0.97262501  1  0  -0.101853  0  3.725692  0  0  -0.122719  0  3.974995  0  0  -0.123373  0  3.992825  0  0  -0.095766  -0.121854  0  3.962738  0
C  C49  1  0.84333539  0.53964550  0.02738094  1  0  -0.101857  0  3.725855  0  0  -0.122693  0  3.975164  0  0  -0.123349  0  3.992996  0  0  -0.095699  -0.121828  0  3.962907  0
C  C50  1  0.16959263  0.58543683  0.06570812  1  0  -0.068884  0  3.784261  0  0  -0.04853  0  4.020637  0  0  -0.054226  0  4.041621  0  0  -0.028485  -0.044677  0  4.006635  0
C  C51  1  0.83040860  0.41456224  0.93429644  1  0  -0.068963  0  3.784309  0  0  -0.048651  0  4.020754  0  0  -0.054346  0  4.041736  0  0  -0.028573  -0.044798  0  4.00675  0
C  C52  1  0.35210381  0.67597013  0.13473541  1  0  0.611824  0  3.942612  0  0  0.566797  0  4.230374  0  0  0.599889  0  4.224645  0  0  0.186068  0.544502  0  4.233248  0
C  C53  1  0.64789316  0.32402783  0.86526595  1  0  0.611894  0  3.942495  0  0  0.566886  0  4.230264  0  0  0.59998  0  4.224531  0  0  0.186111  0.544591  0  4.233138  0
N  N54  1  0.08123584  0.42383018  0.34004355  1  0  -0.231877  0  3.099027  0  0  -0.179025  0  3.389226  0  0  -0.192086  0  3.404895  0  0  -0.218708  -0.170387  0  3.378893  0
N  N55  1  0.91876183  0.57617096  0.65995726  1  0  -0.231832  0  3.09909  0  0  -0.179021  0  3.389298  0  0  -0.192082  0  3.40497  0  0  -0.218702  -0.170383  0  3.378964  0
N  N56  1  0.25849263  0.42915980  0.33934323  1  0  -0.232908  0  3.092204  0  0  -0.180535  0  3.382865  0  0  -0.193661  0  3.398589  0  0  -0.218173  -0.171847  0  3.372485  0
N  N57  1  0.74150577  0.57084456  0.66066003  1  0  -0.232935  0  3.092219  0  0  -0.180497  0  3.382843  0  0  -0.193623  0  3.398564  0  0  -0.218149  -0.171808  0  3.372461  0
N  N58  1  0.08050954  0.33776162  0.16509593  1  0  -0.295038  0  3.452719  0  0  -0.224955  0  3.69002  0  0  -0.243557  0  3.70828  0  0  -0.352492  -0.212413  0  3.67844  0
N  N59  1  0.91948970  0.66224059  0.83490541  1  0  -0.294935  0  3.452518  0  0  -0.2249  0  3.689884  0  0  -0.243505  0  3.708146  0  0  -0.352465  -0.212357  0  3.678306  0
N  N60  1  0.78719992  0.31847829  0.42797608  1  0  -0.269118  0  3.207376  0  0  -0.205624  0  3.494801  0  0  -0.220269  0  3.511116  0  0  -0.252568  -0.19528  0  3.483301  0
N  N61  1  0.21279860  0.68152070  0.57202355  1  0  -0.269134  0  3.207424  0  0  -0.205617  0  3.494832  0  0  -0.220261  0  3.511142  0  0  -0.252559  -0.195273  0  3.483331  0
N  N62  1  0.60864687  0.31504998  0.42406014  1  0  -0.269588  0  3.198605  0  0  -0.206747  0  3.487193  0  0  -0.221601  0  3.503476  0  0  -0.249931  -0.19628  0  3.47573  0
N  N63  1  0.39135165  0.68494899  0.57593799  1  0  -0.269562  0  3.198534  0  0  -0.206764  0  3.487166  0  0  -0.221618  0  3.503448  0  0  -0.24995  -0.196295  0  3.475705  0
N  N64  1  0.64953491  0.09186586  0.34554815  1  0  -0.407601  0  3.256083  0  0  -0.32834  0  3.549291  0  0  -0.350614  0  3.560648  0  0  -0.354034  -0.312426  0  3.540981  0
N  N65  1  0.35046495  0.90813313  0.65445169  1  0  -0.407626  0  3.256022  0  0  -0.328367  0  3.549231  0  0  -0.35064  0  3.560584  0  0  -0.354034  -0.312455  0  3.540924  0
N  N66  1  0.82071766  0.62088955  0.43387575  1  0  -0.269798  0  3.198276  0  0  -0.2069  0  3.486912  0  0  -0.221862  0  3.503175  0  0  -0.250537  -0.196357  0  3.475452  0
N  N67  1  0.17928219  0.37910942  0.56612258  1  0  -0.269831  0  3.198238  0  0  -0.206941  0  3.486885  0  0  -0.221903  0  3.503147  0  0  -0.250549  -0.196397  0  3.475425  0
N  N68  1  0.64649664  0.62195019  0.43865505  1  0  -0.268822  0  3.206977  0  0  -0.204558  0  3.494215  0  0  -0.219396  0  3.510473  0  0  -0.252534  -0.194097  0  3.482799  0
N  N69  1  0.35350345  0.37804985  0.56134435  1  0  -0.268793  0  3.206979  0  0  -0.204539  0  3.494226  0  0  -0.219378  0  3.510487  0  0  -0.252546  -0.194079  0  3.48281  0
N  N70  1  0.70607413  0.77628257  0.36436981  1  0  -0.413798  0  3.265031  0  0  -0.335813  0  3.560122  0  0  -0.35797  0  3.570608  0  0  -0.357743  -0.320162  0  3.552669  0
N  N71  1  0.29392414  0.22371532  0.63562725  1  0  -0.413834  0  3.264901  0  0  -0.335876  0  3.56002  0  0  -0.358035  0  3.570504  0  0  -0.357784  -0.320227  0  3.55257  0
O  O72  1  0.87139123  0.90768957  0.21693283  1  0  -0.639758  0  1.959909  0  0  -0.574045  0  2.201876  0  0  -0.601379  0  2.189467  0  0  -0.335401  -0.555284  0  2.210124  0
O  O73  1  0.12862049  0.09231474  0.78306949  1  0  -0.639683  0  1.959765  0  0  -0.574002  0  2.201774  0  0  -0.601336  0  2.189365  0  0  -0.335455  -0.555249  0  2.210044  0
O  O74  1  0.61746057  0.91642133  0.09433720  1  0  -0.602953  0  1.932187  0  0  -0.55028  0  2.159006  0  0  -0.575322  0  2.149628  0  0  -0.320597  -0.532797  0  2.164705  0
O  O75  1  0.38253767  0.08358835  0.90566670  1  0  -0.602909  0  1.932482  0  0  -0.550233  0  2.15929  0  0  -0.575272  0  2.149912  0  0  -0.320512  -0.532751  0  2.164989  0
O  O76  1  0.35609334  0.80188294  0.20749350  1  0  -0.644603  0  1.99622  0  0  -0.573825  0  2.243715  0  0  -0.602368  0  2.230994  0  0  -0.337115  -0.554105  0  2.252088  0
O  O77  1  0.64390470  0.19811390  0.79250400  1  0  -0.644652  0  1.996128  0  0  -0.573904  0  2.243647  0  0  -0.60245  0  2.230922  0  0  -0.337168  -0.554185  0  2.252022  0
O  O78  1  0.49323191  0.62930299  0.12038986  1  0  -0.601618  0  1.935318  0  0  -0.555706  0  2.160571  0  0  -0.579096  0  2.151445  0  0  -0.320858  -0.539267  0  2.166074  0
O  O79  1  0.50676661  0.37069600  0.87960902  1  0  -0.601631  0  1.935371  0  0  -0.555721  0  2.160624  0  0  -0.579109  0  2.151496  0  0  -0.320858  -0.539282  0  2.166127  0
