# generated using pymatgen
data_Gd2H51C78N19O43
_symmetry_space_group_name_H-M   'P 1'
_cell_length_a   14.42588830
_cell_length_b   16.72623828
_cell_length_c   19.58388764
_cell_angle_alpha   105.45398004
_cell_angle_beta   96.30648293
_cell_angle_gamma   95.34443466
_symmetry_Int_Tables_number   1
_chemical_formula_structural   Gd2H51C78N19O43
_chemical_formula_sum   'Gd4 H102 C156 N38 O86'
_cell_volume   4489.89383686
_cell_formula_units_Z   2
loop_
 _symmetry_equiv_pos_site_id
 _symmetry_equiv_pos_as_xyz
  1  'x, y, z'
loop_
 _atom_site_type_symbol
 _atom_site_label
 _atom_site_symmetry_multiplicity
 _atom_site_fract_x
 _atom_site_fract_y
 _atom_site_fract_z
 _atom_site_occupancy
 _atom_site_pbe_bader_charge
 _atom_site_pbe_bader_spin_density
 _atom_site_pbe_cm5_charge
 _atom_site_pbe_ddec_charge
 _atom_site_pbe_ddec_spin_density
 _atom_site_pbe_ddec_sum_bond_order
 _atom_site_pbe_magmom
Gd  Gd0  1  0.12702772  0.04698430  0.05831052  1  2.175536  0  1.482862  1.976311  0  2.275794  0
Gd  Gd1  1  0.87297273  0.95301582  0.94168904  1  2.17553  0  1.482882  1.976383  0  2.275677  0
Gd  Gd2  1  0.64102366  0.54106403  0.51054686  1  2.16889  0  1.469669  1.978447  0  2.278738  0
Gd  Gd3  1  0.35897670  0.45893546  0.48945306  1  2.168852  0  1.469635  1.97843  0  2.278702  0
H  H4  1  0.09189235  0.86554380  0.18213287  1  0.152714  0  0.124351  0.139275  0  0.996374  0
H  H5  1  0.90810793  0.13445506  0.81786741  1  0.152701  0  0.124357  0.1393  0  0.996415  0
H  H6  1  0.83377137  0.75350597  0.04431995  1  0.157185  0  0.128176  0.137632  0  0.986211  0
H  H7  1  0.16622778  0.24649477  0.95568067  1  0.157199  0  0.128186  0.137654  0  0.986181  0
H  H8  1  0.74904769  0.75570414  0.40699946  1  0.155281  0  0.122431  0.130268  0  1.014396  0
H  H9  1  0.25095346  0.24429597  0.59300118  1  0.155281  0  0.122432  0.13028  0  1.014383  0
H  H10  1  0.85702764  0.52363651  0.32522831  1  0.174015  0  0.127824  0.141847  0  1.005465  0
H  H11  1  0.14297194  0.47636235  0.67477192  1  0.173866  0  0.127791  0.141826  0  1.005482  0
H  H12  1  0.21762890  0.90299525  0.93601611  1  0.230737  0  0.132066  0.152683  0  1.044953  0
H  H13  1  0.78237137  0.09700361  0.06398366  1  0.230736  0  0.13207  0.152682  0  1.044995  0
H  H14  1  0.06353392  0.91356581  0.73718522  1  0.150975  0  0.123662  0.1303  0  1.024323  0
H  H15  1  0.93646750  0.08643618  0.26281587  1  0.150961  0  0.123699  0.130346  0  1.024283  0
H  H16  1  0.33807689  0.60034103  0.62434520  1  0.201815  0  0.13342  0.139754  0  1.029333  0
H  H17  1  0.66192296  0.39965971  0.37565548  1  0.202221  0  0.133428  0.139763  0  1.029323  0
H  H18  1  0.56133871  0.80790460  0.66696720  1  0.228486  0  0.123835  0.142048  0  1.042633  0
H  H19  1  0.43866104  0.19209551  0.33303333  1  0.228551  0  0.123836  0.142063  0  1.042616  0
H  H20  1  0.28838519  0.56674587  0.32368719  1  0.168381  0  0.128072  0.137749  0  1.000422  0
H  H21  1  0.71161378  0.43325362  0.67631364  1  0.168409  0  0.128087  0.137775  0  1.000426  0
H  H22  1  0.58034906  0.64169197  0.31849094  1  0.124917  0  0.122703  0.134548  0  1.002855  0
H  H23  1  0.41964851  0.35830751  0.68150774  1  0.12487  0  0.122667  0.134507  0  1.002903  0
H  H24  1  0.29644696  0.97280082  0.25147830  1  0.205618  0  0.127326  0.140328  0  1.015277  0
H  H25  1  0.70355855  0.02720056  0.74852247  1  0.205572  0  0.127298  0.140278  0  1.01526  0
H  H26  1  0.30133672  0.80254414  0.04441161  1  0.139304  0  0.123891  0.137021  0  1.015212  0
H  H27  1  0.69866111  0.19745722  0.95558802  1  0.139328  0  0.12386  0.136939  0  1.015289  0
H  H28  1  0.38846625  0.09415679  0.03698347  1  0.096872  0  0.128002  0.053807  0  0.984281  0
H  H29  1  0.61153429  0.90584395  0.96301675  1  0.096872  0  0.128015  0.053829  0  0.984282  0
H  H30  1  0.48927642  0.17775293  0.92525420  1  0.088877  0  0.103524  0.125732  0  0.995474  0
H  H31  1  0.51072324  0.82224656  0.07474567  1  0.088885  0  0.103525  0.125738  0  0.995477  0
H  H32  1  0.48933334  0.06804354  0.88775845  1  0.070798  0  0.100479  0.119217  0  1.010124  0
H  H33  1  0.51066720  0.93195720  0.11224126  1  0.070796  0  0.100486  0.119225  0  1.01014  0
H  H34  1  0.50775960  0.11336447  0.98324209  1  0.078193  0  0.102466  0.110688  0  1.0401  0
H  H35  1  0.49224085  0.88663564  0.01675696  1  0.078174  0  0.10246  0.11069  0  1.040096  0
H  H36  1  0.23426513  0.08812937  0.87696630  1  0.07224  0  0.10559  0.126526  0  1.012774  0
H  H37  1  0.76573454  0.91187012  0.12303459  1  0.072236  0  0.105603  0.126539  0  1.012753  0
H  H38  1  0.32636591  0.06121681  0.82307543  1  0.079643  0  0.103791  0.131028  0  1.016578  0
H  H39  1  0.67363305  0.93878267  0.17692438  1  0.079645  0  0.103785  0.131076  0  1.016549  0
H  H40  1  0.31589151  0.16802306  0.86351564  1  0.082119  0  0.10046  0.119542  0  1.037293  0
H  H41  1  0.68410746  0.83197643  0.13648468  1  0.082099  0  0.100502  0.119592  0  1.037213  0
H  H42  1  0.28510569  0.14926545  0.20683869  1  0.162181  0  0.123349  0.101577  0  1.042928  0
H  H43  1  0.71489554  0.85073529  0.79316261  1  0.162177  0  0.123342  0.101556  0  1.043011  0
H  H44  1  0.34462791  0.28799601  0.29377710  1  0.130654  0  0.108036  0.118864  0  1.04607  0
H  H45  1  0.65537193  0.71200473  0.70622460  1  0.130669  0  0.108063  0.118905  0  1.046055  0
H  H46  1  0.28672900  0.41705994  0.27146473  1  0.124298  0  0.116272  0.119929  0  1.003755  0
H  H47  1  0.71327102  0.58294205  0.72853624  1  0.124347  0  0.116254  0.11993  0  1.003756  0
H  H48  1  0.11125892  0.25568001  0.08269888  1  0.137019  0  0.122259  0.095936  0  1.04026  0
H  H49  1  0.88874102  0.74432135  0.91730297  1  0.136978  0  0.122229  0.095925  0  1.040274  0
H  H50  1  0.09363367  0.40009083  0.11452758  1  0.07876  0  0.103087  0.036053  0  1.006872  0
H  H51  1  0.90636687  0.59990991  0.88547367  1  0.07872  0  0.103115  0.036114  0  1.00685  0
H  H52  1  0.80840710  0.71024216  0.60782915  1  0.11762  0  0.12984  0.052326  0  0.996819  0
H  H53  1  0.19159187  0.28975733  0.39216964  1  0.11765  0  0.129834  0.052371  0  0.996789  0
H  H54  1  0.99889813  0.56945240  0.64650760  1  0.098298  0  0.108084  0.130314  0  0.996843  0
H  H55  1  0.00109875  0.43054708  0.35349306  1  0.098164  0  0.108061  0.130252  0  0.996907  0
H  H56  1  0.97734697  0.60917256  0.73631582  1  0.063222  0  0.10395  0.122324  0  1.013034  0
H  H57  1  0.02265069  0.39082755  0.26368402  1  0.063214  0  0.103969  0.122335  0  1.013025  0
H  H58  1  0.88764047  0.53964349  0.67142637  1  0.089351  0  0.112065  0.137989  0  0.989752  0
H  H59  1  0.11235728  0.46035724  0.32857414  1  0.089375  0  0.112074  0.138011  0  0.98974  0
H  H60  1  0.97084029  0.76090402  0.75156564  1  0.072882  0  0.102313  0.12178  0  0.999868  0
H  H61  1  0.02915746  0.23909671  0.24843436  1  0.072891  0  0.102316  0.121769  0  0.999835  0
H  H62  1  0.03411006  0.74103891  0.67624778  1  0.071975  0  0.095785  0.10634  0  1.028477  0
H  H63  1  0.96588838  0.25896182  0.32375227  1  0.071985  0  0.095779  0.106321  0  1.02845  0
H  H64  1  0.92989521  0.79046995  0.67368505  1  0.058329  0  0.107184  0.119262  0  1.014899  0
H  H65  1  0.07010315  0.20953016  0.32631434  1  0.058363  0  0.107208  0.11924  0  1.014897  0
H  H66  1  0.61484809  0.33684530  0.52754059  1  0.076541  0  0.118575  0.08435  0  1.004031  0
H  H67  1  0.38514931  0.66315293  0.47245932  1  0.076583  0  0.118582  0.084358  0  1.003987  0
H  H68  1  0.69386003  0.21543848  0.54258469  1  0.139821  0  0.11176  0.12764  0  0.991566  0
H  H69  1  0.30613797  0.78455913  0.45741411  1  0.139925  0  0.111731  0.127589  0  0.991553  0
H  H70  1  0.86812567  0.22035643  0.53554207  1  0.109237  0  0.114018  0.112214  0  0.996576  0
H  H71  1  0.13187251  0.77964243  0.46445703  1  0.109231  0  0.113959  0.112174  0  0.996606  0
H  H72  1  0.86246969  0.46470245  0.50096807  1  0.161281  0  0.129851  0.107632  0  0.996487  0
H  H73  1  0.13752770  0.53529578  0.49903133  1  0.161224  0  0.12987  0.107676  0  0.996491  0
H  H74  1  0.00892751  0.28821965  0.52023597  1  0.053129  0  0.09847  0.035144  0  0.966341  0
H  H75  1  0.99107163  0.71178109  0.47976465  1  0.05287  0  0.098477  0.035161  0  0.966282  0
H  H76  1  0.11452094  0.76018284  0.92013266  1  0.066339  0  0.110623  0.079883  0  0.986531  0
H  H77  1  0.88548179  0.23981853  0.07986890  1  0.066316  0  0.110623  0.079873  0  0.986545  0
H  H78  1  0.21037380  0.64844466  0.86750477  1  0.098013  0  0.104522  0.117514  0  1.026058  0
H  H79  1  0.78962516  0.35155482  0.13249504  1  0.098012  0  0.104515  0.117522  0  1.026012  0
H  H80  1  0.21926046  0.52647799  0.92092676  1  0.111645  0  0.111196  0.117441  0  1.00905  0
H  H81  1  0.78073842  0.47352087  0.07907239  1  0.111667  0  0.111201  0.117459  0  1.009027  0
H  H82  1  0.04151004  0.64285077  0.07128775  1  0.108998  0  0.11129  0.088436  0  1.002091  0
H  H83  1  0.95849093  0.35714810  0.92871208  1  0.108994  0  0.111293  0.088413  0  1.002111  0
H  H84  1  0.09432830  0.51744558  0.08189498  1  0.085644  0  0.100429  0.035073  0  1.024059  0
H  H85  1  0.90566997  0.48255391  0.91810529  1  0.085617  0  0.100434  0.035102  0  1.024073  0
H  H86  1  0.05320588  0.01699354  0.58461402  1  0.121945  0  0.108043  0.071077  0  1.026418  0
H  H87  1  0.94679527  0.98300658  0.41538662  1  0.121957  0  0.108041  0.071073  0  1.026447  0
H  H88  1  0.01491876  0.03323390  0.70878345  1  0.083298  0  0.099775  0.105317  0  1.026209  0
H  H89  1  0.98508161  0.96676559  0.29121647  1  0.083309  0  0.099781  0.10535  0  1.026147  0
H  H90  1  0.86042832  0.95915798  0.72513542  1  0.123561  0  0.118419  0.126966  0  0.985537  0
H  H91  1  0.13957064  0.04084151  0.27486388  1  0.123558  0  0.118427  0.126981  0  0.985503  0
H  H92  1  0.80287645  0.86656600  0.49487436  1  0.096649  0  0.108309  0.071914  0  1.033477  0
H  H93  1  0.19712531  0.13343350  0.50512466  1  0.096654  0  0.108289  0.071887  0  1.033511  0
H  H94  1  0.68977513  0.82499928  0.56089373  1  0.088283  0  0.109091  0.051821  0  0.958627  0
H  H95  1  0.31022332  0.17500146  0.43910581  1  0.088294  0  0.109098  0.051811  0  0.95866  0
H  H96  1  0.67589140  0.68405725  0.96769198  1  0.087803  0  0.108725  0.077698  0  1.007503  0
H  H97  1  0.32410984  0.31594349  0.03230880  1  0.087794  0  0.108739  0.077712  0  1.007467  0
H  H98  1  0.59290162  0.75816306  0.88836991  1  0.08023  0  0.10029  0.100185  0  1.031349  0
H  H99  1  0.40710058  0.24183956  0.11163292  1  0.080394  0  0.100281  0.100169  0  1.031486  0
H  H100  1  0.44724471  0.68126569  0.80448212  1  0.083781  0  0.09819  0.091345  0  1.02919  0
H  H101  1  0.55275802  0.31874068  0.19551904  1  0.083717  0  0.098164  0.091344  0  1.02913  0
H  H102  1  0.48320777  0.47146417  0.88963958  1  0.094276  0  0.112699  0.082193  0  0.994308  0
H  H103  1  0.51679015  0.52853781  0.11035816  1  0.094238  0  0.112696  0.082204  0  0.994321  0
H  H104  1  0.35665845  0.45600637  0.79586680  1  0.089289  0  0.098046  0.036269  0  1.024119  0
H  H105  1  0.64334453  0.54399688  0.20413521  1  0.089242  0  0.098043  0.036222  0  1.024092  0
C  C106  1  0.98888231  0.86764905  0.05811394  1  1.654926  0  0.234095  0.635648  0  4.181414  0
C  C107  1  0.01111936  0.13234982  0.94188595  1  1.655025  0  0.234111  0.635665  0  4.181265  0
C  C108  1  0.96565020  0.81531801  0.10731978  1  0.067415  0  0.001999  -0.008015  0  3.927327  0
C  C109  1  0.03434938  0.18468085  0.89267994  1  0.067312  0  0.002015  -0.007983  0  3.927392  0
C  C110  1  0.02536416  0.82495739  0.17083172  1  0.001676  0  -0.052426  -0.092978  0  3.879741  0
C  C111  1  0.97463611  0.17504148  0.82916806  1  0.001749  0  -0.05243  -0.093015  0  3.879788  0
C  C112  1  0.99859536  0.78537859  0.22094481  1  0.240958  0  0.082881  0.023283  0  3.906331  0
C  C113  1  0.00140474  0.21461903  0.77905517  1  0.24091  0  0.082888  0.023306  0  3.906352  0
C  C114  1  0.91232167  0.73367988  0.21030790  1  0.128476  0  0.0288  0.027201  0  3.950854  0
C  C115  1  0.08767860  0.26631899  0.78969239  1  0.128494  0  0.028784  0.027102  0  3.95084  0
C  C116  1  0.85638240  0.72218673  0.14393897  1  0.235365  0  0.087581  0.029364  0  3.884835  0
C  C117  1  0.14361779  0.27781151  0.85606117  1  0.235209  0  0.087581  0.02939  0  3.884852  0
C  C118  1  0.88107593  0.76247355  0.09372319  1  0.027577  0  -0.044592  -0.081275  0  3.87426  0
C  C119  1  0.11892252  0.23752719  0.90627686  1  0.027698  0  -0.044617  -0.081321  0  3.874331  0
C  C120  1  0.87667559  0.70103635  0.26775746  1  0.095844  0  0.030352  0.030398  0  3.928742  0
C  C121  1  0.12332399  0.29896252  0.73224226  1  0.095839  0  0.030414  0.030544  0  3.928756  0
C  C122  1  0.82518534  0.74838048  0.31765008  1  0.24257  0  0.083918  0.035205  0  3.874613  0
C  C123  1  0.17481363  0.25161901  0.68234973  1  0.242544  0  0.083948  0.035153  0  3.874621  0
C  C124  1  0.78880438  0.71750890  0.36978852  1  0.001114  0  -0.055503  -0.104118  0  3.907929  0
C  C125  1  0.21119677  0.28249121  0.63021263  1  0.001124  0  -0.055515  -0.104117  0  3.907928  0
C  C126  1  0.80044665  0.63717047  0.37363934  1  0.010621  0  0.002816  0.009035  0  3.921293  0
C  C127  1  0.19955240  0.36282964  0.62636062  1  0.010774  0  0.002823  0.009006  0  3.921277  0
C  C128  1  0.84951848  0.58753688  0.32458544  1  0.090792  0  -0.044339  -0.083594  0  3.867938  0
C  C129  1  0.15047970  0.41246198  0.67541467  1  0.091327  0  -0.044317  -0.083587  0  3.867953  0
C  C130  1  0.88734896  0.62013727  0.27377580  1  0.230518  0  0.088725  0.03415  0  3.86763  0
C  C131  1  0.11265001  0.37986222  0.72622452  1  0.230074  0  0.088655  0.03409  0  3.867654  0
C  C132  1  0.75549191  0.60540516  0.42844716  1  1.581536  0  0.192593  0.573582  0  4.225523  0
C  C133  1  0.24450845  0.39459433  0.57155276  1  1.581524  0  0.192567  0.573616  0  4.225537  0
C  C134  1  0.04677033  0.93016106  0.87746655  1  1.575478  0  0.220862  0.611396  0  4.184918  0
C  C135  1  0.95322960  0.06984031  0.12253376  1  1.575491  0  0.220831  0.611347  0  4.184817  0
C  C136  1  0.13106688  0.91145375  0.84072357  1  0.007967  0  0.006714  0.006516  0  3.918984  0
C  C137  1  0.86893305  0.08854762  0.15927777  1  0.008236  0  0.006722  0.006538  0  3.918981  0
C  C138  1  0.21200867  0.89617802  0.87865586  1  0.024883  0  -0.048156  -0.110147  0  3.872463  0
C  C139  1  0.78799082  0.10382021  0.12134422  1  0.024668  0  -0.048149  -0.11012  0  3.872456  0
C  C140  1  0.28504746  0.86832082  0.84182489  1  0.239257  0  0.088929  0.037005  0  3.914482  0
C  C141  1  0.71495272  0.13167742  0.15817575  1  0.239203  0  0.088906  0.036945  0  3.914535  0
C  C142  1  0.28207570  0.85458847  0.76769254  1  0.118917  0  0.022533  0.011333  0  3.98161  0
C  C143  1  0.71792466  0.14541102  0.23230790  1  0.118927  0  0.022583  0.01137  0  3.981671  0
C  C144  1  0.20133438  0.87540239  0.73250216  1  0.141447  0  0.084656  0.028174  0  3.888892  0
C  C145  1  0.79866694  0.12459897  0.26749929  1  0.141163  0  0.084654  0.028175  0  3.888873  0
C  C146  1  0.12626997  0.90206232  0.76746173  1  0.030871  0  -0.050446  -0.099622  0  3.898781  0
C  C147  1  0.87373057  0.09793842  0.23253901  1  0.031137  0  -0.050409  -0.09957  0  3.898769  0
C  C148  1  0.34605152  0.80236803  0.72631226  1  0.178901  0  0.012815  -0.012735  0  3.995148  0
C  C149  1  0.65394945  0.19763083  0.27368808  1  0.17899  0  0.012818  -0.012704  0  3.99515  0
C  C150  1  0.31564737  0.71707715  0.69360192  1  0.143589  0  0.086437  0.030076  0  3.900989  0
C  C151  1  0.68435299  0.28292234  0.30639852  1  0.143511  0  0.086432  0.03003  0  3.900931  0
C  C152  1  0.36734640  0.66550061  0.64874117  1  -0.006927  0  -0.044792  -0.096235  0  3.885185  0
C  C153  1  0.63265397  0.33449888  0.35125977  1  -0.007297  0  -0.044774  -0.096212  0  3.885239  0
C  C154  1  0.45515976  0.69846297  0.63762979  1  0.037566  0  0.00345  -0.001855  0  3.911891  0
C  C155  1  0.54484183  0.30153527  0.36237097  1  0.037561  0  0.003421  -0.001918  0  3.911893  0
C  C156  1  0.49143649  0.78153702  0.67342799  1  0.03746  0  -0.052538  -0.107809  0  3.858677  0
C  C157  1  0.50856430  0.21846059  0.32657154  1  0.037374  0  -0.05255  -0.107806  0  3.858825  0
C  C158  1  0.43609557  0.83143555  0.71586138  1  0.154189  0  0.090197  0.051193  0  3.925714  0
C  C159  1  0.56390340  0.16856394  0.28413894  1  0.15402  0  0.090168  0.051148  0  3.925813  0
C  C160  1  0.51024275  0.64589663  0.58648938  1  1.612793  0  0.223972  0.615877  0  4.179379  0
C  C161  1  0.48975953  0.35410162  0.41351296  1  1.612828  0  0.224062  0.615964  0  4.179475  0
C  C162  1  0.46512872  0.54906457  0.37809722  1  1.629026  0  0.231142  0.634177  0  4.172083  0
C  C163  1  0.53487313  0.45093555  0.62190245  1  1.629092  0  0.2311  0.634027  0  4.172154  0
C  C164  1  0.43784548  0.59834023  0.32664002  1  0.047477  0  -0.004683  -0.018171  0  3.9309  0
C  C165  1  0.56215497  0.40165989  0.67335954  1  0.047479  0  -0.004716  -0.018218  0  3.931042  0
C  C166  1  0.34302945  0.60344514  0.30686906  1  0.036473  0  -0.046348  -0.089753  0  3.898941  0
C  C167  1  0.65697031  0.39655497  0.69313198  1  0.03647  0  -0.046404  -0.089838  0  3.898985  0
C  C168  1  0.31818954  0.65744743  0.26715054  1  0.240253  0  0.091211  0.041821  0  3.879284  0
C  C169  1  0.68180934  0.34255143  0.73284963  1  0.240083  0  0.091234  0.041883  0  3.879208  0
C  C170  1  0.38505534  0.70873346  0.24539797  1  0.109087  0  0.030987  0.029396  0  3.957886  0
C  C171  1  0.61494267  0.29126415  0.75460083  1  0.109022  0  0.030999  0.029444  0  3.9578  0
C  C172  1  0.47965386  0.69824347  0.26311400  1  0.239428  0  0.08297  0.025559  0  3.900601  0
C  C173  1  0.52034345  0.30175413  0.73688371  1  0.239404  0  0.083059  0.025597  0  3.900662  0
C  C174  1  0.50626275  0.64498913  0.30337055  1  0.035549  0  -0.054428  -0.096748  0  3.904481  0
C  C175  1  0.49373621  0.35501036  0.69662721  1  0.035619  0  -0.054407  -0.096703  0  3.904509  0
C  C176  1  0.35658349  0.77349397  0.21052711  1  0.033593  0  0.027125  0.022564  0  3.952135  0
C  C177  1  0.64341687  0.22650552  0.78947128  1  0.033705  0  0.027159  0.022613  0  3.952093  0
C  C178  1  0.34016454  0.85310494  0.25066339  1  0.291094  0  0.085331  0.032988  0  3.860064  0
C  C179  1  0.65983870  0.14689518  0.74933538  1  0.2904  0  0.085283  0.032821  0  3.860187  0
C  C180  1  0.30872075  0.91220307  0.21861307  1  0.011021  0  -0.049283  -0.090575  0  3.894778  0
C  C181  1  0.69128337  0.08779830  0.78138657  1  0.012124  0  -0.04916  -0.090359  0  3.894674  0
C  C182  1  0.29322430  0.89398959  0.14437008  1  -0.010393  0  0.001105  0.006787  0  3.922971  0
C  C183  1  0.70677555  0.10601115  0.85563009  1  -0.01073  0  0.00107  0.006658  0  3.922981  0
C  C184  1  0.31180447  0.81727184  0.10252029  1  0.101223  0  -0.046709  -0.085547  0  3.868765  0
C  C185  1  0.68819337  0.18272952  0.89747934  1  0.101166  0  -0.046671  -0.085404  0  3.868785  0
C  C186  1  0.34319207  0.75911606  0.13572007  1  0.263127  0  0.08342  0.025556  0  3.903745  0
C  C187  1  0.65680647  0.24088530  0.86427911  1  0.263235  0  0.083421  0.025491  0  3.903709  0
C  C188  1  0.25461710  0.95644109  0.11080593  1  1.566253  0  0.191943  0.573577  0  4.232029  0
C  C189  1  0.74538292  0.04356090  0.88919453  1  1.566219  0  0.191956  0.573594  0  4.2321  0
C  C190  1  0.33441188  0.09476720  0.99262770  1  1.362539  0  0.187511  0.329855  0  4.081674  0
C  C191  1  0.66558979  0.90523166  0.00737117  1  1.362582  0  0.187504  0.329824  0  4.081817  0
C  C192  1  0.46964710  0.11572593  0.93242293  1  0.250983  0  -0.135567  -0.2787  0  3.89652  0
C  C193  1  0.53035344  0.88427481  0.06757729  1  0.251018  0  -0.135557  -0.278707  0  3.896517  0
C  C194  1  0.30713451  0.10485004  0.87033013  1  0.25958  0  -0.143775  -0.283833  0  3.86794  0
C  C195  1  0.69286516  0.89514945  0.12966973  1  0.259585  0  -0.14381  -0.283942  0  3.867883  0
C  C196  1  0.26123985  0.20625002  0.19842323  1  0.402568  0  0.062905  0.116543  0  3.893785  0
C  C197  1  0.73876078  0.79375135  0.80157867  1  0.402535  0  0.062874  0.116529  0  3.893864  0
C  C198  1  0.29514736  0.28416499  0.24655431  1  0.055626  0  -0.081341  -0.127299  0  3.94663  0
C  C199  1  0.70485336  0.71583700  0.75344775  1  0.055288  0  -0.0813  -0.127241  0  3.946544  0
C  C200  1  0.26225857  0.35532346  0.23473113  1  -0.052347  0  -0.050212  -0.029218  0  3.88412  0
C  C201  1  0.73774136  0.64467791  0.76527072  1  -0.051925  0  -0.050242  -0.029353  0  3.884175  0
C  C202  1  0.19441967  0.34557595  0.17512653  1  -0.108486  0  -0.018384  -0.040461  0  4.017462  0
C  C203  1  0.80557948  0.65442479  0.82487562  1  -0.108501  0  -0.018362  -0.040364  0  4.017347  0
C  C204  1  0.16383711  0.26534115  0.12973413  1  0.507955  0  0.061442  0.071723  0  3.921452  0
C  C205  1  0.83616282  0.73466022  0.87026823  1  0.507951  0  0.061437  0.071626  0  3.921539  0
C  C206  1  0.15304100  0.41693653  0.15916836  1  0.942201  0  0.102637  0.277164  0  3.977569  0
C  C207  1  0.84695954  0.58306421  0.84083339  1  0.942448  0  0.102635  0.277138  0  3.977479  0
C  C208  1  0.82842260  0.65265994  0.61917390  1  1.378805  0  0.191735  0.336712  0  4.086152  0
C  C209  1  0.17157794  0.34734080  0.38082479  1  1.378782  0  0.191702  0.336633  0  4.086165  0
C  C210  1  0.94497167  0.59048684  0.68026302  1  0.26874  0  -0.136873  -0.278149  0  3.876765  0
C  C211  1  0.05502538  0.40951389  0.31973743  1  0.268812  0  -0.136886  -0.27811  0  3.876705  0
C  C212  1  0.96394372  0.74310939  0.69286519  1  0.268754  0  -0.134388  -0.2742  0  3.916737  0
C  C213  1  0.03605473  0.25689135  0.30713486  1  0.2687  0  -0.134381  -0.274093  0  3.916646  0
C  C214  1  0.68999081  0.33713341  0.52533530  1  0.420203  0  0.051436  0.104412  0  3.958703  0
C  C215  1  0.31000580  0.66286419  0.47466338  1  0.42029  0  0.051438  0.10439  0  3.958737  0
C  C216  1  0.73408307  0.26903575  0.53332049  1  0.037292  0  -0.081593  -0.118688  0  3.956379  0
C  C217  1  0.26591354  0.73096185  0.46667768  1  0.03738  0  -0.081503  -0.118521  0  3.956361  0
C  C218  1  0.82999258  0.27191531  0.52941289  1  -0.046783  0  -0.052136  -0.036113  0  3.9262  0
C  C219  1  0.17000491  0.72808355  0.47058665  1  -0.04692  0  -0.052161  -0.036203  0  3.926265  0
C  C220  1  0.87735582  0.34255932  0.51709679  1  -0.000922  0  -0.021389  -0.049556  0  3.995326  0
C  C221  1  0.12264079  0.65743829  0.48290240  1  -0.000712  0  -0.021422  -0.049646  0  3.995274  0
C  C222  1  0.82702018  0.40886709  0.51033967  1  0.501269  0  0.077388  0.114804  0  3.870823  0
C  C223  1  0.17297861  0.59113115  0.48966036  1  0.501079  0  0.07737  0.114775  0  3.870905  0
C  C224  1  0.97831397  0.34375165  0.51018654  1  0.949962  0  0.100668  0.276959  0  3.968816  0
C  C225  1  0.02168212  0.65624721  0.48981238  1  0.950125  0  0.100741  0.27705  0  3.968782  0
C  C226  1  0.12013668  0.70679943  0.94195402  1  0.520611  0  0.050386  0.10271  0  3.956096  0
C  C227  1  0.87986447  0.29320069  0.05804713  1  0.520648  0  0.050394  0.102733  0  3.956132  0
C  C228  1  0.17398186  0.64427801  0.91247324  1  0.025937  0  -0.084542  -0.127625  0  3.973204  0
C  C229  1  0.82601850  0.35572148  0.08752668  1  0.025947  0  -0.084552  -0.127639  0  3.973116  0
C  C230  1  0.17873428  0.57728684  0.94150420  1  -0.041127  0  -0.057636  -0.033837  0  3.903609  0
C  C231  1  0.82126678  0.42271265  0.05849527  1  -0.041107  0  -0.057707  -0.033947  0  3.903644  0
C  C232  1  0.12990852  0.57581373  0.99934924  1  -0.046338  0  -0.024444  -0.044965  0  4.014243  0
C  C233  1  0.87009106  0.42418513  0.00064997  1  -0.046363  0  -0.024376  -0.04485  0  4.014415  0
C  C234  1  0.07926111  0.64243641  0.02572844  1  0.48707  0  0.05159  0.066932  0  3.948747  0
C  C235  1  0.92073847  0.35756245  0.97427128  1  0.487066  0  0.051595  0.066953  0  3.948853  0
C  C236  1  0.12807046  0.50623766  0.03228484  1  0.924558  0  0.095141  0.270281  0  3.968236  0
C  C237  1  0.87192999  0.49376246  0.96771626  1  0.924598  0  0.09514  0.270215  0  3.968389  0
C  C238  1  0.98748866  0.98600083  0.59370363  1  0.508177  0  0.05708  0.12385  0  3.932472  0
C  C239  1  0.01251240  0.01399866  0.40629686  1  0.508153  0  0.057088  0.123895  0  3.932618  0
C  C240  1  0.96543535  0.99482370  0.66317565  1  -0.067329  0  -0.093614  -0.147229  0  3.98522  0
C  C241  1  0.03456519  0.00517704  0.33682457  1  -0.067286  0  -0.093681  -0.147389  0  3.985293  0
C  C242  1  0.88080441  0.95483418  0.67227678  1  -0.051816  0  -0.05622  -0.039106  0  3.89461  0
C  C243  1  0.11919656  0.04516469  0.32772305  1  -0.051855  0  -0.056222  -0.039085  0  3.894527  0
C  C244  1  0.82068180  0.90718754  0.61054543  1  -0.05694  0  -0.02544  -0.053112  0  4.04043  0
C  C245  1  0.17931813  0.09281382  0.38945386  1  -0.057376  0  -0.025352  -0.053023  0  4.040318  0
C  C246  1  0.84929232  0.90238024  0.54353408  1  0.551761  0  0.058892  0.075094  0  3.949386  0
C  C247  1  0.15070883  0.09761988  0.45646502  1  0.551253  0  0.058871  0.075072  0  3.949329  0
C  C248  1  0.72877143  0.86339882  0.61346814  1  0.910249  0  0.105363  0.274607  0  3.958945  0
C  C249  1  0.27122981  0.13660192  0.38653112  1  0.910718  0  0.105368  0.274635  0  3.958978  0
C  C250  1  0.61229964  0.65301469  0.93114827  1  0.56097  0  0.05357  0.112223  0  3.94575  0
C  C251  1  0.38770116  0.34698793  0.06885291  1  0.561052  0  0.053612  0.112295  0  3.945822  0
C  C252  1  0.56595809  0.69459599  0.88680141  1  -0.135444  0  -0.09149  -0.141007  0  3.999779  0
C  C253  1  0.43404140  0.30540725  0.11319930  1  -0.135445  0  -0.091442  -0.140955  0  3.999957  0
C  C254  1  0.48598167  0.65264594  0.84071885  1  -0.01246  0  -0.065618  -0.041331  0  3.937361  0
C  C255  1  0.51401852  0.34735730  0.15928089  1  -0.012466  0  -0.065577  -0.041316  0  3.937316  0
C  C256  1  0.45521362  0.57050711  0.84059851  1  0.015278  0  -0.025483  -0.049853  0  4.027059  0
C  C257  1  0.54478815  0.42949738  0.15940164  1  0.014946  0  -0.025597  -0.050001  0  4.027258  0
C  C258  1  0.50635588  0.53498536  0.88778468  1  0.517708  0  0.062877  0.081115  0  3.935891  0
C  C259  1  0.49364353  0.46501725  0.11221434  1  0.517904  0  0.06289  0.08107  0  3.93597  0
C  C260  1  0.37107558  0.52167477  0.79352414  1  0.890618  0  0.095324  0.276359  0  3.953539  0
C  C261  1  0.62892635  0.47832597  0.20647466  1  0.890905  0  0.09547  0.276629  0  3.953488  0
N  N262  1  0.06206391  0.80370346  0.28879695  1  0.372742  0  0.05689  0.515926  0  4.205579  0
N  N263  1  0.93793811  0.19629291  0.71120291  1  0.372881  0  0.056925  0.51601  0  4.205581  0
N  N264  1  0.76516370  0.66908345  0.12663341  1  0.402294  0  0.063133  0.526948  0  4.195432  0
N  N265  1  0.23483718  0.33091479  0.87336525  1  0.401726  0  0.063151  0.52698  0  4.195414  0
N  N266  1  0.80754280  0.83416807  0.31829460  1  0.378586  0  0.059592  0.517408  0  4.186984  0
N  N267  1  0.19245547  0.16583142  0.68170515  1  0.378575  0  0.059604  0.517523  0  4.186882  0
N  N268  1  0.93694392  0.56420411  0.22242919  1  0.393836  0  0.06407  0.5221  0  4.180112  0
N  N269  1  0.06305348  0.43579412  0.77757072  1  0.393751  0  0.064038  0.522088  0  4.180184  0
N  N270  1  0.36480899  0.84620637  0.88347375  1  0.391613  0  0.061912  0.517207  0  4.182532  0
N  N271  1  0.63519120  0.15379187  0.11652639  1  0.39181  0  0.061925  0.51716  0  4.182561  0
N  N272  1  0.19176383  0.86476981  0.65449096  1  0.380602  0  0.060936  0.513503  0  4.188304  0
N  N273  1  0.80823776  0.13523344  0.34551043  1  0.381331  0  0.06087  0.513463  0  4.187881  0
N  N274  1  0.22353699  0.67907652  0.70400202  1  0.387066  0  0.062547  0.514855  0  4.205305  0
N  N275  1  0.77646215  0.32092421  0.29599707  1  0.387085  0  0.062599  0.514926  0  4.205012  0
N  N276  1  0.47393124  0.91931245  0.75053732  1  0.351492  0  0.060228  0.511839  0  4.216152  0
N  N277  1  0.52606764  0.08068641  0.24946285  1  0.351108  0  0.060145  0.511749  0  4.216277  0
N  N278  1  0.21735937  0.66285259  0.25125593  1  0.393268  0  0.059914  0.528349  0  4.189872  0
N  N279  1  0.78263987  0.33714877  0.74874433  1  0.393251  0  0.059943  0.528285  0  4.189919  0
N  N280  1  0.55547558  0.74580090  0.24080980  1  0.356835  0  0.058553  0.523207  0  4.178062  0
N  N281  1  0.44452191  0.25419796  0.75918923  1  0.356931  0  0.058591  0.523318  0  4.177964  0
N  N282  1  0.35746107  0.87931538  0.32981258  1  0.376107  0  0.062694  0.524331  0  4.182539  0
N  N283  1  0.64254749  0.12068788  0.67018681  1  0.376035  0  0.062688  0.524569  0  4.182156  0
N  N284  1  0.36458554  0.68011408  0.08897262  1  0.365508  0  0.058982  0.509311  0  4.195861  0
N  N285  1  0.63541012  0.31988665  0.91102568  1  0.365357  0  0.059072  0.509429  0  4.195723  0
N  N286  1  0.36874116  0.10242669  0.93383627  1  -1.191475  0  -0.273931  0.044402  0  3.693954  0
N  N287  1  0.63126060  0.89757280  0.06616325  1  -1.19144  0  -0.27398  0.044408  0  3.693953  0
N  N288  1  0.19686910  0.19636275  0.14028421  1  -1.231484  0  -0.36788  -0.334607  0  3.475505  0
N  N289  1  0.80313075  0.80363799  0.85971748  1  -1.231548  0  -0.367901  -0.334582  0  3.475525  0
N  N290  1  0.90816548  0.66196542  0.66294508  1  -1.219487  0  -0.277044  0.033929  0  3.735004  0
N  N291  1  0.09183366  0.33803531  0.33705452  1  -1.21947  0  -0.277091  0.033835  0  3.734919  0
N  N292  1  0.73464927  0.40647188  0.51450142  1  -1.233348  0  -0.344112  -0.327819  0  3.457479  0
N  N293  1  0.26534873  0.59352573  0.48549788  1  -1.233398  0  -0.344098  -0.327803  0  3.457562  0
N  N294  1  0.07338694  0.70678556  0.99760508  1  -1.200318  0  -0.318622  -0.262133  0  3.344413  0
N  N295  1  0.92661421  0.29321455  0.00239607  1  -1.200385  0  -0.318625  -0.262119  0  3.344412  0
N  N296  1  0.93075476  0.94044296  0.53433102  1  -1.17281  0  -0.315409  -0.251036  0  3.293233  0
N  N297  1  0.06924578  0.05955778  0.46566869  1  -1.172249  0  -0.315386  -0.251007  0  3.293184  0
N  N298  1  0.58364946  0.57486827  0.93238063  1  -1.163047  0  -0.316402  -0.243592  0  3.281578  0
N  N299  1  0.41634855  0.42513434  0.06761930  1  -1.16309  0  -0.316448  -0.243649  0  3.281654  0
O  O300  1  0.06096334  0.92146471  0.08016165  1  -1.196201  0  -0.373519  -0.63172  0  2.35296  0
O  O301  1  0.93903694  0.07853415  0.91983710  1  -1.196199  0  -0.373505  -0.631746  0  2.352932  0
O  O302  1  0.93140776  0.85780278  0.00149837  1  -1.199356  0  -0.384707  -0.65311  0  2.34695  0
O  O303  1  0.06859321  0.14219608  0.99850095  1  -1.199376  0  -0.384757  -0.653164  0  2.346974  0
O  O304  1  0.72414108  0.65773335  0.47772290  1  -1.171582  0  -0.370626  -0.619638  0  2.209828  0
O  O305  1  0.27585849  0.34226551  0.52227784  1  -1.17159  0  -0.370575  -0.619641  0  2.20985  0
O  O306  1  0.74658870  0.52707085  0.42265522  1  -1.146098  0  -0.376063  -0.614303  0  2.250954  0
O  O307  1  0.25341158  0.47292801  0.57734404  1  -1.146111  0  -0.376092  -0.614359  0  2.251004  0
O  O308  1  0.14220336  0.83954733  0.29209999  1  -0.460107  0  -0.125556  -0.335804  0  2.00937  0
O  O309  1  0.85779961  0.16044591  0.70789872  1  -0.460119  0  -0.125547  -0.335825  0  2.009306  0
O  O310  1  0.03175407  0.78382228  0.33977375  1  -0.462082  0  -0.115313  -0.323293  0  1.985132  0
O  O311  1  0.96824743  0.21617533  0.66022635  1  -0.462245  0  -0.115376  -0.323368  0  1.985195  0
O  O312  1  0.70082210  0.68998040  0.09060352  1  -0.444368  0  -0.10656  -0.314988  0  1.991428  0
O  O313  1  0.29917790  0.31001658  0.90939478  1  -0.443811  0  -0.106571  -0.31499  0  1.991405  0
O  O314  1  0.75799991  0.60651100  0.14924580  1  -0.483194  0  -0.111697  -0.331663  0  2.037717  0
O  O315  1  0.24200167  0.39348724  0.85075292  1  -0.483162  0  -0.111691  -0.331677  0  2.037651  0
O  O316  1  0.83611478  0.86432952  0.27168365  1  -0.464854  0  -0.121758  -0.329037  0  1.981521  0
O  O317  1  0.16388419  0.13566997  0.72831616  1  -0.464883  0  -0.121752  -0.32905  0  1.981455  0
O  O318  1  0.76522377  0.87240977  0.36596480  1  -0.449692  0  -0.118983  -0.3154  0  1.917038  0
O  O319  1  0.23477389  0.12759034  0.63403454  1  -0.44965  0  -0.118981  -0.315437  0  1.917034  0
O  O320  1  0.97399054  0.59226252  0.17797124  1  -0.450095  0  -0.107621  -0.321257  0  2.031353  0
O  O321  1  0.02600494  0.40773696  0.82202829  1  -0.450047  0  -0.107598  -0.321293  0  2.031437  0
O  O322  1  0.93764957  0.49155089  0.22616854  1  -0.452096  0  -0.107082  -0.310705  0  1.987084  0
O  O323  1  0.06234782  0.50844734  0.77383137  1  -0.452032  0  -0.107073  -0.310657  0  1.987088  0
O  O324  1  0.05897801  0.96159837  0.94534711  1  -1.190633  0  -0.412165  -0.705153  0  2.456834  0
O  O325  1  0.94102017  0.03840049  0.05465301  1  -1.190592  0  -0.412182  -0.705201  0  2.456807  0
O  O326  1  0.96598675  0.91098099  0.84104453  1  -1.1595  0  -0.341547  -0.580804  0  2.187434  0
O  O327  1  0.03401414  0.08902225  0.15895526  1  -1.159511  0  -0.341545  -0.580784  0  2.187415  0
O  O328  1  0.46722118  0.57937265  0.54121055  1  -1.213534  0  -0.408063  -0.725279  0  2.492876  0
O  O329  1  0.53278328  0.42062622  0.45879109  1  -1.213556  0  -0.408054  -0.725285  0  2.492871  0
O  O330  1  0.59688971  0.66834980  0.58854848  1  -1.168056  0  -0.344495  -0.575885  0  2.213664  0
O  O331  1  0.40311274  0.33164969  0.41145366  1  -1.167976  0  -0.344571  -0.575952  0  2.213869  0
O  O332  1  0.34726074  0.81025082  0.92889125  1  -0.424977  0  -0.086661  -0.280823  0  1.967652  0
O  O333  1  0.65273945  0.18974742  0.07110838  1  -0.425121  0  -0.086667  -0.280784  0  1.967621  0
O  O334  1  0.44527673  0.86648886  0.87110968  1  -0.486612  0  -0.124745  -0.341811  0  1.963694  0
O  O335  1  0.55472267  0.13350875  0.12888872  1  -0.486627  0  -0.12475  -0.341787  0  1.963692  0
O  O336  1  0.11080059  0.85481546  0.62205816  1  -0.443037  0  -0.111733  -0.320081  0  1.964515  0
O  O337  1  0.88920117  0.14518403  0.37794341  1  -0.443111  0  -0.111749  -0.320116  0  1.964352  0
O  O338  1  0.26459953  0.86703717  0.62670077  1  -0.430388  0  -0.106032  -0.300182  0  1.946478  0
O  O339  1  0.73540356  0.13297170  0.37330355  1  -0.431095  0  -0.105992  -0.300137  0  1.946236  0
O  O340  1  0.20088457  0.69842438  0.76498314  1  -0.442836  0  -0.111657  -0.322327  0  1.995285  0
O  O341  1  0.79911614  0.30157761  0.23501686  1  -0.442852  0  -0.11164  -0.322324  0  1.995193  0
O  O342  1  0.17487323  0.63067129  0.65053616  1  -0.435291  0  -0.085749  -0.277598  0  1.973273  0
O  O343  1  0.82512609  0.36933069  0.34946322  1  -0.435301  0  -0.085826  -0.277681  0  1.973225  0
O  O344  1  0.41766412  0.97174100  0.75708742  1  -0.41302  0  -0.112529  -0.319476  0  1.986567  0
O  O345  1  0.58233554  0.02825849  0.24291346  1  -0.413025  0  -0.112489  -0.319414  0  1.986583  0
O  O346  1  0.55928286  0.93470081  0.77150370  1  -0.417811  0  -0.093383  -0.282245  0  1.982412  0
O  O347  1  0.44071559  0.06529993  0.22849737  1  -0.417318  0  -0.093329  -0.282206  0  1.982562  0
O  O348  1  0.39882473  0.50087065  0.38966249  1  -1.198432  0  -0.389498  -0.649563  0  2.329944  0
O  O349  1  0.60117938  0.49913072  0.61033919  1  -1.198492  0  -0.389489  -0.649435  0  2.329855  0
O  O350  1  0.54997709  0.56262624  0.40735128  1  -1.18832  0  -0.36887  -0.626692  0  2.282849  0
O  O351  1  0.45002624  0.43737451  0.59264713  1  -1.188321  0  -0.368832  -0.626623  0  2.28287  0
O  O352  1  0.24145802  0.94093881  0.04304847  1  -1.168474  0  -0.36013  -0.609915  0  2.247791  0
O  O353  1  0.75854052  0.05906255  0.95695224  1  -1.168513  0  -0.360126  -0.609916  0  2.247868  0
O  O354  1  0.23156400  0.02265102  0.15167754  1  -1.171302  0  -0.378518  -0.612953  0  2.258922  0
O  O355  1  0.76843514  0.97734971  0.84832410  1  -1.171236  0  -0.378534  -0.612959  0  2.258893  0
O  O356  1  0.16624034  0.64945403  0.29481393  1  -0.445447  0  -0.118064  -0.314297  0  1.953911  0
O  O357  1  0.83375898  0.35054796  0.70518750  1  -0.445393  0  -0.118096  -0.314296  0  1.954025  0
O  O358  1  0.18998496  0.68087867  0.19558970  1  -0.452708  0  -0.115592  -0.32722  0  2.00317  0
O  O359  1  0.81001628  0.31912207  0.80441109  1  -0.45273  0  -0.115626  -0.327236  0  2.003108  0
O  O360  1  0.53886233  0.80932082  0.22266845  1  -0.455097  0  -0.11315  -0.313525  0  1.955216  0
O  O361  1  0.46113410  0.19067553  0.77732840  1  -0.455056  0  -0.113185  -0.313575  0  1.955156  0
O  O362  1  0.63308674  0.71919595  0.24114475  1  -0.456416  0  -0.127238  -0.344843  0  2.013267  0
O  O363  1  0.36691022  0.28080415  0.75885555  1  -0.456519  0  -0.12726  -0.344913  0  2.013198  0
O  O364  1  0.38565988  0.82848615  0.36099281  1  -0.469726  0  -0.125415  -0.337029  0  1.964275  0
O  O365  1  0.61434999  0.17151648  0.63900604  1  -0.469799  0  -0.125426  -0.337157  0  1.96412  0
O  O366  1  0.34371003  0.95094752  0.36072489  1  -0.427952  0  -0.117619  -0.310068  0  1.920906  0
O  O367  1  0.65630289  0.04905699  0.63927412  1  -0.427832  0  -0.117661  -0.310153  0  1.920712  0
O  O368  1  0.36858743  0.61956870  0.11405040  1  -0.429629  0  -0.103047  -0.302186  0  1.983531  0
O  O369  1  0.63140813  0.38043140  0.88594825  1  -0.429555  0  -0.103068  -0.302214  0  1.983571  0
O  O370  1  0.37820802  0.67944097  0.02745339  1  -0.435563  0  -0.113995  -0.312966  0  1.93466  0
O  O371  1  0.62179199  0.32056101  0.97254605  1  -0.435518  0  -0.114062  -0.31304  0  1.934572  0
O  O372  1  0.24840621  0.08881320  0.99827453  1  -1.175422  0  -0.380698  -0.569389  0  2.437851  0
O  O373  1  0.75159389  0.91118441  0.00172290  1  -1.175492  0  -0.380678  -0.569408  0  2.437944  0
O  O374  1  0.18036164  0.49006276  0.19224656  1  -1.084853  0  -0.255055  -0.357633  0  2.219917  0
O  O375  1  0.81963951  0.50993736  0.80775561  1  -1.085051  0  -0.255043  -0.35762  0  2.219882  0
O  O376  1  0.77778485  0.58356267  0.59265698  1  -1.180088  0  -0.384223  -0.558947  0  2.440943  0
O  O377  1  0.22221569  0.41643807  0.40734120  1  -1.180065  0  -0.384138  -0.558854  0  2.440928  0
O  O378  1  0.02719563  0.39824006  0.49429440  1  -1.088249  0  -0.247898  -0.341318  0  2.15836  0
O  O379  1  0.97279906  0.60175879  0.50570084  1  -1.088233  0  -0.247941  -0.341359  0  2.158543  0
O  O380  1  0.15956779  0.44014689  0.00832979  1  -1.092307  0  -0.263602  -0.362214  0  2.154938  0
O  O381  1  0.84043258  0.55985260  0.99167116  1  -1.0923  0  -0.263602  -0.362185  0  2.155015  0
O  O382  1  0.69530173  0.86678800  0.66915371  1  -1.094337  0  -0.24368  -0.348224  0  2.233329  0
O  O383  1  0.30469863  0.13321149  0.33084519  1  -1.094418  0  -0.243708  -0.348265  0  2.233349  0
O  O384  1  0.31804813  0.54910365  0.75404312  1  -1.083631  0  -0.261776  -0.359852  0  2.170495  0
O  O385  1  0.68195485  0.45089459  0.24595316  1  -1.08382  0  -0.261869  -0.359968  0  2.17049  0
