# generated using pymatgen
data_Al3H9C34NO14
_symmetry_space_group_name_H-M   'P 1'
_cell_length_a   12.36337833
_cell_length_b   12.28729711
_cell_length_c   26.97975944
_cell_angle_alpha   82.60040591
_cell_angle_beta   82.61622207
_cell_angle_gamma   64.02225115
_symmetry_Int_Tables_number   1
_chemical_formula_structural   Al3H9C34NO14
_chemical_formula_sum   'Al6 H18 C68 N2 O28'
_cell_volume   3641.80709170
_cell_formula_units_Z   2
loop_
 _symmetry_equiv_pos_site_id
 _symmetry_equiv_pos_as_xyz
  1  'x, y, z'
loop_
 _atom_site_type_symbol
 _atom_site_label
 _atom_site_symmetry_multiplicity
 _atom_site_fract_x
 _atom_site_fract_y
 _atom_site_fract_z
 _atom_site_occupancy
 _atom_site_pbe_bader_charge
 _atom_site_pbe_bader_spin_density
 _atom_site_pbe_cm5_charge
 _atom_site_pbe_ddec_charge
 _atom_site_pbe_ddec_spin_density
 _atom_site_pbe_ddec_sum_bond_order
 _atom_site_pbe_magmom
Al  Al0  1  0.40352441  0.40310390  0.51140351  1  2.495952  0  0.401559  1.679717  0  2.55713  0
Al  Al1  1  0.65535133  0.42524767  0.49572676  1  2.481472  0  0.509979  1.660008  0  2.510894  0
Al  Al2  1  0.42557486  0.65654345  0.49755129  1  2.480864  0  0.511572  1.66113  0  2.506578  0
Al  Al3  1  0.92725777  0.93852248  0.97848952  1  2.494804  0  0.402392  1.679511  0  2.560045  0
Al  Al4  1  0.91348575  0.68109739  0.99607152  1  2.484901  0  0.510856  1.661385  0  2.509381  0
Al  Al5  1  0.67972963  0.90782622  0.99441189  1  2.48302  0  0.511065  1.662772  0  2.507241  0
H  H6  1  0.25372038  0.80752829  0.19663207  1  0.100547  0  0.113985  0.109024  0  0.972508  0
H  H7  1  0.59678994  0.36549814  0.19114473  1  0.070398  0  0.101643  0.089932  0  0.991641  0
H  H8  1  0.79499947  0.26878479  0.25190815  1  0.068517  0  0.103103  0.092876  0  0.987475  0
H  H9  1  0.86657250  0.03701165  0.21585405  1  0.086678  0  0.099719  0.088288  0  0.999903  0
H  H10  1  0.51908040  0.84973875  0.71441882  1  0.100811  0  0.1204  0.120225  0  0.962495  0
H  H11  1  0.63015376  0.49044234  0.73619625  1  0.106753  0  0.115752  0.113205  0  0.972881  0
H  H12  1  0.84054738  0.46663533  0.77707838  1  0.094663  0  0.11815  0.114249  0  0.96688  0
H  H13  1  0.87259990  0.62727194  0.69692574  1  0.076119  0  0.113371  0.106452  0  0.975065  0
H  H14  1  0.72912084  0.82699874  0.75520028  1  0.093708  0  0.112768  0.105922  0  0.97757  0
H  H15  1  0.06625332  0.87707828  0.27543868  1  0.069597  0  0.11464  0.111851  0  0.972414  0
H  H16  1  0.38885867  0.59340432  0.25712304  1  0.042256  0  0.106675  0.097709  0  0.987934  0
H  H17  1  0.27794479  0.46926818  0.21552016  1  0.107026  0  0.109737  0.102749  0  0.982969  0
H  H18  1  0.09021612  0.53986960  0.29448658  1  0.096241  0  0.118388  0.11767  0  0.963843  0
H  H19  1  0.52560818  0.07880051  0.23670308  1  0.079383  0  0.106126  0.098044  0  0.979956  0
H  H20  1  0.72310702  0.98226498  0.29697570  1  0.100181  0  0.103842  0.097297  0  0.991774  0
H  H21  1  0.45315653  0.31068400  0.27271575  1  0.057449  0  0.100263  0.088731  0  0.998793  0
H  H22  1  0.29456978  0.30047327  0.55470257  1  0.593428  0  0.296568  0.387329  0  0.916059  0
H  H23  1  0.02131049  0.05631396  0.99619365  1  0.572888  0  0.29653  0.386177  0  0.91761  0
C  C24  1  0.61289780  0.28513243  0.43592987  1  1.654424  0  0.27853  0.711758  0  4.165634  0
C  C25  1  0.65047207  0.65914424  0.26793314  1  -0.353007  0  0.003821  -0.001015  0  4.17268  0
C  C26  1  0.64079638  0.65041189  0.31824168  1  -0.185355  0  5.6e-05  0.037039  0  4.234244  0
C  C27  1  0.63194677  0.64140443  0.36430410  1  0.177567  0  0.004433  -0.134008  0  3.807592  0
C  C28  1  0.11495507  0.78661918  0.26186247  1  -0.001547  0  -0.054269  -0.091284  0  3.59307  0
C  C29  1  0.21850877  0.74758481  0.21891456  1  -0.019222  0  -0.06335  -0.076751  0  3.625573  0
C  C30  1  0.10479443  0.70025121  0.10248682  1  0.180407  0  -0.0292  -0.173816  0  3.948731  0
C  C31  1  0.23340074  0.64717273  0.38984236  1  -0.17926  0  -0.034626  -0.187036  0  3.963406  0
C  C32  1  0.05259930  0.71752772  0.24012004  1  0.126129  0  0.027018  0.047976  0  3.757857  0
C  C33  1  0.15835966  0.67800491  0.19554488  1  0.123942  0  0.023204  0.115824  0  3.772493  0
C  C34  1  0.12823678  0.59782867  0.27247246  1  -0.007371  0  -0.051986  -0.088934  0  3.582357  0
C  C35  1  0.61013623  0.61691322  0.41728764  1  1.675469  0  0.284941  0.701878  0  4.176407  0
C  C36  1  0.18867960  0.66769087  0.29551430  1  0.148163  0  0.013443  0.123295  0  3.806741  0
C  C37  1  0.23191244  0.55946816  0.22949537  1  -0.043221  0  -0.064672  -0.080166  0  3.633475  0
C  C38  1  0.29310515  0.62864787  0.25128869  1  0.015134  0  -0.062491  -0.068798  0  3.601353  0
C  C39  1  0.13378578  0.68741006  0.14506869  1  -0.449488  0  -0.024087  -0.043838  0  4.077357  0
C  C40  1  0.20965401  0.65932165  0.34645341  1  -0.097828  0  -0.021448  -0.036437  0  4.068739  0
C  C41  1  0.69529596  0.06713030  0.27306460  1  -0.018109  0  -0.065114  -0.068006  0  3.617767  0
C  C42  1  0.58487966  0.12154032  0.24054491  1  -0.029376  0  -0.065765  -0.073517  0  3.622079  0
C  C43  1  0.68343958  0.10605841  0.10117967  1  0.181601  0  -0.048409  -0.21607  0  3.977778  0
C  C44  1  0.63934645  0.23859974  0.38763155  1  0.275105  0  -0.046663  -0.214318  0  3.986488  0
C  C45  1  0.77514906  0.09829124  0.22919249  1  -0.040495  0  -0.069549  -0.074299  0  3.631953  0
C  C46  1  0.28292303  0.61674387  0.43780314  1  1.657738  0  0.280588  0.708046  0  4.166602  0
C  C47  1  0.66483358  0.15181688  0.19525811  1  0.126163  0  0.009631  0.117123  0  3.797634  0
C  C48  1  0.73532603  0.22646778  0.24799505  1  -0.027066  0  -0.069985  -0.080191  0  3.634298  0
C  C49  1  0.65530604  0.19618568  0.29327608  1  0.132684  0  0.006482  0.114508  0  3.805174  0
C  C50  1  0.62477673  0.28092844  0.21541320  1  -0.023836  0  -0.06697  -0.074631  0  3.630197  0
C  C51  1  0.54488410  0.24976334  0.25939168  1  -0.023347  0  -0.070254  -0.080366  0  3.635941  0
C  C52  1  0.67266380  0.12897659  0.14467424  1  -0.448453  0  -0.015341  -0.014271  0  4.065099  0
C  C53  1  0.64857432  0.21785978  0.34391552  1  -0.574834  0  -0.018057  -0.020376  0  4.075308  0
C  C54  1  0.59175602  0.76509795  0.72809985  1  1.7e-05  0  -0.051003  -0.093916  0  3.580416  0
C  C55  1  0.57330301  0.67560368  0.77187602  1  0.11704  0  0.029641  0.070516  0  3.727392  0
C  C56  1  0.70602314  0.68348182  0.88980657  1  0.318403  0  -0.02952  -0.191823  0  3.935483  0
C  C57  1  0.61295067  0.28405748  0.57765957  1  1.661978  0  0.277296  0.691537  0  4.188373  0
C  C58  1  0.64720998  0.63826382  0.60133300  1  -0.009933  0  -0.038475  -0.207602  0  3.955755  0
C  C59  1  0.70790404  0.75183194  0.75015441  1  -0.009323  0  -0.056422  -0.064658  0  3.61164  0
C  C60  1  0.69174940  0.66214813  0.79532196  1  0.09431  0  0.023435  0.099541  0  3.763668  0
C  C61  1  0.78765790  0.64098024  0.71890677  1  -7e-05  0  -0.059162  -0.068272  0  3.597177  0
C  C62  1  0.67047483  0.65433547  0.69549180  1  0.122214  0  0.014296  0.114806  0  3.792908  0
C  C63  1  0.76993234  0.55175165  0.76251417  1  -0.022392  0  -0.059389  -0.074251  0  3.620104  0
C  C64  1  0.65408073  0.56428407  0.74044448  1  -0.01073  0  -0.046413  -0.081711  0  3.565281  0
C  C65  1  0.69954441  0.67160500  0.84624345  1  -0.50505  0  -0.002296  -0.000695  0  4.035413  0
C  C66  1  0.65882709  0.64659225  0.64472995  1  -0.24029  0  -0.003739  -0.000982  0  4.034574  0
C  C67  1  0.09622220  0.70175113  0.86310479  1  0.228493  0  0.015891  -0.108224  0  3.80065  0
C  C68  1  0.62025471  0.61472985  0.55489180  1  1.658644  0  0.286758  0.724643  0  4.14802  0
C  C69  1  0.12394543  0.68874795  0.81826605  1  -0.278657  0  0.000495  0.038312  0  4.23352  0
C  C70  1  0.15289751  0.67587940  0.76912188  1  0.183937  0  0.007351  0.011802  0  4.180932  0
C  C71  1  0.17763509  0.66525464  0.72368941  1  -0.125534  0  -0.005403  -0.017239  0  4.195925  0
C  C72  1  0.20693858  0.65228115  0.67453608  1  -0.199858  0  -0.008161  0.030844  0  4.265644  0
C  C73  1  0.23520101  0.63986545  0.62960694  1  -0.017527  0  -0.003935  -0.143681  0  3.835715  0
C  C74  1  0.69086140  0.10198317  0.86236632  1  0.291753  0  0.011464  -0.115609  0  3.81298  0
C  C75  1  0.68018689  0.12963612  0.81735801  1  -0.365962  0  -0.006144  0.023691  0  4.256565  0
C  C76  1  0.67008712  0.15718089  0.76800423  1  -0.105708  0  0.000542  -0.003112  0  4.203665  0
C  C77  1  0.66260072  0.17974272  0.72234246  1  0.023778  0  -0.003043  -0.011431  0  4.208667  0
C  C78  1  0.65228926  0.20664613  0.67297756  1  -0.136797  0  -0.008335  0.024447  0  4.266123  0
C  C79  1  0.28619931  0.61258583  0.57933080  1  1.717104  0  0.275456  0.694594  0  4.183103  0
C  C80  1  0.64131943  0.23317454  0.62791828  1  0.110909  0  0.002454  -0.12896  0  3.824666  0
C  C81  1  0.05172449  0.72842758  0.05527360  1  1.681025  0  0.280722  0.712508  0  4.157097  0
C  C82  1  0.72192263  0.71806793  0.07359726  1  1.681656  0  0.285803  0.704007  0  4.168825  0
C  C83  1  0.71369762  0.05560258  0.05359354  1  1.633266  0  0.276922  0.718949  0  4.15733  0
C  C84  1  0.04905052  0.72849282  0.91375462  1  1.699157  0  0.282825  0.688923  0  4.180017  0
C  C85  1  0.72662846  0.71177435  0.93658788  1  1.637338  0  0.288104  0.724539  0  4.144428  0
C  C86  1  0.71928725  0.05051439  0.91258506  1  1.685129  0  0.280561  0.685841  0  4.190115  0
C  C87  1  0.69195287  0.69068964  0.12554970  1  0.297999  0  0.007966  -0.127411  0  3.796839  0
C  C88  1  0.67584034  0.67862893  0.17140450  1  -0.247687  0  0.001256  0.038202  0  4.231714  0
C  C89  1  0.66070520  0.66709091  0.22163636  1  0.187417  0  0.006265  0.005932  0  4.174879  0
C  C90  1  0.46309492  0.69238395  0.80057745  1  0.838152  0  0.172009  0.207408  0  4.016563  0
C  C91  1  0.92782128  0.76539280  0.23269905  1  0.825185  0  0.180816  0.21826  0  4.011413  0
N  N92  1  0.37388516  0.70529688  0.82507464  1  -1.112539  0  -0.291647  -0.336977  0  2.747051  0
N  N93  1  0.82547009  0.80725010  0.22575937  1  -1.135802  0  -0.29062  -0.347745  0  2.790808  0
O  O94  1  0.30552047  0.51166323  0.45826289  1  -1.206452  0  -0.198473  -0.534465  0  2.287662  0
O  O95  1  0.69436728  0.51603025  0.53576138  1  -1.251895  0  -0.226235  -0.587638  0  2.244222  0
O  O96  1  0.52095939  0.69062662  0.53707407  1  -1.25062  0  -0.22534  -0.587587  0  2.245347  0
O  O97  1  0.31314451  0.69389361  0.55279859  1  -1.251261  0  -0.237372  -0.594827  0  2.234177  0
O  O98  1  0.49592995  0.49626766  0.50179385  1  -1.608834  0  -0.390721  -1.272668  0  2.289438  0
O  O99  1  0.81597786  0.03779984  0.03154719  1  -1.228035  0  -0.212297  -0.571825  0  2.297803  0
O  O100  1  0.02595771  0.83327716  0.03395423  1  -1.215111  0  -0.204753  -0.555081  0  2.291148  0
O  O101  1  0.03058750  0.64466433  0.04001673  1  -1.249632  0  -0.24088  -0.602165  0  2.228074  0
O  O102  1  0.82431842  0.64551695  0.05424278  1  -1.241585  0  -0.22009  -0.574671  0  2.248609  0
O  O103  1  0.64616658  0.81559287  0.05202201  1  -1.236123  0  -0.218096  -0.572368  0  2.248034  0
O  O104  1  0.63522537  0.02755857  0.03785525  1  -1.249695  0  -0.245138  -0.610657  0  2.227616  0
O  O105  1  0.51064015  0.30520410  0.45837868  1  -1.219353  0  -0.201756  -0.54009  0  2.284533  0
O  O106  1  0.82089864  0.03318134  0.92481557  1  -1.19644  0  -0.192357  -0.522303  0  2.288345  0
O  O107  1  0.02739893  0.83211525  0.92601217  1  -1.197904  0  -0.190648  -0.517129  0  2.279441  0
O  O108  1  0.02853638  0.64484237  0.94172002  1  -1.251556  0  -0.237916  -0.600571  0  2.238235  0
O  O109  1  0.82441360  0.63893663  0.95633470  1  -1.24771  0  -0.22518  -0.588104  0  2.243028  0
O  O110  1  0.64894030  0.81131703  0.95393122  1  -1.238833  0  -0.224412  -0.585632  0  2.243559  0
O  O111  1  0.63972988  0.02256466  0.93953284  1  -1.245383  0  -0.234574  -0.592215  0  2.239072  0
O  O112  1  0.83899599  0.84112785  0.98984027  1  -1.613362  0  -0.390375  -1.274777  0  2.291649  0
O  O113  1  0.69500458  0.30763236  0.45183343  1  -1.257952  0  -0.246083  -0.613389  0  2.232861  0
O  O114  1  0.68690887  0.51818988  0.43771022  1  -1.227797  0  -0.22031  -0.572867  0  2.249039  0
O  O115  1  0.51266586  0.69255342  0.43883439  1  -1.241503  0  -0.219861  -0.573246  0  2.246677  0
O  O116  1  0.30479495  0.69814918  0.45478499  1  -1.252158  0  -0.24271  -0.60614  0  2.233911  0
O  O117  1  0.30429377  0.51078717  0.56598243  1  -1.212974  0  -0.207286  -0.556075  0  2.288081  0
O  O118  1  0.51006716  0.30420232  0.56572059  1  -1.202372  0  -0.203926  -0.549926  0  2.294453  0
O  O119  1  0.69379774  0.30889863  0.55018194  1  -1.245668  0  -0.235106  -0.590922  0  2.237878  0
O  O120  1  0.31883206  0.31879411  0.52034818  1  -1.372375  0  -0.571815  -0.986056  0  1.789676  0
O  O121  1  0.00905963  0.02561793  0.96719807  1  -1.348824  0  -0.569904  -0.98318  0  1.791368  0
