# generated using pymatgen
data_CuH4C3BrN
_symmetry_space_group_name_H-M   'P 1'
_cell_length_a   3.99337011
_cell_length_b   12.57185829
_cell_length_c   17.64126431
_cell_angle_alpha   89.99968943
_cell_angle_beta   89.99954598
_cell_angle_gamma   92.03360792
_symmetry_Int_Tables_number   1
_chemical_formula_structural   CuH4C3BrN
_chemical_formula_sum   'Cu8 H32 C24 Br8 N8'
_cell_volume   885.10569454
_cell_formula_units_Z   8
loop_
 _symmetry_equiv_pos_site_id
 _symmetry_equiv_pos_as_xyz
  1  'x, y, z'
loop_
 _atom_site_type_symbol
 _atom_site_label
 _atom_site_symmetry_multiplicity
 _atom_site_fract_x
 _atom_site_fract_y
 _atom_site_fract_z
 _atom_site_occupancy
 _atom_site_hle17_bader_spin_density
 _atom_site_hle17_ddec_charge
 _atom_site_hle17_ddec_spin_density
 _atom_site_hle17_ddec_sum_bond_order
 _atom_site_hle17_magmom
 _atom_site_hse06_10hf_bader_spin_density
 _atom_site_hse06_10hf_ddec_charge
 _atom_site_hse06_10hf_ddec_spin_density
 _atom_site_hse06_10hf_ddec_sum_bond_order
 _atom_site_hse06_10hf_magmom
 _atom_site_hse06_bader_spin_density
 _atom_site_hse06_ddec_charge
 _atom_site_hse06_ddec_spin_density
 _atom_site_hse06_ddec_sum_bond_order
 _atom_site_hse06_magmom
 _atom_site_pbe_bader_spin_density
 _atom_site_pbe_cm5_charge
 _atom_site_pbe_ddec_charge
 _atom_site_pbe_ddec_spin_density
 _atom_site_pbe_ddec_sum_bond_order
 _atom_site_pbe_magmom
Cu  Cu0  1  0.83882499  0.29709331  0.55528877  1  0  0.355314  0  1.984443  0  0  0.264629  0  2.456812  0  0  0.273618  0  2.403945  0  0  0.314125  0.260397  0  2.491654  0
Cu  Cu1  1  0.66116894  0.20290949  0.05528130  1  0  0.355271  0  1.984401  0  0  0.264585  0  2.456777  0  0  0.273571  0  2.403914  0  0  0.314136  0.260346  0  2.491606  0
Cu  Cu2  1  0.16118065  0.70291066  0.44471660  1  0  0.355305  0  1.984369  0  0  0.264646  0  2.456731  0  0  0.273646  0  2.403874  0  0  0.314147  0.260411  0  2.491564  0
Cu  Cu3  1  0.33881896  0.79709294  0.94471613  1  0  0.355371  0  1.984288  0  0  0.264705  0  2.456668  0  0  0.273673  0  2.403797  0  0  0.31418  0.26048  0  2.491502  0
Cu  Cu4  1  0.49978978  0.23308047  0.67530442  1  0  0.350935  0  1.99024  0  0  0.263966  0  2.456715  0  0  0.271577  0  2.405682  0  0  0.312034  0.261169  0  2.48994  0
Cu  Cu5  1  0.00017905  0.26691702  0.17530324  1  0  0.351044  0  1.990088  0  0  0.264079  0  2.456548  0  0  0.271703  0  2.405522  0  0  0.312028  0.261294  0  2.489731  0
Cu  Cu6  1  0.50020106  0.76692513  0.32469471  1  0  0.350906  0  1.990196  0  0  0.263957  0  2.456674  0  0  0.271564  0  2.405639  0  0  0.312019  0.26116  0  2.489888  0
Cu  Cu7  1  0.99980331  0.73308144  0.82469702  1  0  0.350899  0  1.990216  0  0  0.263973  0  2.456659  0  0  0.271603  0  2.405633  0  0  0.312009  0.261151  0  2.48993  0
H  H8  1  0.26754603  0.40494084  0.29751618  1  0  0.091829  0  0.951214  0  0  0.099651  0  1.0179  0  0  0.102746  0  1.016035  0  0  0.110724  0.097203  0  1.019707  0
H  H9  1  0.23245736  0.09504604  0.79751840  1  0  0.091748  0  0.951265  0  0  0.099529  0  1.017989  0  0  0.102654  0  1.016091  0  0  0.110635  0.097084  0  1.019795  0
H  H10  1  0.73246268  0.59504880  0.70248238  1  0  0.091738  0  0.951255  0  0  0.099523  0  1.017969  0  0  0.102654  0  1.016066  0  0  0.110658  0.097077  0  1.019772  0
H  H11  1  0.76756244  0.90495153  0.20247563  1  0  0.091715  0  0.951282  0  0  0.099525  0  1.017987  0  0  0.102658  0  1.01608  0  0  0.110681  0.097079  0  1.019791  0
H  H12  1  0.18881660  0.41913025  0.43760256  1  0  0.091812  0  0.965713  0  0  0.094428  0  1.041533  0  0  0.098324  0  1.03828  0  0  0.099451  0.091382  0  1.04431  0
H  H13  1  0.31118391  0.08086985  0.93760582  1  0  0.09184  0  0.965785  0  0  0.094451  0  1.041604  0  0  0.098346  0  1.03835  0  0  0.099438  0.091404  0  1.044382  0
H  H14  1  0.81119100  0.58086974  0.56239544  1  0  0.091913  0  0.965747  0  0  0.094522  0  1.041565  0  0  0.098417  0  1.038311  0  0  0.099465  0.091473  0  1.044344  0
H  H15  1  0.68883599  0.91912852  0.06239161  1  0  0.091841  0  0.965851  0  0  0.094452  0  1.041659  0  0  0.098349  0  1.038404  0  0  0.099428  0.091408  0  1.044434  0
H  H16  1  0.72781808  0.05017855  0.46461275  1  0  0.132036  0  0.940361  0  0  0.155519  0  0.997495  0  0  0.15702  0  0.998254  0  0  0.093239  0.154152  0  0.997264  0
H  H17  1  0.77217234  0.44982498  0.96460443  1  0  0.131941  0  0.940524  0  0  0.155503  0  0.997541  0  0  0.157007  0  0.998294  0  0  0.093241  0.154134  0  0.99731  0
H  H18  1  0.27219485  0.94982382  0.53539375  1  0  0.132056  0  0.940381  0  0  0.155581  0  0.997444  0  0  0.157082  0  0.998204  0  0  0.093288  0.154214  0  0.997213  0
H  H19  1  0.22782079  0.55017902  0.03539243  1  0  0.131988  0  0.940435  0  0  0.155513  0  0.997506  0  0  0.157014  0  0.998264  0  0  0.093267  0.154145  0  0.997275  0
H  H20  1  0.35372848  0.07516028  0.41626504  1  0  0.119068  0  0.973238  0  0  0.1383  0  1.035639  0  0  0.139667  0  1.036805  0  0  0.086446  0.137202  0  1.03496  0
H  H21  1  0.14626276  0.42484001  0.91625536  1  0  0.119067  0  0.973232  0  0  0.138231  0  1.035693  0  0  0.139597  0  1.036862  0  0  0.086415  0.137134  0  1.035013  0
H  H22  1  0.64628381  0.92483731  0.58374089  1  0  0.119106  0  0.97319  0  0  0.138282  0  1.035646  0  0  0.139649  0  1.036814  0  0  0.08643  0.137186  0  1.034966  0
H  H23  1  0.85373548  0.57516478  0.08374264  1  0  0.119158  0  0.973093  0  0  0.138314  0  1.035572  0  0  0.13968  0  1.03674  0  0  0.086448  0.137217  0  1.034892  0
H  H24  1  0.45758299  0.14648098  0.50155404  1  0  0.113588  0  0.990623  0  0  0.124639  0  1.072576  0  0  0.129413  0  1.067144  0  0  0.078361  0.120874  0  1.076742  0
H  H25  1  0.04239475  0.35352105  0.00154451  1  0  0.113461  0  0.990553  0  0  0.124525  0  1.072526  0  0  0.129298  0  1.0671  0  0  0.078315  0.120757  0  1.076695  0
H  H26  1  0.54241994  0.85352140  0.49845076  1  0  0.11354  0  0.99055  0  0  0.12458  0  1.072532  0  0  0.12935  0  1.067104  0  0  0.078336  0.120814  0  1.076699  0
H  H27  1  0.95759577  0.64648216  0.99845235  1  0  0.113481  0  0.990641  0  0  0.124547  0  1.072598  0  0  0.12932  0  1.067168  0  0  0.078345  0.12078  0  1.076765  0
H  H28  1  0.62018137  0.12164561  0.22111882  1  0  0.107991  0  1.015689  0  0  0.120625  0  1.094768  0  0  0.125644  0  1.089169  0  0  0.071902  0.116614  0  1.099117  0
H  H29  1  0.87977879  0.37835197  0.72110662  1  0  0.108021  0  1.015772  0  0  0.120695  0  1.094786  0  0  0.125706  0  1.0892  0  0  0.07198  0.116685  0  1.099139  0
H  H30  1  0.37979816  0.87835046  0.77888825  1  0  0.107986  0  1.015841  0  0  0.120664  0  1.094837  0  0  0.125671  0  1.089261  0  0  0.071964  0.116658  0  1.099181  0
H  H31  1  0.12020715  0.62165444  0.27888855  1  0  0.108026  0  1.015747  0  0  0.120687  0  1.094761  0  0  0.125696  0  1.089181  0  0  0.071976  0.116682  0  1.099108  0
H  H32  1  0.37313894  0.08001818  0.30054825  1  0  0.12157  0  0.966261  0  0  0.141893  0  1.027597  0  0  0.143  0  1.028763  0  0  0.089478  0.140974  0  1.026877  0
H  H33  1  0.12684311  0.41997827  0.80053635  1  0  0.121651  0  0.966066  0  0  0.141909  0  1.027487  0  0  0.143016  0  1.028652  0  0  0.089515  0.140995  0  1.026761  0
H  H34  1  0.62685289  0.91997627  0.69945882  1  0  0.121592  0  0.966145  0  0  0.141879  0  1.027548  0  0  0.142987  0  1.028712  0  0  0.089494  0.140952  0  1.026838  0
H  H35  1  0.87316808  0.58002967  0.19945824  1  0  0.121666  0  0.96608  0  0  0.141939  0  1.027481  0  0  0.143048  0  1.028645  0  0  0.089521  0.141021  0  1.026763  0
H  H36  1  0.77374086  0.02928951  0.28850178  1  0  0.121322  0  0.973732  0  0  0.141904  0  1.038643  0  0  0.144005  0  1.03791  0  0  0.082451  0.140109  0  1.03944  0
H  H37  1  0.72622864  0.47070115  0.78849574  1  0  0.121245  0  0.973947  0  0  0.141887  0  1.038786  0  0  0.144004  0  1.038042  0  0  0.082427  0.140091  0  1.039581  0
H  H38  1  0.22624325  0.97070337  0.71150131  1  0  0.121179  0  0.973889  0  0  0.14182  0  1.038738  0  0  0.143935  0  1.037993  0  0  0.082377  0.140034  0  1.039525  0
H  H39  1  0.27377178  0.52930125  0.21150226  1  0  0.121208  0  0.973918  0  0  0.141852  0  1.038747  0  0  0.14398  0  1.037994  0  0  0.082395  0.140066  0  1.039536  0
C  C40  1  0.74519364  0.19753100  0.40516942  1  0  0.214113  0  3.651135  0  0  0.219725  0  3.889145  0  0  0.225199  0  3.907554  0  0  0.119177  0.215567  0  3.877317  0
C  C41  1  0.75479013  0.30246426  0.90516682  1  0  0.213729  0  3.651411  0  0  0.219513  0  3.889158  0  0  0.224984  0  3.907569  0  0  0.119043  0.215358  0  3.877324  0
C  C42  1  0.25481604  0.80246580  0.59483368  1  0  0.214278  0  3.650848  0  0  0.219767  0  3.888998  0  0  0.225239  0  3.907408  0  0  0.119146  0.215611  0  3.877167  0
C  C43  1  0.24521247  0.69753574  0.09483344  1  0  0.213967  0  3.651285  0  0  0.219622  0  3.889198  0  0  0.225093  0  3.907606  0  0  0.119064  0.215468  0  3.877363  0
C  C44  1  0.78319735  0.19090771  0.32587123  1  0  0.212328  0  3.648437  0  0  0.218383  0  3.887753  0  0  0.223412  0  3.905542  0  0  0.117805  0.214382  0  3.876491  0
C  C45  1  0.71678217  0.30909218  0.82586414  1  0  0.212032  0  3.648346  0  0  0.218056  0  3.887658  0  0  0.223088  0  3.905444  0  0  0.117672  0.21405  0  3.876402  0
C  C46  1  0.21679502  0.80909072  0.67413470  1  0  0.211946  0  3.648324  0  0  0.218091  0  3.887699  0  0  0.223113  0  3.90548  0  0  0.117698  0.214089  0  3.876435  0
C  C47  1  0.28322150  0.69091578  0.17413386  1  0  0.211769  0  3.648763  0  0  0.217914  0  3.887976  0  0  0.222942  0  3.905761  0  0  0.117634  0.213909  0  3.876721  0
C  C48  1  0.11415137  0.34595529  0.32817524  1  0  0.071244  0  3.677512  0  0  0.034416  0  3.944309  0  0  0.038173  0  3.957007  0  0  0.031267  0.031309  0  3.937167  0
C  C49  1  0.38585162  0.15403612  0.82817297  1  0  0.071477  0  3.677469  0  0  0.034784  0  3.944143  0  0  0.038516  0  3.95684  0  0  0.031386  0.031672  0  3.937  0
C  C50  1  0.88585277  0.65403754  0.67182502  1  0  0.071511  0  3.677494  0  0  0.034855  0  3.94416  0  0  0.038569  0  3.956849  0  0  0.031379  0.031747  0  3.937013  0
C  C51  1  0.61417591  0.84596303  0.17182049  1  0  0.071485  0  3.677503  0  0  0.034709  0  3.944282  0  0  0.038432  0  3.956967  0  0  0.031279  0.031598  0  3.937141  0
C  C52  1  0.07199064  0.35355978  0.40567198  1  0  0.076542  0  3.68588  0  0  0.041259  0  3.952622  0  0  0.046092  0  3.964619  0  0  0.029716  0.037304  0  3.946012  0
C  C53  1  0.42801240  0.14643260  0.90567476  1  0  0.076396  0  3.685877  0  0  0.041048  0  3.952673  0  0  0.045884  0  3.964679  0  0  0.029701  0.037096  0  3.94606  0
C  C54  1  0.92802133  0.64643542  0.59432488  1  0  0.07628  0  3.685975  0  0  0.040942  0  3.952742  0  0  0.04578  0  3.964748  0  0  0.029662  0.036992  0  3.946127  0
C  C55  1  0.57200729  0.85356418  0.09432153  1  0  0.07631  0  3.685883  0  0  0.041028  0  3.952635  0  0  0.045861  0  3.964642  0  0  0.029678  0.037073  0  3.946027  0
C  C56  1  0.55758460  0.11355316  0.44890472  1  0  -0.365348  0  3.697611  0  0  -0.445641  0  3.931049  0  0  -0.450593  0  3.938781  0  0  -0.250783  -0.441765  0  3.926257  0
C  C57  1  0.94240136  0.38645050  0.94889464  1  0  -0.365055  0  3.697529  0  0  -0.44536  0  3.930816  0  0  -0.450314  0  3.938554  0  0  -0.250674  -0.441486  0  3.926025  0
C  C58  1  0.44242050  0.88644683  0.55110234  1  0  -0.365407  0  3.697476  0  0  -0.445596  0  3.930869  0  0  -0.450544  0  3.938604  0  0  -0.25076  -0.441721  0  3.926075  0
C  C59  1  0.05759699  0.61355508  0.05110223  1  0  -0.36523  0  3.69742  0  0  -0.4455  0  3.930846  0  0  -0.45045  0  3.938582  0  0  -0.250758  -0.441626  0  3.926052  0
C  C60  1  0.62768312  0.10133178  0.28149718  1  0  -0.365996  0  3.703631  0  0  -0.449875  0  3.941683  0  0  -0.454202  0  3.947408  0  0  -0.253738  -0.446318  0  3.938368  0
C  C61  1  0.87229217  0.39866289  0.78148774  1  0  -0.365972  0  3.703794  0  0  -0.449856  0  3.941857  0  0  -0.454191  0  3.94757  0  0  -0.25382  -0.446301  0  3.938536  0
C  C62  1  0.37230600  0.89866109  0.71850875  1  0  -0.36582  0  3.70381  0  0  -0.449735  0  3.941871  0  0  -0.45407  0  3.94759  0  0  -0.253728  -0.446176  0  3.93854  0
C  C63  1  0.12770618  0.60134269  0.21851025  1  0  -0.365958  0  3.703748  0  0  -0.449865  0  3.941844  0  0  -0.454211  0  3.947541  0  0  -0.253834  -0.44632  0  3.938513  0
Br  Br64  1  0.97867832  0.12979038  0.63039299  1  0  -0.447637  0  1.532273  0  0  -0.373992  0  1.943813  0  0  -0.391284  0  1.903879  0  0  -0.210157  -0.361645  0  1.970835  0
Br  Br65  1  0.52131282  0.37021024  0.13039307  1  0  -0.447717  0  1.532212  0  0  -0.374103  0  1.943787  0  0  -0.391399  0  1.903851  0  0  -0.210192  -0.361758  0  1.97079  0
Br  Br66  1  0.02131916  0.87020884  0.36960897  1  0  -0.44767  0  1.532331  0  0  -0.37405  0  1.943931  0  0  -0.391344  0  1.903992  0  0  -0.210184  -0.361699  0  1.970941  0
Br  Br67  1  0.47866747  0.62979140  0.86960776  1  0  -0.447662  0  1.532251  0  0  -0.374057  0  1.943834  0  0  -0.391355  0  1.903897  0  0  -0.210173  -0.361691  0  1.970832  0
Br  Br68  1  0.37526430  0.40021323  0.60081295  1  0  -0.443005  0  1.522163  0  0  -0.365638  0  1.934818  0  0  -0.385325  0  1.896071  0  0  -0.215157  -0.351584  0  1.961046  0
Br  Br69  1  0.12470731  0.09978644  0.10081162  1  0  -0.443015  0  1.522064  0  0  -0.365618  0  1.934667  0  0  -0.385314  0  1.89593  0  0  -0.215136  -0.351565  0  1.960883  0
Br  Br70  1  0.62471087  0.59978763  0.39918845  1  0  -0.44299  0  1.52202  0  0  -0.365612  0  1.934608  0  0  -0.385309  0  1.895871  0  0  -0.215155  -0.351557  0  1.96083  0
Br  Br71  1  0.87529126  0.90022074  0.89918354  1  0  -0.443026  0  1.521995  0  0  -0.365661  0  1.934613  0  0  -0.385344  0  1.895863  0  0  -0.215134  -0.351608  0  1.960839  0
N  N72  1  0.88855123  0.27972754  0.44478647  1  0  -0.279554  0  3.324437  0  0  -0.213066  0  3.613811  0  0  -0.219602  0  3.618384  0  0  -0.354582  -0.209315  0  3.610839  0
N  N73  1  0.61143182  0.22027218  0.94478616  1  0  -0.27915  0  3.324588  0  0  -0.212708  0  3.613903  0  0  -0.219243  0  3.618472  0  0  -0.354464  -0.208956  0  3.610922  0
N  N74  1  0.11144179  0.72027566  0.55521266  1  0  -0.279475  0  3.324391  0  0  -0.21296  0  3.613821  0  0  -0.219499  0  3.618397  0  0  -0.354575  -0.20921  0  3.610847  0
N  N75  1  0.38857786  0.77972462  0.05520957  1  0  -0.279193  0  3.324365  0  0  -0.21277  0  3.613803  0  0  -0.2193  0  3.618358  0  0  -0.354462  -0.209023  0  3.610833  0
N  N76  1  0.96988814  0.26550334  0.28750404  1  0  -0.278162  0  3.318891  0  0  -0.211173  0  3.605573  0  0  -0.216935  0  3.610578  0  0  -0.351751  -0.208064  0  3.602467  0
N  N77  1  0.53009620  0.23448569  0.78749986  1  0  -0.277993  0  3.318685  0  0  -0.211104  0  3.605463  0  0  -0.21687  0  3.610475  0  0  -0.35166  -0.207991  0  3.602354  0
N  N78  1  0.03010534  0.73448474  0.71249849  1  0  -0.277983  0  3.318757  0  0  -0.211157  0  3.605566  0  0  -0.216898  0  3.610569  0  0  -0.351679  -0.208047  0  3.602456  0
N  N79  1  0.46991706  0.76551906  0.21249644  1  0  -0.277815  0  3.318832  0  0  -0.210922  0  3.605544  0  0  -0.216673  0  3.610543  0  0  -0.351519  -0.20781  0  3.602434  0
