# generated using pymatgen
data_Cu2H6C7(SN2)2
_symmetry_space_group_name_H-M   'P 1'
_cell_length_a   5.66410406
_cell_length_b   7.75167396
_cell_length_c   12.23555589
_cell_angle_alpha   74.64427036
_cell_angle_beta   80.90431868
_cell_angle_gamma   71.86344020
_symmetry_Int_Tables_number   1
_chemical_formula_structural   Cu2H6C7(SN2)2
_chemical_formula_sum   'Cu4 H12 C14 S4 N8'
_cell_volume   490.62127427
_cell_formula_units_Z   2
loop_
 _symmetry_equiv_pos_site_id
 _symmetry_equiv_pos_as_xyz
  1  'x, y, z'
loop_
 _atom_site_type_symbol
 _atom_site_label
 _atom_site_symmetry_multiplicity
 _atom_site_fract_x
 _atom_site_fract_y
 _atom_site_fract_z
 _atom_site_occupancy
 _atom_site_pbe_bader_spin_density
 _atom_site_pbe_cm5_charge
 _atom_site_pbe_ddec_charge
 _atom_site_pbe_ddec_spin_density
 _atom_site_pbe_ddec_sum_bond_order
 _atom_site_pbe_magmom
Cu  Cu0  1  0.93400837  0.01812527  0.17800753  1  0  0.499851  0.335607  0  2.629264  0
Cu  Cu1  1  0.06598787  0.98187263  0.82199215  1  0  0.499867  0.33557  0  2.629421  0
Cu  Cu2  1  0.96984849  0.30414072  0.27295338  1  0  0.494545  0.334309  0  2.690789  0
Cu  Cu3  1  0.03015114  0.69585300  0.72704921  1  0  0.49458  0.334348  0  2.690861  0
H  H4  1  0.76142969  0.46623340  0.46545025  1  0  0.093935  0.142182  0  1.008269  0
H  H5  1  0.23857356  0.53376034  0.53454717  1  0  0.09395  0.142191  0  1.008261  0
H  H6  1  0.65653413  0.70955416  0.46316329  1  0  0.088381  0.141931  0  1.045314  0
H  H7  1  0.34347294  0.29044800  0.53683654  1  0  0.088372  0.141897  0  1.045244  0
H  H8  1  0.92847715  0.61732808  0.37812418  1  0  0.095128  0.1455  0  1.020615  0
H  H9  1  0.07152661  0.38266427  0.62187588  1  0  0.095137  0.145517  0  1.020722  0
H  H10  1  0.28951472  0.86473611  0.36149821  1  0  0.111126  0.100252  0  1.029979  0
H  H11  1  0.71049397  0.13527586  0.63849333  1  0  0.111094  0.100233  0  1.029995  0
H  H12  1  0.17934261  0.69032347  0.08443206  1  0  0.106493  0.091724  0  1.044892  0
H  H13  1  0.82065970  0.30967726  0.91556426  1  0  0.106469  0.091692  0  1.044714  0
H  H14  1  0.59937210  0.45385225  0.10073174  1  0  0.113607  0.096608  0  1.008399  0
H  H15  1  0.40063335  0.54615410  0.89926670  1  0  0.113629  0.096706  0  1.008445  0
C  C16  1  0.49180870  0.17465939  0.35445911  1  0  0.144049  0.262817  0  4.238528  0
C  C17  1  0.50818179  0.82533007  0.64555137  1  0  0.144098  0.26278  0  4.237971  0
C  C18  1  0.41022328  0.14887732  0.10196691  1  0  0.148532  0.279806  0  4.213104  0
C  C19  1  0.58976923  0.85113453  0.89803724  1  0  0.148511  0.279774  0  4.213333  0
C  C20  1  0.58804491  0.63662577  0.31582500  1  0  0.122896  0.279786  0  3.91584  0
C  C21  1  0.41196215  0.36337639  0.68417647  1  0  0.122904  0.279775  0  3.915865  0
C  C22  1  0.74027031  0.60736824  0.41121084  1  0  -0.246362  -0.460361  0  3.941849  0
C  C23  1  0.25971657  0.39263518  0.58879348  1  0  -0.246363  -0.460308  0  3.941799  0
C  C24  1  0.35786543  0.77143903  0.30341282  1  0  0.042566  -0.014227  0  3.853066  0
C  C25  1  0.64214100  0.22856034  0.69658262  1  0  0.042608  -0.014176  0  3.853024  0
C  C26  1  0.29880500  0.67729399  0.14935979  1  0  0.038062  0.035399  0  3.908565  0
C  C27  1  0.70119776  0.32270116  0.85063253  1  0  0.038076  0.03546  0  3.908524  0
C  C28  1  0.53054619  0.54700192  0.15869641  1  0  0.042523  0.059991  0  3.931289  0
C  C29  1  0.46946569  0.45300168  0.84130284  1  0  0.042535  0.059785  0  3.931151  0
S  S30  1  0.78189971  0.07977328  0.38587238  1  0  -0.150592  -0.263214  0  2.90249  0
S  S31  1  0.21808762  0.92022455  0.61412794  1  0  -0.150594  -0.263218  0  2.902503  0
S  S32  1  0.11731910  0.25070746  0.07715835  1  0  -0.163023  -0.285478  0  3.054796  0
S  S33  1  0.88266273  0.74930432  0.92284575  1  0  -0.163052  -0.285492  0  3.054922  0
N  N34  1  0.62065177  0.07790788  0.12188611  1  0  -0.434452  -0.438712  0  3.489174  0
N  N35  1  0.37934247  0.92209979  0.87810962  1  0  -0.434416  -0.438658  0  3.489174  0
N  N36  1  0.28307244  0.24599991  0.33166747  1  0  -0.434608  -0.44008  0  3.471477  0
N  N37  1  0.71694149  0.75397993  0.66834132  1  0  -0.434652  -0.440083  0  3.471164  0
N  N38  1  0.67806247  0.52531347  0.24063692  1  0  -0.353697  -0.236485  0  3.598876  0
N  N39  1  0.32194502  0.47468310  0.75936136  1  0  -0.353795  -0.23653  0  3.598692  0
N  N40  1  0.21191022  0.79429280  0.22047502  1  0  -0.358977  -0.167359  0  3.681609  0
N  N41  1  0.78809189  0.20570373  0.77952610  1  0  -0.358943  -0.16726  0  3.68161  0
