# generated using pymatgen
data_Cu3P2H18C22(NO4)2
_symmetry_space_group_name_H-M   'P 1'
_cell_length_a   5.50753705
_cell_length_b   8.79851988
_cell_length_c   12.17633094
_cell_angle_alpha   103.30120120
_cell_angle_beta   86.82022674
_cell_angle_gamma   97.91313943
_symmetry_Int_Tables_number   1
_chemical_formula_structural   Cu3P2H18C22(NO4)2
_chemical_formula_sum   'Cu3 P2 H18 C22 N2 O8'
_cell_volume   568.57327152
_cell_formula_units_Z   1
loop_
 _symmetry_equiv_pos_site_id
 _symmetry_equiv_pos_as_xyz
  1  'x, y, z'
loop_
 _atom_site_type_symbol
 _atom_site_label
 _atom_site_symmetry_multiplicity
 _atom_site_fract_x
 _atom_site_fract_y
 _atom_site_fract_z
 _atom_site_occupancy
 _atom_site_pbe_cm5_charge
 _atom_site_pbe_ddec_charge
 _atom_site_pbe_ddec_spin_density
 _atom_site_pbe_ddec_sum_bond_order
 _atom_site_pbe_magmom
Cu  Cu0  1  0.99993553  0.00164529  0.00054495  1  0.704568  0.988365  -0.643171  2.220639  -0.508
Cu  Cu1  1  0.26856497  0.38267979  0.05095718  1  0.7479  0.964139  -0.734475  2.175488  -0.584
Cu  Cu2  1  0.72711582  0.61533655  0.94924661  1  0.742489  0.956028  0.642794  2.196465  0.506
P  P3  1  0.19319504  0.74031794  0.07465347  1  0.311335  1.20257  -0.003644  5.486984  -0.001
P  P4  1  0.80681973  0.25744358  0.92401555  1  0.310328  1.198701  -0.003423  5.499866  -0.001
H  H5  1  0.59579139  0.86509583  0.94489378  1  0.277389  0.380325  -0.00018  0.953455  0.0
H  H6  1  0.40497686  0.13546081  0.05610632  1  0.277444  0.381342  -0.001814  0.9527  -0.001
H  H7  1  0.95623074  0.76499359  0.29404525  1  0.099128  0.097586  0.000148  1.053958  0.0
H  H8  1  0.04474878  0.23445641  0.70458801  1  0.099203  0.098292  -0.000188  1.051828  0.0
H  H9  1  0.09408090  0.87041061  0.48849306  1  0.092078  0.084945  -1.9e-05  1.05574  0.0
H  H10  1  0.90648833  0.12971190  0.51009419  1  0.092516  0.08564  5e-06  1.054872  0.0
H  H11  1  0.78780197  0.05674727  0.35678429  1  0.095994  0.094987  7.1e-05  1.031963  0.0
H  H12  1  0.21324282  0.94233284  0.64166606  1  0.096559  0.096008  -5.8e-05  1.031516  0.0
H  H13  1  0.65044671  0.94474020  0.16521337  1  0.101308  0.093349  0.000221  1.033783  0.0
H  H14  1  0.35086782  0.05350759  0.83329319  1  0.101527  0.092844  0.000568  1.033709  0.0
H  H15  1  0.67493989  0.57270031  0.18877900  1  0.124932  0.120463  -0.00084  1.03669  -0.001
H  H16  1  0.32301984  0.42948467  0.81170369  1  0.124825  0.120544  0.000732  1.035443  0.001
H  H17  1  0.80331869  0.61105017  0.38602486  1  0.104676  0.103579  -0.000396  1.05454  0.0
H  H18  1  0.19737317  0.38957829  0.61402443  1  0.104742  0.103741  0.000308  1.054534  0.0
H  H19  1  0.10176515  0.35856400  0.45648730  1  0.105416  0.108205  -0.00046  1.032905  -0.001
H  H20  1  0.89845577  0.64309691  0.54463588  1  0.105602  0.108897  0.000387  1.032061  0.0
H  H21  1  0.01103968  0.32008743  0.25458083  1  0.125155  0.1012  -0.000762  0.977819  -0.002
H  H22  1  0.98708235  0.68260096  0.74708952  1  0.125113  0.100048  0.000744  0.981818  0.001
C  C23  1  0.29342499  0.84201890  0.21542558  1  -0.02553  -0.168707  0.002167  3.951181  0.002
C  C24  1  0.70751551  0.15709091  0.78306066  1  -0.026242  -0.172239  -0.00259  3.962242  -0.003
C  C25  1  0.14084123  0.82592876  0.30903606  1  -0.091817  -0.075989  0.000145  4.018349  0.0
C  C26  1  0.86000774  0.17373143  0.68956228  1  -0.092334  -0.075807  -8.7e-05  4.01926  0.0
C  C27  1  0.22033023  0.88683081  0.41884650  1  -0.101974  -0.148513  -0.000227  4.002983  0.0
C  C28  1  0.78030535  0.11317485  0.57975734  1  -0.101348  -0.148492  2.7e-05  4.000585  0.0
C  C29  1  0.45653006  0.96962255  0.44070914  1  -0.013995  0.059843  4e-06  3.994373  0.0
C  C30  1  0.54412692  0.03020559  0.55784752  1  -0.013292  0.062008  8.4e-05  3.992249  0.0
C  C31  1  0.60444195  0.99175114  0.34577775  1  -0.09316  -0.132907  0.000213  3.9502  0.0
C  C32  1  0.39646355  0.00755360  0.65278373  1  -0.093777  -0.134864  -0.000286  3.953297  0.0
C  C33  1  0.52649896  0.92864691  0.23580943  1  -0.076297  -0.030338  0.000379  3.941146  0.001
C  C34  1  0.47452231  0.07031253  0.76274277  1  -0.076721  -0.030492  -0.000302  3.946652  -0.001
C  C35  1  0.55455113  0.52644486  0.25113891  1  0.056902  0.110054  -0.000677  3.878444  0.0
C  C36  1  0.44386321  0.47567200  0.74951666  1  0.05645  0.110041  -0.000503  3.883574  -0.001
C  C37  1  0.62353504  0.54791979  0.36222597  1  -0.080653  -0.169093  -0.003269  3.935742  -0.004
C  C38  1  0.37645487  0.45339956  0.63821683  1  -0.081445  -0.170372  0.002782  3.937268  0.003
C  C39  1  0.46495715  0.48920718  0.44103823  1  0.010876  0.101081  0.001044  3.975976  0.001
C  C40  1  0.53546960  0.51221083  0.55958522  1  0.011921  0.10449  -0.002179  3.97443  -0.002
C  C41  1  0.23732609  0.40764052  0.40131795  1  -0.083051  -0.173403  -0.003838  3.937667  -0.004
C  C42  1  0.76247723  0.59419682  0.59971782  1  -0.082823  -0.173905  0.002956  3.937455  0.004
C  C43  1  0.18246662  0.38677221  0.28860801  1  0.052983  0.106608  -0.000958  3.941879  0.0
C  C44  1  0.81610548  0.61572650  0.71266575  1  0.05276  0.105863  7.1e-05  3.943127  0.0
N  N45  1  0.33761972  0.44602395  0.21503860  1  -0.342937  -0.22547  -0.054753  3.602316  -0.072
N  N46  1  0.66008422  0.55681773  0.78611001  1  -0.345941  -0.229428  0.044214  3.617238  0.059
O  O47  1  0.35099640  0.60499790  0.03286562  1  -0.387196  -0.760091  -0.049627  2.491816  -0.067
O  O48  1  0.64966398  0.39217012  0.96663320  1  -0.386569  -0.760212  0.031794  2.493708  0.042
O  O49  1  0.92138090  0.67967941  0.08937191  1  -0.384066  -0.752146  0.031293  2.409927  0.042
O  O50  1  0.08066520  0.31521250  0.91056500  1  -0.383748  -0.753784  -0.03581  2.418523  -0.049
O  O51  1  0.24596050  0.85378635  0.99339685  1  -0.381968  -0.727616  -0.054764  2.311427  -0.075
O  O52  1  0.75267514  0.14299988  0.00470690  1  -0.379709  -0.721406  -0.040932  2.333498  -0.059
O  O53  1  0.76183185  0.83288031  0.93495436  1  -0.593855  -0.853579  0.013443  2.271037  0.02
O  O54  1  0.23959392  0.16732822  0.07304996  1  -0.591673  -0.852932  -0.136361  2.230096  -0.19
