# generated using pymatgen
data_CsH2C2(N3O)2
_symmetry_space_group_name_H-M   'P 1'
_cell_length_a   4.94514646
_cell_length_b   15.32410288
_cell_length_c   18.11809126
_cell_angle_alpha   89.99986500
_cell_angle_beta   90.00004791
_cell_angle_gamma   89.99959764
_symmetry_Int_Tables_number   1
_chemical_formula_structural   CsH2C2(N3O)2
_chemical_formula_sum   'Cs8 H16 C16 N48 O16'
_cell_volume   1372.98774406
_cell_formula_units_Z   8
loop_
 _symmetry_equiv_pos_site_id
 _symmetry_equiv_pos_as_xyz
  1  'x, y, z'
loop_
 _atom_site_type_symbol
 _atom_site_label
 _atom_site_symmetry_multiplicity
 _atom_site_fract_x
 _atom_site_fract_y
 _atom_site_fract_z
 _atom_site_occupancy
 _atom_site_hle17_bader_spin_density
 _atom_site_hle17_ddec_charge
 _atom_site_hle17_ddec_spin_density
 _atom_site_hle17_ddec_sum_bond_order
 _atom_site_hle17_magmom
 _atom_site_hse06_10hf_bader_spin_density
 _atom_site_hse06_10hf_ddec_charge
 _atom_site_hse06_10hf_ddec_spin_density
 _atom_site_hse06_10hf_ddec_sum_bond_order
 _atom_site_hse06_10hf_magmom
 _atom_site_hse06_bader_spin_density
 _atom_site_hse06_ddec_charge
 _atom_site_hse06_ddec_spin_density
 _atom_site_hse06_ddec_sum_bond_order
 _atom_site_hse06_magmom
 _atom_site_pbe_bader_spin_density
 _atom_site_pbe_cm5_charge
 _atom_site_pbe_ddec_charge
 _atom_site_pbe_ddec_spin_density
 _atom_site_pbe_ddec_sum_bond_order
 _atom_site_pbe_magmom
Cs  Cs0  1  0.43797248  0.68149555  0.65761337  1  0  0.917491  0  0.595382  0  0  0.842687  0  0.8434  0  0  0.86  0  0.819111  0  0  1.016157  0.830036  0  0.860587  0
Cs  Cs1  1  0.56201651  0.31850457  0.15761128  1  0  0.917511  0  0.595355  0  0  0.842695  0  0.843385  0  0  0.86002  0  0.819082  0  0  1.016141  0.830044  0  0.860575  0
Cs  Cs2  1  0.43799047  0.81850201  0.15760582  1  0  0.917529  0  0.595291  0  0  0.8427  0  0.843349  0  0  0.860019  0  0.819046  0  0  1.016094  0.830047  0  0.860539  0
Cs  Cs3  1  0.56202481  0.18149877  0.65761055  1  0  0.917515  0  0.595318  0  0  0.842711  0  0.843346  0  0  0.86003  0  0.819045  0  0  1.016114  0.830061  0  0.860532  0
Cs  Cs4  1  0.93794305  0.93097234  0.81623751  1  0  0.907859  0  0.616426  0  0  0.830791  0  0.869198  0  0  0.848388  0  0.844585  0  0  1.031528  0.817936  0  0.886651  0
Cs  Cs5  1  0.06204034  0.06902734  0.31623358  1  0  0.907896  0  0.616363  0  0  0.830832  0  0.869119  0  0  0.848428  0  0.844508  0  0  1.031467  0.817981  0  0.88657  0
Cs  Cs6  1  0.93791795  0.56902821  0.31622824  1  0  0.907918  0  0.61638  0  0  0.83087  0  0.869142  0  0  0.848464  0  0.844561  0  0  1.031593  0.818017  0  0.886597  0
Cs  Cs7  1  0.06204522  0.43097277  0.81622851  1  0  0.907906  0  0.616389  0  0  0.830845  0  0.869165  0  0  0.848443  0  0.844553  0  0  1.031553  0.817992  0  0.886617  0
H  H8  1  0.44913447  0.75408153  0.87750677  1  0  0.339281  0  0.913965  0  0  0.319888  0  0.983855  0  0  0.327449  0  0.977097  0  0  0.30678  0.314555  0  0.988575  0
H  H9  1  0.55085719  0.24592318  0.37750869  1  0  0.339196  0  0.913998  0  0  0.319808  0  0.98389  0  0  0.327368  0  0.977134  0  0  0.30673  0.314475  0  0.988609  0
H  H10  1  0.44911562  0.74591276  0.37751095  1  0  0.339308  0  0.914041  0  0  0.319924  0  0.983894  0  0  0.327486  0  0.977131  0  0  0.306782  0.314592  0  0.988616  0
H  H11  1  0.55087401  0.25408021  0.87750837  1  0  0.339191  0  0.913987  0  0  0.319807  0  0.983848  0  0  0.327368  0  0.977087  0  0  0.306723  0.314476  0  0.988568  0
H  H12  1  0.42640418  0.84687321  0.93290324  1  0  0.322151  0  0.944585  0  0  0.297458  0  1.023235  0  0  0.306124  0  1.015699  0  0  0.296506  0.291358  0  1.028479  0
H  H13  1  0.57358764  0.15313135  0.43290534  1  0  0.322186  0  0.94455  0  0  0.297491  0  1.023211  0  0  0.306155  0  1.015679  0  0  0.296514  0.29139  0  1.028453  0
H  H14  1  0.42640960  0.65311772  0.43290705  1  0  0.321977  0  0.944766  0  0  0.297485  0  1.023157  0  0  0.306159  0  1.015609  0  0  0.296501  0.291384  0  1.028402  0
H  H15  1  0.57358626  0.34687575  0.93290209  1  0  0.32208  0  0.944649  0  0  0.297451  0  1.023206  0  0  0.306116  0  1.015671  0  0  0.296498  0.29135  0  1.028452  0
H  H16  1  0.05691416  0.39771190  0.04099621  1  0  0.319068  0  0.957121  0  0  0.29255  0  1.038426  0  0  0.301354  0  1.030886  0  0  0.294284  0.286383  0  1.043605  0
H  H17  1  0.94308662  0.60228660  0.54099857  1  0  0.319  0  0.95725  0  0  0.292532  0  1.038443  0  0  0.301337  0  1.0309  0  0  0.294282  0.286363  0  1.04363  0
H  H18  1  0.05692418  0.10228965  0.54099729  1  0  0.319055  0  0.95713  0  0  0.29258  0  1.038339  0  0  0.301383  0  1.030799  0  0  0.294312  0.286412  0  1.043523  0
H  H19  1  0.94308671  0.89771211  0.04099639  1  0  0.319079  0  0.95706  0  0  0.292561  0  1.03836  0  0  0.301364  0  1.030822  0  0  0.294306  0.286393  0  1.043539  0
H  H20  1  0.02219025  0.49393153  0.09297234  1  0  0.340897  0  0.893283  0  0  0.322026  0  0.961729  0  0  0.329336  0  0.955356  0  0  0.310905  0.31685  0  0.966214  0
H  H21  1  0.97781675  0.50606682  0.59297213  1  0  0.340913  0  0.893278  0  0  0.322041  0  0.961726  0  0  0.329349  0  0.95535  0  0  0.310921  0.316866  0  0.966211  0
H  H22  1  0.02219428  0.00607257  0.59297471  1  0  0.340872  0  0.893327  0  0  0.322004  0  0.961752  0  0  0.329314  0  0.95538  0  0  0.310907  0.316829  0  0.966235  0
H  H23  1  0.97782485  0.99393101  0.09297031  1  0  0.340924  0  0.893233  0  0  0.322054  0  0.96167  0  0  0.329364  0  0.955297  0  0  0.310938  0.316879  0  0.966154  0
C  C24  1  0.13566154  0.75520550  0.95029530  1  0  0.524091  0  3.841667  0  0  0.465253  0  4.13617  0  0  0.488649  0  4.144227  0  0  0.326793  0.449545  0  4.13042  0
C  C25  1  0.86433640  0.24479705  0.45029564  1  0  0.524172  0  3.841714  0  0  0.465333  0  4.136228  0  0  0.488729  0  4.144282  0  0  0.326817  0.449623  0  4.130474  0
C  C26  1  0.13565283  0.74478407  0.45030225  1  0  0.524566  0  3.841105  0  0  0.465776  0  4.135433  0  0  0.489169  0  4.143484  0  0  0.32699  0.450069  0  4.129687  0
C  C27  1  0.86434713  0.25521130  0.95029587  1  0  0.524333  0  3.84127  0  0  0.465525  0  4.135703  0  0  0.488919  0  4.143755  0  0  0.326916  0.449816  0  4.129957  0
C  C28  1  0.81842296  0.66271379  0.98448175  1  0  0.207064  0  3.778393  0  0  0.173061  0  4.06759  0  0  0.184785  0  4.077185  0  0  0.219771  0.165113  0  4.061218  0
C  C29  1  0.18157912  0.33728671  0.48448064  1  0  0.207239  0  3.778445  0  0  0.173194  0  4.06769  0  0  0.184927  0  4.077272  0  0  0.219792  0.165246  0  4.061317  0
C  C30  1  0.81841628  0.83727741  0.48448961  1  0  0.207076  0  3.777987  0  0  0.172977  0  4.067224  0  0  0.18471  0  4.076802  0  0  0.219741  0.165028  0  4.060856  0
C  C31  1  0.18158985  0.16272243  0.98448436  1  0  0.207076  0  3.778395  0  0  0.173023  0  4.06769  0  0  0.184744  0  4.077277  0  0  0.219775  0.16508  0  4.061321  0
C  C32  1  0.64761389  0.58652094  0.98603605  1  0  0.208291  0  3.776832  0  0  0.173109  0  4.065747  0  0  0.185006  0  4.075327  0  0  0.219811  0.165083  0  4.059364  0
C  C33  1  0.35238617  0.41348021  0.48603594  1  0  0.208231  0  3.776942  0  0  0.173082  0  4.06581  0  0  0.184974  0  4.07539  0  0  0.219807  0.165054  0  4.059429  0
C  C34  1  0.64760959  0.91347391  0.48604432  1  0  0.2082  0  3.776799  0  0  0.172949  0  4.065835  0  0  0.184843  0  4.075417  0  0  0.219719  0.164924  0  4.059452  0
C  C35  1  0.35239250  0.08652528  0.98603981  1  0  0.208302  0  3.776782  0  0  0.173057  0  4.065801  0  0  0.184971  0  4.07536  0  0  0.219772  0.165015  0  4.059438  0
C  C36  1  0.33729913  0.49212171  0.02108788  1  0  0.525271  0  3.844416  0  0  0.464745  0  4.140019  0  0  0.488115  0  4.148237  0  0  0.325134  0.449053  0  4.13415  0
C  C37  1  0.66271170  0.50787946  0.52109035  1  0  0.525231  0  3.84437  0  0  0.464691  0  4.140016  0  0  0.488073  0  4.148213  0  0  0.325091  0.448992  0  4.134156  0
C  C38  1  0.33731122  0.00788057  0.52109631  1  0  0.525235  0  3.844465  0  0  0.464673  0  4.140101  0  0  0.488057  0  4.148297  0  0  0.32518  0.448973  0  4.13424  0
C  C39  1  0.66271175  0.99211929  0.02109295  1  0  0.52534  0  3.844302  0  0  0.464761  0  4.139954  0  0  0.488143  0  4.148154  0  0  0.325171  0.449061  0  4.134092  0
N  N40  1  0.02319401  0.78515587  0.01228972  1  0  -0.409871  0  3.015962  0  0  -0.365867  0  3.30422  0  0  -0.381349  0  3.3151  0  0  -0.302707  -0.355425  0  3.296745  0
N  N41  1  0.97680264  0.21484663  0.51229063  1  0  -0.409852  0  3.015967  0  0  -0.365876  0  3.304234  0  0  -0.381357  0  3.315114  0  0  -0.302662  -0.355431  0  3.296758  0
N  N42  1  0.02319753  0.71483717  0.51229886  1  0  -0.409979  0  3.015736  0  0  -0.36604  0  3.30398  0  0  -0.381517  0  3.314853  0  0  -0.302706  -0.355602  0  3.29651  0
N  N43  1  0.97680114  0.28516011  0.01229418  1  0  -0.409985  0  3.01584  0  0  -0.365994  0  3.304088  0  0  -0.381473  0  3.314966  0  0  -0.30273  -0.355555  0  3.296616  0
N  N44  1  0.82403041  0.72676587  0.03338095  1  0  -0.285321  0  3.008834  0  0  -0.278929  0  3.312948  0  0  -0.283533  0  3.323769  0  0  -0.29999  -0.275498  0  3.305521  0
N  N45  1  0.17597237  0.27323657  0.53338044  1  0  -0.285428  0  3.008917  0  0  -0.279033  0  3.313063  0  0  -0.28364  0  3.323881  0  0  -0.300039  -0.275602  0  3.305636  0
N  N46  1  0.82403064  0.77322726  0.53339052  1  0  -0.285074  0  3.008642  0  0  -0.278671  0  3.312769  0  0  -0.283277  0  3.323588  0  0  -0.299892  -0.275241  0  3.305344  0
N  N47  1  0.17597012  0.22677061  0.03338577  1  0  -0.285181  0  3.009047  0  0  -0.278771  0  3.313148  0  0  -0.283375  0  3.323972  0  0  -0.299925  -0.275343  0  3.305721  0
N  N48  1  0.01210686  0.67845599  0.93046546  1  0  -0.121873  0  3.556632  0  0  -0.037132  0  3.792018  0  0  -0.051774  0  3.81209  0  0  -0.141846  -0.027517  0  3.778551  0
N  N49  1  0.98789507  0.32154727  0.43046458  1  0  -0.12199  0  3.556756  0  0  -0.03725  0  3.792175  0  0  -0.051894  0  3.812242  0  0  -0.141865  -0.027638  0  3.778709  0
N  N50  1  0.01209041  0.82153523  0.43047170  1  0  -0.122557  0  3.557049  0  0  -0.037589  0  3.792149  0  0  -0.05223  0  3.81221  0  0  -0.142175  -0.027978  0  3.778689  0
N  N51  1  0.98791556  0.17846151  0.93046772  1  0  -0.122301  0  3.556924  0  0  -0.037535  0  3.792321  0  0  -0.052176  0  3.812391  0  0  -0.142054  -0.027923  0  3.778856  0
N  N52  1  0.32993640  0.79369960  0.90931801  1  0  -0.71735  0  3.111024  0  0  -0.682178  0  3.359096  0  0  -0.702758  0  3.353627  0  0  -0.641029  -0.667696  0  3.362512  0
N  N53  1  0.67005737  0.20630437  0.40932004  1  0  -0.717321  0  3.111083  0  0  -0.682124  0  3.359091  0  0  -0.702704  0  3.353626  0  0  -0.640962  -0.667654  0  3.362534  0
N  N54  1  0.32992246  0.70629292  0.40932338  1  0  -0.717396  0  3.111139  0  0  -0.682458  0  3.359029  0  0  -0.703048  0  3.353566  0  0  -0.641035  -0.667966  0  3.36243  0
N  N55  1  0.67007333  0.29370192  0.90931964  1  0  -0.717265  0  3.111022  0  0  -0.682167  0  3.359058  0  0  -0.702754  0  3.353612  0  0  -0.640979  -0.667678  0  3.362459  0
N  N56  1  0.07320962  0.63069269  0.86734352  1  0  -0.280242  0  2.687324  0  0  -0.31078  0  2.988646  0  0  -0.318211  0  2.996555  0  0  -0.214532  -0.305876  0  2.983514  0
N  N57  1  0.92679010  0.36931075  0.36734529  1  0  -0.280322  0  2.687335  0  0  -0.310869  0  2.988659  0  0  -0.318301  0  2.996576  0  0  -0.2146  -0.30596  0  2.983522  0
N  N58  1  0.07320629  0.86930052  0.36735243  1  0  -0.28012  0  2.687618  0  0  -0.31072  0  2.988844  0  0  -0.318152  0  2.996752  0  0  -0.214472  -0.305815  0  2.98371  0
N  N59  1  0.92680759  0.13069704  0.86734797  1  0  -0.280124  0  2.687502  0  0  -0.310662  0  2.988787  0  0  -0.318096  0  2.996699  0  0  -0.214499  -0.305756  0  2.983652  0
N  N60  1  0.92049658  0.65826537  0.81110920  1  0  0.590703  0  4.051254  0  0  0.619843  0  4.35405  0  0  0.643726  0  4.363077  0  0  0.046835  0.603853  0  4.347717  0
N  N61  1  0.07950095  0.34173823  0.31111026  1  0  0.590612  0  4.051086  0  0  0.619758  0  4.353883  0  0  0.643642  0  4.362909  0  0  0.046792  0.603771  0  4.347546  0
N  N62  1  0.92050598  0.84172740  0.31111485  1  0  0.590613  0  4.051221  0  0  0.619753  0  4.354045  0  0  0.643636  0  4.363072  0  0  0.046815  0.603765  0  4.347712  0
N  N63  1  0.07951177  0.15826837  0.81111068  1  0  0.590738  0  4.050975  0  0  0.619883  0  4.353767  0  0  0.643764  0  4.362796  0  0  0.046908  0.603893  0  4.347434  0
N  N64  1  0.65274685  0.52031157  0.93913161  1  0  -0.286609  0  3.003349  0  0  -0.279348  0  3.30603  0  0  -0.284195  0  3.317288  0  0  -0.298234  -0.275786  0  3.298313  0
N  N65  1  0.34725712  0.47968970  0.43913248  1  0  -0.28663  0  3.003298  0  0  -0.279372  0  3.30598  0  0  -0.284218  0  3.31724  0  0  -0.298235  -0.275809  0  3.298262  0
N  N66  1  0.65275728  0.97968404  0.43913976  1  0  -0.286649  0  3.003348  0  0  -0.279375  0  3.306049  0  0  -0.284223  0  3.31731  0  0  -0.298303  -0.275814  0  3.298327  0
N  N67  1  0.34725073  0.02031528  0.93913537  1  0  -0.286695  0  3.003229  0  0  -0.279412  0  3.305913  0  0  -0.284264  0  3.317169  0  0  -0.298355  -0.275846  0  3.2982  0
N  N68  1  0.45861375  0.46036894  0.96094355  1  0  -0.415859  0  3.000661  0  0  -0.371573  0  3.288364  0  0  -0.387059  0  3.299378  0  0  -0.313654  -0.361107  0  3.280808  0
N  N69  1  0.54139029  0.53963162  0.46094434  1  0  -0.415707  0  3.000513  0  0  -0.371466  0  3.288257  0  0  -0.386958  0  3.299263  0  0  -0.313592  -0.360996  0  3.280701  0
N  N70  1  0.45863378  0.03963181  0.46095089  1  0  -0.415717  0  3.0008  0  0  -0.371407  0  3.288532  0  0  -0.386899  0  3.299542  0  0  -0.313497  -0.360934  0  3.280972  0
N  N71  1  0.54138037  0.96036940  0.96094859  1  0  -0.415826  0  3.000661  0  0  -0.371506  0  3.288387  0  0  -0.387  0  3.2994  0  0  -0.313575  -0.361037  0  3.280831  0
N  N72  1  0.44980659  0.57122700  0.03888494  1  0  -0.125655  0  3.567738  0  0  -0.03837  0  3.801604  0  0  -0.053141  0  3.821855  0  0  -0.143097  -0.028681  0  3.788008  0
N  N73  1  0.55019418  0.42877281  0.53888478  1  0  -0.125629  0  3.567774  0  0  -0.03835  0  3.801629  0  0  -0.053125  0  3.821878  0  0  -0.143073  -0.028658  0  3.788035  0
N  N74  1  0.44981152  0.92877152  0.53889312  1  0  -0.125502  0  3.567679  0  0  -0.038167  0  3.80151  0  0  -0.052944  0  3.821758  0  0  -0.143035  -0.028476  0  3.787915  0
N  N75  1  0.55019937  0.07122959  0.03888930  1  0  -0.125578  0  3.567762  0  0  -0.038222  0  3.801596  0  0  -0.053007  0  3.821846  0  0  -0.143017  -0.028527  0  3.788001  0
N  N76  1  0.14416681  0.45383839  0.06262814  1  0  -0.716014  0  3.108521  0  0  -0.680275  0  3.359585  0  0  -0.700875  0  3.354402  0  0  -0.630724  -0.665804  0  3.362821  0
N  N77  1  0.85583403  0.54615940  0.56262893  1  0  -0.715973  0  3.108701  0  0  -0.680266  0  3.359743  0  0  -0.700865  0  3.354553  0  0  -0.630728  -0.665796  0  3.362982  0
N  N78  1  0.14418210  0.04616552  0.56263319  1  0  -0.716004  0  3.108638  0  0  -0.680282  0  3.359706  0  0  -0.700885  0  3.354517  0  0  -0.630772  -0.66581  0  3.362942  0
N  N79  1  0.85583290  0.95383749  0.06262939  1  0  -0.716117  0  3.108583  0  0  -0.680345  0  3.359659  0  0  -0.70095  0  3.354469  0  0  -0.630822  -0.665872  0  3.362895  0
N  N80  1  0.37357788  0.61986411  0.10022523  1  0  -0.279213  0  2.688643  0  0  -0.311466  0  2.991077  0  0  -0.318901  0  2.999131  0  0  -0.207264  -0.306548  0  2.985839  0
N  N81  1  0.62641095  0.38013814  0.60022684  1  0  -0.279211  0  2.688783  0  0  -0.311456  0  2.991216  0  0  -0.31889  0  2.999272  0  0  -0.207286  -0.306538  0  2.985975  0
N  N82  1  0.37357982  0.88013507  0.60023295  1  0  -0.279158  0  2.688693  0  0  -0.31143  0  2.991125  0  0  -0.318864  0  2.999181  0  0  -0.207261  -0.306511  0  2.985882  0
N  N83  1  0.62643125  0.11986522  0.10022961  1  0  -0.279241  0  2.688854  0  0  -0.311521  0  2.991285  0  0  -0.318957  0  2.999345  0  0  -0.207263  -0.306602  0  2.986041  0
N  N84  1  0.50171404  0.58939162  0.15986898  1  0  0.594402  0  4.045093  0  0  0.62479  0  4.345535  0  0  0.64878  0  4.354443  0  0  0.043085  0.608733  0  4.339262  0
N  N85  1  0.49826081  0.41060589  0.65986829  1  0  0.594291  0  4.04527  0  0  0.624667  0  4.345729  0  0  0.648652  0  4.354645  0  0  0.043028  0.60861  0  4.339457  0
N  N86  1  0.50172340  0.91060383  0.65987608  1  0  0.593932  0  4.045614  0  0  0.624313  0  4.346105  0  0  0.648302  0  4.355024  0  0  0.042826  0.608255  0  4.339828  0
N  N87  1  0.49827571  0.08939563  0.15987167  1  0  0.594309  0  4.045462  0  0  0.624705  0  4.345909  0  0  0.648693  0  4.354825  0  0  0.042998  0.608644  0  4.339638  0
O  O88  1  0.75322886  0.72108946  0.81525635  1  0  -0.517286  0  1.801264  0  0  -0.497573  0  2.027207  0  0  -0.51179  0  2.021573  0  0  -0.250282  -0.487707  0  2.031013  0
O  O89  1  0.24676463  0.27891543  0.31525317  1  0  -0.517162  0  1.80133  0  0  -0.497446  0  2.027248  0  0  -0.511662  0  2.021613  0  0  -0.25024  -0.487581  0  2.031055  0
O  O90  1  0.75323761  0.77890628  0.31525716  1  0  -0.517216  0  1.801336  0  0  -0.497494  0  2.027242  0  0  -0.511712  0  2.021612  0  0  -0.250296  -0.487632  0  2.03105  0
O  O91  1  0.24677004  0.22109143  0.81525346  1  0  -0.517255  0  1.80126  0  0  -0.497536  0  2.027176  0  0  -0.51175  0  2.021542  0  0  -0.25033  -0.487674  0  2.030984  0
O  O92  1  0.95294087  0.61715241  0.75082861  1  0  -0.558704  0  1.80503  0  0  -0.534567  0  2.030848  0  0  -0.550231  0  2.025159  0  0  -0.360313  -0.523528  0  2.034541  0
O  O93  1  0.04704637  0.38285463  0.25082904  1  0  -0.558676  0  1.804875  0  0  -0.534526  0  2.030679  0  0  -0.550203  0  2.025004  0  0  -0.360279  -0.523488  0  2.034374  0
O  O94  1  0.95297364  0.88284176  0.25083418  1  0  -0.558653  0  1.804844  0  0  -0.534513  0  2.030663  0  0  -0.550176  0  2.024964  0  0  -0.360194  -0.523473  0  2.034357  0
O  O95  1  0.04705607  0.11715157  0.75083009  1  0  -0.558711  0  1.804728  0  0  -0.534574  0  2.030535  0  0  -0.550241  0  2.024845  0  0  -0.360262  -0.523534  0  2.034228  0
O  O96  1  0.67493505  0.52809322  0.15826734  1  0  -0.520681  0  1.781397  0  0  -0.500517  0  2.005405  0  0  -0.514609  0  1.999331  0  0  -0.274259  -0.490741  0  2.009535  0
O  O97  1  0.32502563  0.47189972  0.65826484  1  0  -0.520593  0  1.781385  0  0  -0.500406  0  2.005383  0  0  -0.514495  0  1.999304  0  0  -0.274229  -0.49063  0  2.009511  0
O  O98  1  0.67495117  0.97190119  0.65827433  1  0  -0.520513  0  1.781521  0  0  -0.500338  0  2.00553  0  0  -0.51443  0  1.999455  0  0  -0.274183  -0.490562  0  2.009656  0
O  O99  1  0.32504793  0.02810154  0.15826889  1  0  -0.520621  0  1.781497  0  0  -0.500468  0  2.005524  0  0  -0.514558  0  1.999445  0  0  -0.274218  -0.490694  0  2.009654  0
O  O100  1  0.43986317  0.62666099  0.22025112  1  0  -0.561933  0  1.8023  0  0  -0.537685  0  2.027123  0  0  -0.553347  0  2.021127  0  0  -0.359704  -0.526642  0  2.031046  0
O  O101  1  0.56009971  0.37333765  0.72025218  1  0  -0.561942  0  1.802358  0  0  -0.537692  0  2.027199  0  0  -0.55335  0  2.021195  0  0  -0.359662  -0.52665  0  2.031119  0
O  O102  1  0.43987942  0.87333116  0.72025940  1  0  -0.56174  0  1.802394  0  0  -0.537477  0  2.027203  0  0  -0.553136  0  2.021206  0  0  -0.359544  -0.526433  0  2.031117  0
O  O103  1  0.56011987  0.12666748  0.22025549  1  0  -0.561893  0  1.80234  0  0  -0.537641  0  2.027161  0  0  -0.5533  0  2.021161  0  0  -0.359619  -0.526595  0  2.031077  0
