# generated using pymatgen
data_Cu2H9C11Br3(NO)2
_symmetry_space_group_name_H-M   'P 1'
_cell_length_a   8.80051006
_cell_length_b   9.58360117
_cell_length_c   10.11219479
_cell_angle_alpha   73.45162710
_cell_angle_beta   70.82329252
_cell_angle_gamma   63.62181787
_symmetry_Int_Tables_number   1
_chemical_formula_structural   Cu2H9C11Br3(NO)2
_chemical_formula_sum   'Cu4 H18 C22 Br6 N4 O4'
_cell_volume   711.88358968
_cell_formula_units_Z   2
loop_
 _symmetry_equiv_pos_site_id
 _symmetry_equiv_pos_as_xyz
  1  'x, y, z'
loop_
 _atom_site_type_symbol
 _atom_site_label
 _atom_site_symmetry_multiplicity
 _atom_site_fract_x
 _atom_site_fract_y
 _atom_site_fract_z
 _atom_site_occupancy
 _atom_site_hle17_ddec_charge
 _atom_site_hle17_ddec_spin_density
 _atom_site_hle17_ddec_sum_bond_order
 _atom_site_hle17_magmom
 _atom_site_hse06_10hf_ddec_charge
 _atom_site_hse06_10hf_ddec_spin_density
 _atom_site_hse06_10hf_ddec_sum_bond_order
 _atom_site_hse06_10hf_magmom
 _atom_site_hse06_ddec_charge
 _atom_site_hse06_ddec_spin_density
 _atom_site_hse06_ddec_sum_bond_order
 _atom_site_hse06_magmom
 _atom_site_pbe_cm5_charge
 _atom_site_pbe_ddec_charge
 _atom_site_pbe_ddec_spin_density
 _atom_site_pbe_ddec_sum_bond_order
 _atom_site_pbe_magmom
Cu  Cu0  1  0.32800293  0.96870376  0.63941435  1  0.650146  -0.571129  2.039826  -0.418  0.644573  -0.694575  2.44999  -0.552  0.74419  -0.789782  2.368562  -0.646  0.51093  0.589683  -0.628406  2.501161  -0.492
Cu  Cu1  1  0.67199969  0.03129738  0.36058026  1  0.650153  0.571134  2.039873  0.418  0.644566  0.694571  2.450047  0.552  0.744157  0.78977  2.368615  0.646  0.510923  0.589682  0.628408  2.501215  0.492
Cu  Cu2  1  0.96148161  0.05018620  0.82125784  1  0.677641  0.562127  1.947741  0.41  0.653215  0.679952  2.377765  0.538  0.749411  0.770591  2.299693  0.627  0.526666  0.599459  0.61705  2.428315  0.482
Cu  Cu3  1  0.03851429  0.94981375  0.17874493  1  0.677606  -0.562124  1.947717  -0.41  0.653179  -0.679952  2.377735  -0.538  0.749357  -0.770579  2.299658  -0.627  0.526649  0.599416  -0.617051  2.428286  -0.482
H  H4  1  0.99780317  0.87337262  0.49890803  1  0.388085  -0.000362  0.862757  0.0  0.362055  -0.000308  0.940635  0.0  0.372828  -0.000214  0.927651  0.0  0.295028  0.354417  -0.000326  0.94966  0.0
H  H5  1  0.00220146  0.12662378  0.50109420  1  0.388065  0.000363  0.862798  0.0  0.362037  0.000308  0.940683  0.0  0.372809  0.000214  0.927688  0.0  0.295018  0.354406  0.000326  0.949711  0.0
H  H6  1  0.25699726  0.46578356  0.68848884  1  0.10584  8.3e-05  0.974819  -0.001  0.116651  0.000131  1.036335  -0.001  0.120199  0.000173  1.034851  -0.001  0.100538  0.114077  9.2e-05  1.037637  -0.001
H  H7  1  0.74299693  0.53421757  0.31151509  1  0.105823  -8e-05  0.974858  0.001  0.116642  -0.000131  1.036381  0.001  0.12019  -0.000174  1.034897  0.001  0.100535  0.114065  -9.2e-05  1.037686  0.001
H  H8  1  0.56672759  0.28752868  0.68012916  1  0.09804  -0.000437  0.955977  0.0  0.107225  -0.000385  1.022012  0.0  0.111005  -0.000319  1.01763  0.0  0.096671  0.104261  -0.000407  1.025543  0.0
H  H9  1  0.43327523  0.71247482  0.31986477  1  0.098125  0.000435  0.955911  0.0  0.107292  0.000385  1.02196  0.0  0.111068  0.000319  1.017585  0.0  0.096726  0.104345  0.000407  1.025472  0.0
H  H10  1  0.67567616  0.95419675  0.03716184  1  0.076543  0.000709  0.984158  0.002  0.083171  0.000885  1.054451  0.002  0.08506  0.0007  1.052757  0.001  0.097693  0.081703  0.000996  1.055503  0.002
H  H11  1  0.32431824  0.04580676  0.96283349  1  0.076495  -0.000709  0.98412  -0.002  0.083167  -0.000885  1.054343  -0.002  0.085056  -0.0007  1.052651  -0.001  0.09769  0.081695  -0.000997  1.055399  -0.002
H  H12  1  0.67373935  0.69803223  0.63992330  1  0.074693  -0.001075  0.985829  -0.002  0.081718  -0.001247  1.055998  -0.002  0.083858  -0.000978  1.054478  -0.001  0.100198  0.080301  -0.001425  1.056586  -0.002
H  H13  1  0.32626106  0.30197127  0.36007428  1  0.074688  0.001079  0.985807  0.002  0.081722  0.001246  1.055989  0.002  0.083864  0.000978  1.054467  0.001  0.100209  0.080306  0.001425  1.056582  0.002
H  H14  1  0.58228109  0.73063667  0.07896003  1  0.10126  0.000392  0.977769  0.0  0.111668  0.000435  1.038644  0.001  0.11425  0.000327  1.038157  0.0  0.099456  0.109842  0.00051  1.039092  0.001
H  H15  1  0.41771412  0.26936211  0.92103930  1  0.101235  -0.000403  0.97782  0.0  0.111641  -0.000435  1.038705  -0.001  0.114223  -0.000327  1.038217  0.0  0.099453  0.109815  -0.00051  1.039151  -0.001
H  H16  1  0.75443482  0.52115193  0.92262177  1  0.099706  -1e-05  0.950615  0.0  0.110465  -0.000122  1.011034  0.0  0.114386  -0.000111  1.006982  0.0  0.097055  0.107619  -0.000124  1.013967  0.0
H  H17  1  0.24556589  0.47884801  0.07738063  1  0.099673  1.2e-05  0.950668  0.0  0.110444  0.000122  1.011071  0.0  0.114365  0.000111  1.007021  0.0  0.097053  0.107597  0.000124  1.014002  0.0
H  H18  1  0.78268164  0.40369423  0.65546942  1  0.104457  -0.001164  0.979711  0.0  0.110826  -0.001183  1.048527  -0.001  0.114562  -0.000927  1.046439  0.0  0.094776  0.107954  -0.001338  1.050414  -0.001
H  H19  1  0.21732360  0.59630928  0.34451887  1  0.104407  0.001164  0.979723  0.0  0.110793  0.001183  1.048523  0.001  0.114529  0.000927  1.046434  0.0  0.094785  0.107919  0.001338  1.05041  0.001
H  H20  1  0.99591905  0.55821049  0.71981266  1  0.106959  0.000331  0.967292  0.001  0.11957  0.000322  1.024545  0.001  0.123881  0.000203  1.021309  0.001  0.100694  0.116689  0.000422  1.026644  0.001
H  H21  1  0.00407937  0.44178355  0.28019295  1  0.106913  -0.00033  0.967247  -0.001  0.119517  -0.000321  1.024517  -0.001  0.123829  -0.000203  1.021279  -0.001  0.100678  0.116637  -0.000422  1.026614  -0.001
C  C22  1  0.11756563  0.79808808  0.65583826  1  0.434933  -0.000196  3.663631  0.0  0.407738  -0.000254  3.918723  0.0  0.425868  -0.000203  3.923185  0.0  0.150948  0.395155  -0.00025  3.915699  0.0
C  C23  1  0.88243850  0.20190951  0.34416281  1  0.434805  0.000206  3.66377  0.0  0.407748  0.000255  3.918599  0.0  0.425877  0.000202  3.92306  0.0  0.150931  0.395163  0.000251  3.915581  0.0
C  C24  1  0.97078546  0.76801909  0.77824699  1  0.141039  -0.007654  3.663407  -0.008  0.139346  -0.00161  3.901635  -0.002  0.147517  -0.002108  3.921501  -0.003  0.108992  0.134194  -0.001269  3.888683  -0.001
C  C25  1  0.02921506  0.23197850  0.22175510  1  0.141055  0.007654  3.663365  0.008  0.139319  0.00161  3.901571  0.002  0.147489  0.002108  3.921439  0.003  0.108962  0.13417  0.001269  3.888619  0.001
C  C26  1  0.30143561  0.67610336  0.66814127  1  0.157699  0.00149  3.629882  0.002  0.156158  -0.002357  3.866648  -0.002  0.163758  -0.000638  3.88726  0.0  0.115633  0.151359  -0.003607  3.853177  -0.003
C  C27  1  0.69856289  0.32389895  0.33186112  1  0.157762  -0.001474  3.62999  -0.002  0.15623  0.002356  3.866714  0.002  0.163825  0.00064  3.887327  0.0  0.115634  0.151433  0.003607  3.853241  0.003
C  C28  1  0.35144703  0.51410875  0.67951336  1  -0.128979  -0.006205  3.693202  -0.006  -0.14595  -0.0024  3.935008  -0.002  -0.153599  -0.002585  3.956252  -0.003  -0.08057  -0.140757  -0.002184  3.920501  -0.002
C  C29  1  0.64855539  0.48589000  0.32049085  1  -0.128832  0.006182  3.693075  0.006  -0.145862  0.0024  3.934948  0.002  -0.153509  0.002583  3.95619  0.003  -0.080522  -0.140669  0.002183  3.920446  0.002
C  C30  1  0.52514630  0.41395542  0.67582090  1  0.01225  0.006922  3.698884  0.007  -0.005404  0.001966  3.944762  0.002  -0.000365  0.002477  3.960921  0.002  -0.063819  -0.008799  0.001557  3.93408  0.001
C  C31  1  0.47485410  0.58604807  0.32417767  1  0.012021  -0.006916  3.698843  -0.007  -0.005618  -0.001966  3.944811  -0.002  -0.000577  -0.002476  3.960965  -0.002  -0.063916  -0.009029  -0.001557  3.934126  -0.001
C  C32  1  0.74470785  0.86152427  0.97167667  1  0.13467  -0.006753  3.692206  -0.008  0.108537  -0.00097  3.936792  -0.002  0.118349  -0.002  3.95556  -0.003  0.040932  0.102559  -0.000195  3.924475  -0.001
C  C33  1  0.25528704  0.13847804  0.02832378  1  0.134697  0.006756  3.692125  0.008  0.108555  0.000969  3.936712  0.002  0.118368  0.002  3.955478  0.003  0.040934  0.102583  0.000195  3.924394  0.001
C  C34  1  0.58704269  0.63987660  0.65184627  1  0.125216  0.006221  3.689354  0.008  0.098635  0.000333  3.932652  0.002  0.107168  0.001481  3.953035  0.003  0.041108  0.093663  -0.000458  3.919216  0.002
C  C35  1  0.41295943  0.36012571  0.34815114  1  0.125276  -0.00624  3.689234  -0.008  0.098676  -0.000334  3.932517  -0.002  0.107206  -0.00148  3.952899  -0.003  0.041115  0.093703  0.000458  3.91908  -0.002
C  C36  1  0.69516016  0.73612933  0.99475650  1  -0.101401  0.008379  3.713938  0.009  -0.112332  0.003484  3.955402  0.004  -0.119024  0.003429  3.974388  0.004  -0.082112  -0.108521  0.003381  3.942822  0.004
C  C37  1  0.30483935  0.26387061  0.00524723  1  -0.101295  -0.008356  3.713945  -0.009  -0.112257  -0.003485  3.955453  -0.004  -0.118948  -0.003429  3.97444  -0.004  -0.082076  -0.108442  -0.003382  3.94287  -0.004
C  C38  1  0.78897485  0.62203659  0.90665423  1  0.013413  -0.007543  3.687084  -0.007  -0.002039  -0.002488  3.929124  -0.002  0.003533  -0.002818  3.944244  -0.003  -0.064008  -0.005286  -0.0022  3.918853  -0.002
C  C39  1  0.21102206  0.37796100  0.09334889  1  0.013376  0.007535  3.68737  0.007  -0.002083  0.002487  3.929412  0.002  0.003486  0.002818  3.944536  0.003  -0.064034  -0.005328  0.002199  3.919142  0.002
C  C40  1  0.64532345  0.47783336  0.66166464  1  -0.102397  -0.008993  3.722118  -0.01  -0.113875  -0.004342  3.967306  -0.005  -0.120827  -0.004027  3.986741  -0.005  -0.082503  -0.10946  -0.004464  3.954509  -0.005
C  C41  1  0.35468057  0.52217013  0.33833092  1  -0.102275  0.008999  3.722107  0.01  -0.113753  0.004341  3.967276  0.005  -0.120706  0.004026  3.986709  0.005  -0.082487  -0.109342  0.004464  3.954496  0.005
C  C42  1  0.92639365  0.64031236  0.79534008  1  -0.130545  0.006123  3.707254  0.006  -0.148474  0.001931  3.950062  0.002  -0.155409  0.002249  3.968247  0.002  -0.084055  -0.144202  0.001655  3.937429  0.002
C  C43  1  0.07360808  0.35968523  0.20466068  1  -0.130503  -0.006126  3.707271  -0.006  -0.148421  -0.001931  3.9501  -0.002  -0.155361  -0.002249  3.968291  -0.002  -0.08404  -0.14415  -0.001655  3.937466  -0.002
Br  Br44  1  0.12138435  0.22527743  0.71081748  1  -0.342735  0.005341  1.224365  0.004  -0.345627  0.006186  1.570228  0.005  -0.395177  0.006875  1.541455  0.006  -0.169004  -0.317867  0.005434  1.590434  0.004
Br  Br45  1  0.87861035  0.77472253  0.28918266  1  -0.342698  -0.005339  1.224358  -0.004  -0.345603  -0.006179  1.570245  -0.005  -0.395143  -0.006871  1.541468  -0.006  -0.168993  -0.317835  -0.005428  1.590432  -0.004
Br  Br46  1  0.76114177  0.20242227  0.99785931  1  -0.452212  0.15393  1.067287  0.151  -0.471836  0.095881  1.402553  0.096  -0.510633  0.077592  1.375407  0.08  -0.243968  -0.449234  0.102243  1.422453  0.101
Br  Br47  1  0.23885514  0.79757533  0.00214183  1  -0.452181  -0.15393  1.06723  -0.151  -0.471826  -0.09588  1.402511  -0.096  -0.51062  -0.077595  1.375366  -0.08  -0.243964  -0.449209  -0.102246  1.422383  -0.101
Br  Br48  1  0.57572014  0.99827034  0.65770319  1  -0.416837  -0.161944  1.150906  -0.157  -0.44038  -0.10029  1.496307  -0.1  -0.481971  -0.079177  1.469238  -0.08  -0.228935  -0.416446  -0.108286  1.515638  -0.107
Br  Br49  1  0.42428430  0.00172370  0.34229775  1  -0.41683  0.161944  1.150925  0.157  -0.440342  0.100291  1.496294  0.1  -0.481928  0.079181  1.469226  0.08  -0.228919  -0.416409  0.108287  1.515628  0.107
N  N50  1  0.41909205  0.73595172  0.65537964  1  -0.295832  -0.0732  3.372432  -0.092  -0.237315  -0.057915  3.642694  -0.077  -0.270138  -0.051005  3.66799  -0.071  -0.352102  -0.219203  -0.059701  3.628677  -0.077
N  N51  1  0.58091158  0.26404705  0.34461927  1  -0.295954  0.073195  3.3725  0.092  -0.237442  0.057912  3.64277  0.077  -0.270253  0.051001  3.668051  0.071  -0.352132  -0.219331  0.059696  3.628757  0.077
N  N52  1  0.88104693  0.87529525  0.86672676  1  -0.305343  0.075083  3.374168  0.097  -0.247829  0.059266  3.651854  0.081  -0.280963  0.052868  3.675472  0.075  -0.354969  -0.22914  0.060743  3.638862  0.08
N  N53  1  0.11895379  0.12470471  0.13327168  1  -0.305312  -0.075091  3.374119  -0.097  -0.247801  -0.059267  3.651812  -0.081  -0.28093  -0.05287  3.675426  -0.075  -0.354922  -0.22911  -0.060744  3.638816  -0.08
O  O54  1  0.10658524  0.95092523  0.65043092  1  -0.649891  -3.8e-05  2.212934  0.0  -0.604734  0.000246  2.526397  0.001  -0.657735  0.001004  2.521332  0.002  -0.388685  -0.572287  -0.000441  2.531998  0.0
O  O55  1  0.89341599  0.04907354  0.34956967  1  -0.649872  3.5e-05  2.213022  0.0  -0.60472  -0.000243  2.526368  -0.001  -0.657708  -0.001003  2.521284  -0.002  -0.388693  -0.57228  0.000443  2.531979  0.0
O  O56  1  0.10081392  0.78342328  0.52609890  1  -0.576432  0.007324  2.018932  0.009  -0.535776  0.005685  2.242652  0.007  -0.553999  0.003688  2.22946  0.005  -0.382604  -0.521758  0.007351  2.250376  0.009
O  O57  1  0.89919141  0.21657430  0.47390183  1  -0.576408  -0.007325  2.018955  -0.009  -0.535781  -0.005684  2.242612  -0.007  -0.553999  -0.003688  2.229421  -0.005  -0.382584  -0.521776  -0.007349  2.250307  -0.009
