# generated using pymatgen
data_Zn5H4C4(N9O2)2
_symmetry_space_group_name_H-M   'P 1'
_cell_length_a   8.47833471
_cell_length_b   9.11574306
_cell_length_c   14.25265192
_cell_angle_alpha   71.49330697
_cell_angle_beta   72.69178896
_cell_angle_gamma   62.28683741
_symmetry_Int_Tables_number   1
_chemical_formula_structural   Zn5H4C4(N9O2)2
_chemical_formula_sum   'Zn10 H8 C8 N36 O8'
_cell_volume   909.88388651
_cell_formula_units_Z   2
loop_
 _symmetry_equiv_pos_site_id
 _symmetry_equiv_pos_as_xyz
  1  'x, y, z'
loop_
 _atom_site_type_symbol
 _atom_site_label
 _atom_site_symmetry_multiplicity
 _atom_site_fract_x
 _atom_site_fract_y
 _atom_site_fract_z
 _atom_site_occupancy
 _atom_site_hle17_bader_spin_density
 _atom_site_hle17_ddec_charge
 _atom_site_hle17_ddec_spin_density
 _atom_site_hle17_ddec_sum_bond_order
 _atom_site_hle17_magmom
 _atom_site_hse06_10hf_bader_spin_density
 _atom_site_hse06_10hf_ddec_charge
 _atom_site_hse06_10hf_ddec_spin_density
 _atom_site_hse06_10hf_ddec_sum_bond_order
 _atom_site_hse06_10hf_magmom
 _atom_site_hse06_bader_spin_density
 _atom_site_hse06_ddec_charge
 _atom_site_hse06_ddec_spin_density
 _atom_site_hse06_ddec_sum_bond_order
 _atom_site_hse06_magmom
 _atom_site_pbe_bader_spin_density
 _atom_site_pbe_cm5_charge
 _atom_site_pbe_ddec_charge
 _atom_site_pbe_ddec_spin_density
 _atom_site_pbe_ddec_sum_bond_order
 _atom_site_pbe_magmom
Zn  Zn0  1  0.15569838  0.92132429  0.63180615  1  0  1.014659  0  1.901183  0  0  0.830263  0  2.361252  0  0  0.873468  0  2.309323  0  0  0.677414  0.799987  0  2.397  0
Zn  Zn1  1  0.70871765  0.57878689  0.86809254  1  0  1.015116  0  1.901253  0  0  0.830723  0  2.360964  0  0  0.873964  0  2.309075  0  0  0.677891  0.800446  0  2.396686  0
Zn  Zn2  1  0.84430060  0.07867665  0.36819314  1  0  1.014625  0  1.901244  0  0  0.830223  0  2.361328  0  0  0.873427  0  2.309399  0  0  0.677394  0.799943  0  2.397077  0
Zn  Zn3  1  0.29128133  0.42121404  0.13190676  1  0  1.015133  0  1.90122  0  0  0.830748  0  2.360921  0  0  0.873984  0  2.309032  0  0  0.677898  0.800473  0  2.396642  0
Zn  Zn4  1  0.77386866  0.28297763  0.52796958  1  0  0.990032  0  1.937431  0  0  0.794615  0  2.422166  0  0  0.837519  0  2.368553  0  0  0.687455  0.764637  0  2.459138  0
Zn  Zn5  1  0.58474079  0.21699239  0.97206553  1  0  0.991223  0  1.935973  0  0  0.795529  0  2.420335  0  0  0.838452  0  2.366685  0  0  0.688177  0.765538  0  2.457326  0
Zn  Zn6  1  0.22613134  0.71702331  0.47202993  1  0  0.990011  0  1.93743  0  0  0.7946  0  2.422168  0  0  0.8375  0  2.368558  0  0  0.687457  0.764619  0  2.459143  0
Zn  Zn7  1  0.41525851  0.78300854  0.02793468  1  0  0.991153  0  1.935998  0  0  0.795453  0  2.420374  0  0  0.838375  0  2.366726  0  0  0.688155  0.765463  0  2.457366  0
Zn  Zn8  1  0.87529819  0.25004194  0.74996607  1  0  0.902952  0  2.062393  0  0  0.71614  0  2.518296  0  0  0.755822  0  2.475083  0  0  0.678599  0.688698  0  2.547627  0
Zn  Zn9  1  0.12470166  0.74995772  0.25003430  1  0  0.902981  0  2.062348  0  0  0.716176  0  2.518246  0  0  0.755856  0  2.475036  0  0  0.678621  0.688735  0  2.547578  0
H  H10  1  0.05741155  0.24829693  0.57458866  1  0  0.398459  0  0.87085  0  0  0.369522  0  0.945305  0  0  0.378574  0  0.935403  0  0  0.291276  0.363027  0  0.952401  0
H  H11  1  0.88008126  0.25192857  0.92531250  1  0  0.398858  0  0.869727  0  0  0.369684  0  0.944742  0  0  0.378726  0  0.934844  0  0  0.291458  0.363202  0  0.95183  0
H  H12  1  0.94258729  0.75170273  0.42541150  1  0  0.398365  0  0.870952  0  0  0.369456  0  0.945374  0  0  0.378508  0  0.935475  0  0  0.29125  0.362961  0  0.952471  0
H  H13  1  0.11991976  0.74807236  0.07468723  1  0  0.39887  0  0.869707  0  0  0.369694  0  0.94473  0  0  0.378734  0  0.934833  0  0  0.291452  0.363211  0  0.95182  0
H  H14  1  0.16813161  0.01438544  0.43962406  1  0  0.380266  0  0.931598  0  0  0.352339  0  0.995783  0  0  0.361052  0  0.983423  0  0  0.267665  0.346138  0  1.004572  0
H  H15  1  0.62217090  0.48569156  0.06029042  1  0  0.38068  0  0.930047  0  0  0.352632  0  0.995182  0  0  0.361367  0  0.982786  0  0  0.268017  0.346426  0  1.00398  0
H  H16  1  0.83186495  0.98561549  0.56037642  1  0  0.380257  0  0.931612  0  0  0.352329  0  0.995795  0  0  0.361043  0  0.983437  0  0  0.267666  0.346128  0  1.004585  0
H  H17  1  0.37782794  0.51430811  0.93970973  1  0  0.380704  0  0.930014  0  0  0.352658  0  0.995142  0  0  0.361394  0  0.982745  0  0  0.268026  0.346452  0  1.00394  0
C  C18  1  0.34183418  0.81464929  0.81877748  1  0  0.512217  0  3.820345  0  0  0.463707  0  4.095776  0  0  0.486016  0  4.10799  0  0  0.32146  0.448784  0  4.087184  0
C  C19  1  0.97545193  0.68532317  0.68126111  1  0  0.512477  0  3.819593  0  0  0.464042  0  4.095542  0  0  0.486324  0  4.107779  0  0  0.32123  0.449099  0  4.086932  0
C  C20  1  0.65816410  0.18535165  0.18122251  1  0  0.512187  0  3.820416  0  0  0.463674  0  4.095841  0  0  0.485982  0  4.108059  0  0  0.321438  0.448751  0  4.087249  0
C  C21  1  0.02454737  0.31467776  0.31873911  1  0  0.512586  0  3.819719  0  0  0.464149  0  4.095658  0  0  0.486432  0  4.107894  0  0  0.321236  0.449203  0  4.087047  0
C  C22  1  0.49294862  0.60121654  0.72565239  1  0  0.51825  0  3.787613  0  0  0.471424  0  4.066856  0  0  0.492716  0  4.078924  0  0  0.324439  0.457134  0  4.058472  0
C  C23  1  0.81993143  0.89884353  0.77431908  1  0  0.519497  0  3.78451  0  0  0.472374  0  4.064568  0  0  0.493657  0  4.076603  0  0  0.324203  0.45805  0  4.056206  0
C  C24  1  0.50705068  0.39878439  0.27434783  1  0  0.518375  0  3.787413  0  0  0.471474  0  4.066743  0  0  0.492761  0  4.078814  0  0  0.324456  0.457185  0  4.058359  0
C  C25  1  0.18006898  0.10115486  0.22568145  1  0  0.51943  0  3.784618  0  0  0.472317  0  4.064658  0  0  0.4936  0  4.076695  0  0  0.324159  0.457993  0  4.056293  0
N  N26  1  0.47632291  0.66005528  0.80660912  1  0  -0.634925  0  3.183501  0  0  -0.557069  0  3.471158  0  0  -0.584131  0  3.474056  0  0  -0.379076  -0.538347  0  3.468479  0
N  N27  1  0.94316856  0.83993809  0.69339095  1  0  -0.634786  0  3.181544  0  0  -0.557199  0  3.470058  0  0  -0.584131  0  3.472718  0  0  -0.378216  -0.53845  0  3.467452  0
N  N28  1  0.52367638  0.33994565  0.19339110  1  0  -0.634898  0  3.183422  0  0  -0.557048  0  3.471147  0  0  -0.584091  0  3.474012  0  0  -0.379066  -0.538329  0  3.468469  0
N  N29  1  0.05683231  0.16006157  0.30660964  1  0  -0.634791  0  3.181522  0  0  -0.557219  0  3.470045  0  0  -0.58415  0  3.472703  0  0  -0.378168  -0.538467  0  3.467446  0
N  N30  1  0.22521092  0.93129577  0.75663410  1  0  -0.382107  0  3.130202  0  0  -0.321651  0  3.421153  0  0  -0.34085  0  3.431689  0  0  -0.249558  -0.308785  0  3.414033  0
N  N31  1  0.91321307  0.56873034  0.74337588  1  0  -0.383798  0  3.131624  0  0  -0.323077  0  3.422169  0  0  -0.342273  0  3.432668  0  0  -0.249726  -0.310219  0  3.415076  0
N  N32  1  0.77478907  0.06870517  0.24336541  1  0  -0.382087  0  3.130223  0  0  -0.321635  0  3.421197  0  0  -0.340836  0  3.431733  0  0  -0.249523  -0.308771  0  3.414074  0
N  N33  1  0.08678647  0.43126933  0.25662358  1  0  -0.383858  0  3.131707  0  0  -0.323113  0  3.422234  0  0  -0.342311  0  3.432733  0  0  -0.249749  -0.310256  0  3.415144  0
N  N34  1  0.11974959  0.06157205  0.80361992  1  0  -0.084933  0  3.266967  0  0  -0.042561  0  3.566788  0  0  -0.047452  0  3.58079  0  0  -0.110547  -0.039133  0  3.557278  0
N  N35  1  0.98497235  0.43848042  0.69637377  1  0  -0.084809  0  3.266876  0  0  -0.041864  0  3.565689  0  0  -0.046737  0  3.579641  0  0  -0.109856  -0.038431  0  3.556195  0
N  N36  1  0.88025128  0.93842762  0.19638067  1  0  -0.084952  0  3.266964  0  0  -0.042598  0  3.566815  0  0  -0.047488  0  3.580816  0  0  -0.110592  -0.039163  0  3.557297  0
N  N37  1  0.01502875  0.56151797  0.30362606  1  0  -0.084883  0  3.26683  0  0  -0.041955  0  3.56566  0  0  -0.046829  0  3.579612  0  0  -0.109883  -0.038522  0  3.556167  0
N  N38  1  0.16498874  0.03129817  0.88939528  1  0  -0.057357  0  2.967513  0  0  -0.065673  0  3.256078  0  0  -0.060838  0  3.266151  0  0  -0.096976  -0.068652  0  3.249348  0
N  N39  1  0.08576964  0.46873715  0.61060944  1  0  -0.058524  0  2.968195  0  0  -0.066576  0  3.256914  0  0  -0.061739  0  3.266972  0  0  -0.098679  -0.069559  0  3.25019  0
N  N40  1  0.83501228  0.96870276  0.11060445  1  0  -0.057346  0  2.967439  0  0  -0.065669  0  3.256003  0  0  -0.06083  0  3.266077  0  0  -0.096979  -0.068651  0  3.249273  0
N  N41  1  0.91422989  0.53126252  0.38939001  1  0  -0.058438  0  2.968211  0  0  -0.066485  0  3.256935  0  0  -0.061649  0  3.266993  0  0  -0.098651  -0.069468  0  3.250212  0
N  N42  1  0.30398750  0.87751602  0.90153942  1  0  -0.399461  0  3.206407  0  0  -0.32631  0  3.51305  0  0  -0.347674  0  3.522455  0  0  -0.250905  -0.312029  0  3.506583  0
N  N43  1  0.08321793  0.62247063  0.59849098  1  0  -0.397325  0  3.20484  0  0  -0.325564  0  3.513281  0  0  -0.346928  0  3.522718  0  0  -0.249733  -0.311286  0  3.506823  0
N  N44  1  0.69601180  0.12248491  0.09846080  1  0  -0.399475  0  3.206378  0  0  -0.326284  0  3.512978  0  0  -0.347659  0  3.522392  0  0  -0.250885  -0.312003  0  3.506511  0
N  N45  1  0.91678294  0.37752904  0.40150961  1  0  -0.397361  0  3.204967  0  0  -0.325595  0  3.513403  0  0  -0.34696  0  3.522838  0  0  -0.249715  -0.311317  0  3.506945  0
N  N46  1  0.38423522  0.67812282  0.65511627  1  0  -0.368702  0  3.103593  0  0  -0.308763  0  3.389593  0  0  -0.326933  0  3.400697  0  0  -0.232273  -0.296595  0  3.382062  0
N  N47  1  0.71750464  0.82196285  0.84482736  1  0  -0.366472  0  3.101488  0  0  -0.307386  0  3.388619  0  0  -0.325572  0  3.399734  0  0  -0.231525  -0.295203  0  3.381082  0
N  N48  1  0.61576524  0.32187938  0.34488331  1  0  -0.368746  0  3.103604  0  0  -0.30874  0  3.389585  0  0  -0.326908  0  3.400688  0  0  -0.232277  -0.296571  0  3.382052  0
N  N49  1  0.28249576  0.17803555  0.15517317  1  0  -0.366467  0  3.101542  0  0  -0.307399  0  3.388681  0  0  -0.325586  0  3.399797  0  0  -0.231514  -0.295221  0  3.381149  0
N  N50  1  0.45207906  0.57952291  0.58832122  1  0  -0.04342  0  3.086009  0  0  -0.030507  0  3.377927  0  0  -0.02889  0  3.390619  0  0  -0.078501  -0.03116  0  3.369256  0
N  N51  1  0.61989807  0.92055629  0.91161511  1  0  -0.045286  0  3.088278  0  0  -0.032018  0  3.380676  0  0  -0.0304  0  3.393359  0  0  -0.07916  -0.03267  0  3.372005  0
N  N52  1  0.54792094  0.42047802  0.41167829  1  0  -0.043502  0  3.086017  0  0  -0.030605  0  3.377945  0  0  -0.028991  0  3.390637  0  0  -0.078546  -0.031257  0  3.369273  0
N  N53  1  0.38010178  0.07944338  0.08838526  1  0  -0.045333  0  3.088331  0  0  -0.032066  0  3.380744  0  0  -0.030448  0  3.393428  0  0  -0.079185  -0.032717  0  3.372073  0
N  N54  1  0.59457831  0.44688894  0.61626587  1  0  -0.107804  0  3.287654  0  0  -0.054979  0  3.603772  0  0  -0.062334  0  3.614754  0  0  -0.117941  -0.049965  0  3.596434  0
N  N55  1  0.65771834  0.05319100  0.88369677  1  0  -0.106391  0  3.289868  0  0  -0.053795  0  3.606015  0  0  -0.061145  0  3.617001  0  0  -0.118077  -0.048785  0  3.598672  0
N  N56  1  0.40542099  0.55311199  0.38373434  1  0  -0.10773  0  3.287569  0  0  -0.054913  0  3.603696  0  0  -0.062268  0  3.614676  0  0  -0.117915  -0.049899  0  3.596359  0
N  N57  1  0.34228221  0.94680867  0.11630290  1  0  -0.106269  0  3.289861  0  0  -0.053672  0  3.605992  0  0  -0.061022  0  3.616982  0  0  -0.118022  -0.048661  0  3.598647  0
N  N58  1  0.62568196  0.45356623  0.70200453  1  0  -0.352339  0  3.055173  0  0  -0.30088  0  3.339922  0  0  -0.318321  0  3.353021  0  0  -0.233117  -0.289249  0  3.331104  0
N  N59  1  0.78129898  0.04650815  0.79796832  1  0  -0.355453  0  3.057467  0  0  -0.303249  0  3.342037  0  0  -0.320684  0  3.355078  0  0  -0.233757  -0.291633  0  3.333284  0
N  N60  1  0.37431632  0.54643470  0.29799547  1  0  -0.352416  0  3.055129  0  0  -0.300926  0  3.339894  0  0  -0.318369  0  3.352995  0  0  -0.233122  -0.289296  0  3.331077  0
N  N61  1  0.21870315  0.95349025  0.20203173  1  0  -0.355459  0  3.057455  0  0  -0.303238  0  3.341997  0  0  -0.320673  0  3.35504  0  0  -0.233762  -0.291622  0  3.333245  0
O  O62  1  0.98435979  0.18295710  0.60923618  1  0  -0.916133  0  1.948814  0  0  -0.81143  0  2.245706  0  0  -0.84082  0  2.213824  0  0  -0.562921  -0.790539  0  2.267268  0
O  O63  1  0.77636240  0.31720175  0.89064887  1  0  -0.917138  0  1.947015  0  0  -0.812108  0  2.243304  0  0  -0.841476  0  2.211508  0  0  -0.563285  -0.791238  0  2.264799  0
O  O64  1  0.01564077  0.81704256  0.39076349  1  0  -0.916027  0  1.948899  0  0  -0.811365  0  2.245739  0  0  -0.840753  0  2.213862  0  0  -0.562907  -0.790472  0  2.2673  0
O  O65  1  0.22363746  0.68279791  0.10935150  1  0  -0.917138  0  1.946998  0  0  -0.812104  0  2.24327  0  0  -0.841468  0  2.211476  0  0  -0.563274  -0.791232  0  2.264768  0
O  O66  1  0.23836163  0.91619832  0.48598079  1  0  -0.918507  0  1.873096  0  0  -0.819882  0  2.145436  0  0  -0.848865  0  2.109779  0  0  -0.597437  -0.799332  0  2.16977  0
O  O67  1  0.64063266  0.58384509  0.01391733  1  0  -0.918994  0  1.871747  0  0  -0.820426  0  2.14482  0  0  -0.849438  0  2.109199  0  0  -0.598022  -0.799878  0  2.169137  0
O  O68  1  0.76163735  0.08380262  0.51401851  1  0  -0.918489  0  1.873087  0  0  -0.81987  0  2.145452  0  0  -0.848847  0  2.109769  0  0  -0.597433  -0.799324  0  2.169786  0
O  O69  1  0.35936790  0.41615457  0.98608234  1  0  -0.919037  0  1.871742  0  0  -0.820477  0  2.144817  0  0  -0.849488  0  2.109193  0  0  -0.598039  -0.799929  0  2.169132  0
