# generated using pymatgen
data_CuH5C6BrNO2
_symmetry_space_group_name_H-M   'P 1'
_cell_length_a   3.75719973
_cell_length_b   14.01056515
_cell_length_c   14.46613733
_cell_angle_alpha   106.05469291
_cell_angle_beta   90.00111102
_cell_angle_gamma   89.99896674
_symmetry_Int_Tables_number   1
_chemical_formula_structural   CuH5C6BrNO2
_chemical_formula_sum   'Cu4 H20 C24 Br4 N4 O8'
_cell_volume   731.80448712
_cell_formula_units_Z   4
loop_
 _symmetry_equiv_pos_site_id
 _symmetry_equiv_pos_as_xyz
  1  'x, y, z'
loop_
 _atom_site_type_symbol
 _atom_site_label
 _atom_site_symmetry_multiplicity
 _atom_site_fract_x
 _atom_site_fract_y
 _atom_site_fract_z
 _atom_site_occupancy
 _atom_site_hle17_bader_spin_density
 _atom_site_hle17_ddec_charge
 _atom_site_hle17_ddec_spin_density
 _atom_site_hle17_ddec_sum_bond_order
 _atom_site_hle17_magmom
 _atom_site_hse06_10hf_bader_spin_density
 _atom_site_hse06_10hf_ddec_charge
 _atom_site_hse06_10hf_ddec_spin_density
 _atom_site_hse06_10hf_ddec_sum_bond_order
 _atom_site_hse06_10hf_magmom
 _atom_site_hse06_bader_spin_density
 _atom_site_hse06_ddec_charge
 _atom_site_hse06_ddec_spin_density
 _atom_site_hse06_ddec_sum_bond_order
 _atom_site_hse06_magmom
 _atom_site_pbe_bader_spin_density
 _atom_site_pbe_cm5_charge
 _atom_site_pbe_ddec_charge
 _atom_site_pbe_ddec_spin_density
 _atom_site_pbe_ddec_sum_bond_order
 _atom_site_pbe_magmom
Cu  Cu0  1  0.19240412  0.73317750  0.42969484  1  0  0.311332  0  2.102195  0  0  0.217721  0  2.605259  0  0  0.226351  0  2.547942  0  0  0.301331  0.214651  0  2.642491  0
Cu  Cu1  1  0.69243710  0.76682446  0.57030328  1  0  0.311275  0  2.102339  0  0  0.217685  0  2.605343  0  0  0.226295  0  2.548026  0  0  0.301309  0.214632  0  2.642541  0
Cu  Cu2  1  0.80759057  0.26681679  0.57030490  1  0  0.31131  0  2.10233  0  0  0.217725  0  2.605353  0  0  0.226361  0  2.548037  0  0  0.301305  0.214648  0  2.642628  0
Cu  Cu3  1  0.30758154  0.23317878  0.42969337  1  0  0.311319  0  2.102303  0  0  0.217725  0  2.605318  0  0  0.22631  0  2.548001  0  0  0.30134  0.214631  0  2.642621  0
H  H4  1  0.41263509  0.92169395  0.39940778  1  0  0.088721  0  0.948494  0  0  0.092704  0  1.018785  0  0  0.097092  0  1.015134  0  0  0.101157  0.089057  0  1.022132  0
H  H5  1  0.91263254  0.57829833  0.60059029  1  0  0.088744  0  0.948469  0  0  0.092704  0  1.018795  0  0  0.097092  0  1.015145  0  0  0.101151  0.08906  0  1.022142  0
H  H6  1  0.58736758  0.07829739  0.60058839  1  0  0.088739  0  0.948389  0  0  0.092692  0  1.018708  0  0  0.09708  0  1.015058  0  0  0.101159  0.089048  0  1.022059  0
H  H7  1  0.08735416  0.42170042  0.39941066  1  0  0.088759  0  0.94839  0  0  0.092682  0  1.018762  0  0  0.097071  0  1.015111  0  0  0.101166  0.089041  0  1.022113  0
H  H8  1  0.37046311  0.00649802  0.26954875  1  0  0.113096  0  0.964998  0  0  0.117439  0  1.035985  0  0  0.121596  0  1.033289  0  0  0.098921  0.114278  0  1.038202  0
H  H9  1  0.87041432  0.49349287  0.73044927  1  0  0.113122  0  0.965059  0  0  0.117421  0  1.036076  0  0  0.121578  0  1.033383  0  0  0.09893  0.114261  0  1.038297  0
H  H10  1  0.62955286  0.99349329  0.73045087  1  0  0.113204  0  0.964999  0  0  0.117447  0  1.036086  0  0  0.121606  0  1.033389  0  0  0.098954  0.114286  0  1.03831  0
H  H11  1  0.12958569  0.50651405  0.26955391  1  0  0.113108  0  0.965064  0  0  0.117408  0  1.036068  0  0  0.121569  0  1.033371  0  0  0.098943  0.114248  0  1.038289  0
H  H12  1  0.84251734  0.74470584  0.09395547  1  0  0.116618  0  0.952005  0  0  0.123555  0  1.016432  0  0  0.126684  0  1.015107  0  0  0.109306  0.12139  0  1.01743  0
H  H13  1  0.34250754  0.75529712  0.90603614  1  0  0.116672  0  0.951876  0  0  0.123659  0  1.016233  0  0  0.126779  0  1.014915  0  0  0.109367  0.121493  0  1.017228  0
H  H14  1  0.15748533  0.25528920  0.90604240  1  0  0.116612  0  0.95205  0  0  0.123555  0  1.016471  0  0  0.126679  0  1.015144  0  0  0.109321  0.121402  0  1.017473  0
H  H15  1  0.65749779  0.24471280  0.09396025  1  0  0.116642  0  0.952002  0  0  0.123586  0  1.01641  0  0  0.126708  0  1.015089  0  0  0.109324  0.121462  0  1.017376  0
H  H16  1  0.90561417  0.66999225  0.23145476  1  0  0.08672  0  0.934385  0  0  0.092235  0  1.002502  0  0  0.095891  0  0.999081  0  0  0.111021  0.089525  0  1.005044  0
H  H17  1  0.40565367  0.83001272  0.76853913  1  0  0.086729  0  0.93437  0  0  0.09229  0  1.002434  0  0  0.095927  0  0.999035  0  0  0.111019  0.089582  0  1.004983  0
H  H18  1  0.09434592  0.33000723  0.76854847  1  0  0.086751  0  0.934414  0  0  0.092262  0  1.002525  0  0  0.095931  0  0.999091  0  0  0.111077  0.089559  0  1.005068  0
H  H19  1  0.59434367  0.16999054  0.23145130  1  0  0.086802  0  0.934431  0  0  0.092355  0  1.002498  0  0  0.096005  0  0.999085  0  0  0.11112  0.089649  0  1.005039  0
H  H20  1  0.87202055  0.92423718  0.96766865  1  0  0.396831  0  0.89772  0  0  0.365841  0  0.974963  0  0  0.379003  0  0.960563  0  0  0.303592  0.356676  0  0.984458  0
H  H21  1  0.37201105  0.57577309  0.03232719  1  0  0.396611  0  0.898033  0  0  0.365775  0  0.975017  0  0  0.37894  0  0.960628  0  0  0.303597  0.356606  0  0.984513  0
H  H22  1  0.12795284  0.07574373  0.03232952  1  0  0.396917  0  0.897482  0  0  0.365939  0  0.974671  0  0  0.3791  0  0.96037  0  0  0.303655  0.356773  0  0.984184  0
H  H23  1  0.62800227  0.42425090  0.96768203  1  0  0.396933  0  0.897545  0  0  0.366024  0  0.974627  0  0  0.379182  0  0.960268  0  0  0.303624  0.356849  0  0.984161  0
C  C24  1  0.29089705  0.88475144  0.33038032  1  0  0.126663  0  3.65378  0  0  0.097817  0  3.904545  0  0  0.104208  0  3.9174  0  0  0.037472  0.093219  0  3.897193  0
C  C25  1  0.79088605  0.61524201  0.66961603  1  0  0.126676  0  3.653838  0  0  0.097759  0  3.904664  0  0  0.104146  0  3.917519  0  0  0.037547  0.093164  0  3.897315  0
C  C26  1  0.70912425  0.11523617  0.66961760  1  0  0.126828  0  3.653793  0  0  0.097992  0  3.904489  0  0  0.104381  0  3.917341  0  0  0.037604  0.093399  0  3.897148  0
C  C27  1  0.20911396  0.38476420  0.33038143  1  0  0.126744  0  3.653859  0  0  0.097856  0  3.904681  0  0  0.104241  0  3.917531  0  0  0.037569  0.093259  0  3.897352  0
C  C28  1  0.26639598  0.93167924  0.25781156  1  0  -0.101225  0  3.711431  0  0  -0.12532  0  3.959923  0  0  -0.127818  0  3.978857  0  0  -0.080143  -0.124234  0  3.948001  0
C  C29  1  0.76636657  0.56831281  0.74218288  1  0  -0.10108  0  3.711438  0  0  -0.125084  0  3.959905  0  0  -0.127578  0  3.978841  0  0  -0.080121  -0.124004  0  3.948006  0
C  C30  1  0.73361468  0.06831209  0.74218599  1  0  -0.101348  0  3.711741  0  0  -0.125327  0  3.960219  0  0  -0.127821  0  3.979157  0  0  -0.080186  -0.124247  0  3.948329  0
C  C31  1  0.23363876  0.43169041  0.25781653  1  0  -0.101079  0  3.711893  0  0  -0.125085  0  3.960392  0  0  -0.127575  0  3.979326  0  0  -0.080119  -0.124005  0  3.948501  0
C  C32  1  0.10362189  0.88196087  0.17094229  1  0  -0.051143  0  3.767786  0  0  -0.032506  0  4.003947  0  0  -0.037706  0  4.025353  0  0  -0.009968  -0.028747  0  3.989394  0
C  C33  1  0.60357905  0.61803322  0.82905182  1  0  -0.05153  0  3.768054  0  0  -0.032895  0  4.004232  0  0  -0.038113  0  4.025661  0  0  -0.010039  -0.029137  0  3.989687  0
C  C34  1  0.89640208  0.11802600  0.82905474  1  0  -0.051238  0  3.76789  0  0  -0.032633  0  4.00402  0  0  -0.037853  0  4.025452  0  0  -0.010018  -0.028871  0  3.989498  0
C  C35  1  0.39642362  0.38197667  0.17095009  1  0  -0.05151  0  3.768307  0  0  -0.032873  0  4.004441  0  0  -0.038099  0  4.025885  0  0  -0.010079  -0.02911  0  3.989918  0
C  C36  1  0.97342154  0.78569928  0.16010475  1  0  -0.102379  0  3.696199  0  0  -0.127423  0  3.947691  0  0  -0.131708  0  3.969858  0  0  -0.077183  -0.124651  0  3.93265  0
C  C37  1  0.47339938  0.71430174  0.83988912  1  0  -0.102261  0  3.695883  0  0  -0.127316  0  3.94739  0  0  -0.131583  0  3.969556  0  0  -0.077221  -0.124531  0  3.93234  0
C  C38  1  0.02659177  0.21429575  0.83989588  1  0  -0.102396  0  3.695854  0  0  -0.127456  0  3.947395  0  0  -0.131713  0  3.96955  0  0  -0.07725  -0.124686  0  3.932379  0
C  C39  1  0.52660861  0.28570596  0.16010667  1  0  -0.102288  0  3.69573  0  0  -0.127332  0  3.947288  0  0  -0.131588  0  3.969448  0  0  -0.077203  -0.124587  0  3.932251  0
C  C40  1  0.00764249  0.74403885  0.23623626  1  0  0.116187  0  3.661008  0  0  0.086231  0  3.917362  0  0  0.091075  0  3.933564  0  0  0.037574  0.083034  0  3.906724  0
C  C41  1  0.50765755  0.75596375  0.76375827  1  0  0.116115  0  3.660992  0  0  0.086072  0  3.917403  0  0  0.090934  0  3.933589  0  0  0.037601  0.082872  0  3.906777  0
C  C42  1  0.99234687  0.25595323  0.76375943  1  0  0.116251  0  3.66107  0  0  0.086282  0  3.917448  0  0  0.091116  0  3.933635  0  0  0.037601  0.083081  0  3.906834  0
C  C43  1  0.49233713  0.24404095  0.23624154  1  0  0.116044  0  3.660923  0  0  0.086008  0  3.917343  0  0  0.090864  0  3.93351  0  0  0.037507  0.082814  0  3.906731  0
C  C44  1  0.06539756  0.93330100  0.09481468  1  0  0.66646  0  3.784695  0  0  0.611282  0  4.088099  0  0  0.647773  0  4.074198  0  0  0.240212  0.586067  0  4.097547  0
C  C45  1  0.56534751  0.56670068  0.90517715  1  0  0.666427  0  3.784511  0  0  0.611195  0  4.088018  0  0  0.647686  0  4.074129  0  0  0.2401  0.585976  0  4.097469  0
C  C46  1  0.93460511  0.06669331  0.90518161  1  0  0.666511  0  3.784721  0  0  0.611378  0  4.088067  0  0  0.647875  0  4.074156  0  0  0.240306  0.586146  0  4.097541  0
C  C47  1  0.43466581  0.43330846  0.09482871  1  0  0.666549  0  3.78437  0  0  0.611386  0  4.087786  0  0  0.647878  0  4.073883  0  0  0.240249  0.586166  0  4.097231  0
Br  Br48  1  0.18474932  0.88333230  0.57555054  1  0  -0.41265  0  1.573299  0  0  -0.339995  0  1.997604  0  0  -0.361765  0  1.959202  0  0  -0.214081  -0.323991  0  2.023886  0
Br  Br49  1  0.68473471  0.61667262  0.42445457  1  0  -0.412674  0  1.573413  0  0  -0.33999  0  1.997667  0  0  -0.361765  0  1.959269  0  0  -0.214085  -0.323985  0  2.023966  0
Br  Br50  1  0.81527464  0.11667243  0.42444513  1  0  -0.412638  0  1.573307  0  0  -0.340004  0  1.997676  0  0  -0.361766  0  1.959267  0  0  -0.214075  -0.323982  0  2.02399  0
Br  Br51  1  0.31525997  0.38332309  0.57555731  1  0  -0.412634  0  1.573308  0  0  -0.339995  0  1.997661  0  0  -0.361772  0  1.959265  0  0  -0.214067  -0.323977  0  2.023983  0
N  N52  1  0.16251172  0.79245239  0.32076401  1  0  -0.254733  0  3.355947  0  0  -0.182517  0  3.648429  0  0  -0.190131  0  3.653269  0  0  -0.357559  -0.17857  0  3.645516  0
N  N53  1  0.66252964  0.70754522  0.67923070  1  0  -0.254762  0  3.355979  0  0  -0.182458  0  3.64846  0  0  -0.190056  0  3.65328  0  0  -0.357649  -0.178516  0  3.64555  0
N  N54  1  0.83747232  0.20753820  0.67923265  1  0  -0.254916  0  3.356245  0  0  -0.182675  0  3.648729  0  0  -0.190281  0  3.653565  0  0  -0.357679  -0.178722  0  3.645826  0
N  N55  1  0.33746238  0.29246022  0.32076932  1  0  -0.254753  0  3.356027  0  0  -0.182442  0  3.648508  0  0  -0.190026  0  3.65331  0  0  -0.357628  -0.17849  0  3.645607  0
O  O56  1  0.89928362  0.88201128  0.01629721  1  0  -0.539531  0  2.102953  0  0  -0.487007  0  2.323698  0  0  -0.509376  0  2.308417  0  0  -0.317954  -0.47169  0  2.333521  0
O  O57  1  0.39923536  0.61799447  0.98369409  1  0  -0.539248  0  2.102961  0  0  -0.486806  0  2.323637  0  0  -0.509159  0  2.308328  0  0  -0.317912  -0.471488  0  2.333458  0
O  O58  1  0.10070574  0.11797114  0.98369722  1  0  -0.539606  0  2.103215  0  0  -0.487061  0  2.323859  0  0  -0.509453  0  2.308705  0  0  -0.317969  -0.471741  0  2.333703  0
O  O59  1  0.60079126  0.38202950  0.01631858  1  0  -0.539528  0  2.10313  0  0  -0.487021  0  2.323735  0  0  -0.509414  0  2.308548  0  0  -0.317859  -0.471705  0  2.33358  0
O  O60  1  0.18212000  0.01946959  0.10644597  1  0  -0.560931  0  1.981816  0  0  -0.510056  0  2.197695  0  0  -0.531166  0  2.186425  0  0  -0.283681  -0.496032  0  2.20541  0
O  O61  1  0.68207264  0.48053159  0.89355660  1  0  -0.560906  0  1.981715  0  0  -0.510018  0  2.197548  0  0  -0.531122  0  2.186267  0  0  -0.283598  -0.495989  0  2.20527  0
O  O62  1  0.81782678  0.98051802  0.89355195  1  0  -0.560995  0  1.981409  0  0  -0.510141  0  2.197274  0  0  -0.53125  0  2.185975  0  0  -0.28382  -0.496102  0  2.204984  0
O  O63  1  0.31790342  0.51948646  0.10645100  1  0  -0.56104  0  1.98112  0  0  -0.510248  0  2.196964  0  0  -0.531353  0  2.185672  0  0  -0.283887  -0.496213  0  2.204663  0
