# generated using pymatgen
data_ZnH14C13S(NO2)2
_symmetry_space_group_name_H-M   'P 1'
_cell_length_a   9.44288438
_cell_length_b   15.51782810
_cell_length_c   22.14722257
_cell_angle_alpha   90.00110292
_cell_angle_beta   90.00027687
_cell_angle_gamma   90.00018181
_symmetry_Int_Tables_number   1
_chemical_formula_structural   ZnH14C13S(NO2)2
_chemical_formula_sum   'Zn8 H112 C104 S8 N16 O32'
_cell_volume   3245.30021753
_cell_formula_units_Z   8
loop_
 _symmetry_equiv_pos_site_id
 _symmetry_equiv_pos_as_xyz
  1  'x, y, z'
loop_
 _atom_site_type_symbol
 _atom_site_label
 _atom_site_symmetry_multiplicity
 _atom_site_fract_x
 _atom_site_fract_y
 _atom_site_fract_z
 _atom_site_occupancy
 _atom_site_pbe_bader_charge
 _atom_site_pbe_bader_spin_density
 _atom_site_pbe_cm5_charge
 _atom_site_pbe_ddec_charge
 _atom_site_pbe_ddec_spin_density
 _atom_site_pbe_ddec_sum_bond_order
 _atom_site_pbe_magmom
Zn  Zn0  1  0.18678330  0.69207149  0.48698737  1  1.266621  0  0.717685  0.803689  0  2.366681  0
Zn  Zn1  1  0.31320520  0.30793129  0.98698305  1  1.266683  0  0.717683  0.803592  0  2.366572  0
Zn  Zn2  1  0.81320761  0.19206908  0.01301731  1  1.26665  0  0.717687  0.803664  0  2.36648  0
Zn  Zn3  1  0.68678670  0.80792682  0.51301722  1  1.266618  0  0.717681  0.803651  0  2.366671  0
Zn  Zn4  1  0.81322134  0.30792462  0.51301081  1  1.266519  0  0.717722  0.80373  0  2.366587  0
Zn  Zn5  1  0.68679415  0.69207514  0.01301830  1  1.266511  0  0.71769  0.80361  0  2.366695  0
Zn  Zn6  1  0.18679385  0.80792768  0.98698494  1  1.266605  0  0.717689  0.803661  0  2.366507  0
Zn  Zn7  1  0.31320947  0.19207445  0.48698097  1  1.266624  0  0.717691  0.803628  0  2.366682  0
H  H8  1  0.18369590  0.49765530  0.50114810  1  0.145125  0  0.11925  0.103465  0  1.03628  0
H  H9  1  0.31630509  0.50234962  0.00114878  1  0.145108  0  0.119271  0.103585  0  1.036235  0
H  H10  1  0.81630440  0.99764959  0.99885337  1  0.146173  0  0.119254  0.103546  0  1.036259  0
H  H11  1  0.68369965  0.00234095  0.49885198  1  0.145215  0  0.11923  0.103462  0  1.036327  0
H  H12  1  0.81630027  0.50234146  0.49885324  1  0.145185  0  0.119226  0.103505  0  1.036261  0
H  H13  1  0.68369955  0.49765617  0.99885482  1  0.145157  0  0.11921  0.10349  0  1.036192  0
H  H14  1  0.18369389  0.00234653  0.00114708  1  0.145056  0  0.119264  0.103557  0  1.036189  0
H  H15  1  0.31630075  0.99766226  0.50114710  1  0.145215  0  0.119186  0.103471  0  1.03629  0
H  H16  1  0.32992984  0.38999098  0.55464047  1  0.159169  0  0.111852  0.141461  0  1.002015  0
H  H17  1  0.17006858  0.61001798  0.05464185  1  0.159225  0  0.111836  0.141416  0  1.002182  0
H  H18  1  0.67006672  0.88997901  0.94536226  1  0.159121  0  0.11183  0.141383  0  1.002229  0
H  H19  1  0.82993461  0.11000555  0.44535947  1  0.159285  0  0.111807  0.141409  0  1.002029  0
H  H20  1  0.67006739  0.61000707  0.44536178  1  0.159219  0  0.11184  0.141414  0  1.001978  0
H  H21  1  0.82992335  0.38999038  0.94535589  1  0.159152  0  0.111873  0.141451  0  1.001986  0
H  H22  1  0.32992839  0.11001775  0.05463728  1  0.159162  0  0.111861  0.141418  0  1.002239  0
H  H23  1  0.17007532  0.88999701  0.55463961  1  0.158721  0  0.111811  0.141391  0  1.002071  0
H  H24  1  0.60716378  0.59697200  0.60972355  1  0.092653  0  0.109029  0.120117  0  1.013791  0
H  H25  1  0.89283268  0.40303622  0.10972169  1  0.092405  0  0.108994  0.12012  0  1.013761  0
H  H26  1  0.39283655  0.09696044  0.89027657  1  0.092457  0  0.109002  0.120132  0  1.013785  0
H  H27  1  0.10716568  0.90302487  0.39027546  1  0.0926  0  0.109028  0.120071  0  1.01374  0
H  H28  1  0.39283768  0.40302605  0.39027554  1  0.092612  0  0.109015  0.120089  0  1.01384  0
H  H29  1  0.10715819  0.59696957  0.89027559  1  0.09256  0  0.109015  0.12011  0  1.013746  0
H  H30  1  0.60716809  0.90304019  0.10972206  1  0.092434  0  0.109002  0.120143  0  1.013776  0
H  H31  1  0.89283684  0.09697383  0.60972543  1  0.092593  0  0.109025  0.120056  0  1.013824  0
H  H32  1  0.44873543  0.69815276  0.55310117  1  0.083773  0  0.113327  0.078171  0  1.04884  0
H  H33  1  0.05125979  0.30185359  0.05309453  1  0.083944  0  0.113304  0.078164  0  1.048757  0
H  H34  1  0.55126118  0.19814370  0.94690393  1  0.084022  0  0.113348  0.078212  0  1.048686  0
H  H35  1  0.94873699  0.80184348  0.44690125  1  0.083683  0  0.113349  0.07823  0  1.04874  0
H  H36  1  0.55126285  0.30184658  0.44690018  1  0.083711  0  0.113314  0.078186  0  1.048837  0
H  H37  1  0.94873532  0.69815284  0.94690366  1  0.083769  0  0.113335  0.078205  0  1.048787  0
H  H38  1  0.44873816  0.80185564  0.05309741  1  0.084  0  0.11334  0.078212  0  1.048673  0
H  H39  1  0.05126342  0.19815779  0.55309919  1  0.083644  0  0.11333  0.078194  0  1.04874  0
H  H40  1  0.56505101  0.35976539  0.60622124  1  0.097993  0  0.098404  0.111788  0  1.009548  0
H  H41  1  0.93494753  0.64024209  0.10622402  1  0.098519  0  0.098418  0.111812  0  1.009514  0
H  H42  1  0.43493798  0.85975348  0.89377882  1  0.098399  0  0.09844  0.111856  0  1.009425  0
H  H43  1  0.06505793  0.14022934  0.39377951  1  0.098119  0  0.098361  0.11172  0  1.009591  0
H  H44  1  0.43494940  0.64023073  0.39377830  1  0.098008  0  0.098383  0.111727  0  1.00956  0
H  H45  1  0.06504016  0.35976241  0.89377326  1  0.098471  0  0.098399  0.111822  0  1.009526  0
H  H46  1  0.56505819  0.14024586  0.10622027  1  0.098359  0  0.09841  0.111766  0  1.009548  0
H  H47  1  0.93495094  0.85977129  0.60621867  1  0.097919  0  0.09839  0.111757  0  1.009504  0
H  H48  1  0.67546042  0.44770015  0.62841886  1  0.030051  0  0.094637  0.099011  0  0.986829  0
H  H49  1  0.82454155  0.55230601  0.12841571  1  0.030138  0  0.094638  0.098966  0  0.986905  0
H  H50  1  0.32453749  0.94769193  0.87158419  1  0.030125  0  0.094622  0.098919  0  0.986862  0
H  H51  1  0.17546029  0.05229222  0.37158031  1  0.029957  0  0.094601  0.09897  0  0.986844  0
H  H52  1  0.32454633  0.55229468  0.37157842  1  0.030059  0  0.094603  0.098951  0  0.9869  0
H  H53  1  0.17544827  0.44769655  0.87157886  1  0.030215  0  0.094588  0.098878  0  0.986823  0
H  H54  1  0.67545867  0.05230741  0.12841489  1  0.030169  0  0.094636  0.098937  0  0.986878  0
H  H55  1  0.82454753  0.94770712  0.62841968  1  0.030085  0  0.094641  0.099039  0  0.986837  0
H  H56  1  0.39927487  0.38845530  0.68830424  1  0.059676  0  0.092303  0.086385  0  0.984315  0
H  H57  1  0.10071871  0.61154638  0.18830775  1  0.059734  0  0.092332  0.086424  0  0.984254  0
H  H58  1  0.60071321  0.88843888  0.81169666  1  0.05973  0  0.092339  0.086481  0  0.98425  0
H  H59  1  0.89927496  0.11154266  0.31169810  1  0.059718  0  0.092306  0.08638  0  0.984323  0
H  H60  1  0.60073295  0.61154147  0.31169665  1  0.059861  0  0.092299  0.086322  0  0.984351  0
H  H61  1  0.89926687  0.38845489  0.81169043  1  0.059631  0  0.092303  0.086366  0  0.984263  0
H  H62  1  0.39928508  0.11156175  0.18830288  1  0.059756  0  0.092316  0.08644  0  0.984248  0
H  H63  1  0.10073392  0.88845668  0.68830189  1  0.059818  0  0.092283  0.086344  0  0.984284  0
H  H64  1  0.48712975  0.48486219  0.70845785  1  0.018133  0  0.089195  0.079595  0  0.981831  0
H  H65  1  0.01286406  0.51513746  0.20845356  1  0.01814  0  0.089228  0.079597  0  0.981841  0
H  H66  1  0.51286942  0.98484892  0.79154751  1  0.018413  0  0.089263  0.079747  0  0.981808  0
H  H67  1  0.98712910  0.01513594  0.29154061  1  0.018097  0  0.089181  0.079579  0  0.981921  0
H  H68  1  0.51287807  0.51513457  0.29154079  1  0.018089  0  0.089168  0.079519  0  0.981948  0
H  H69  1  0.98712257  0.48486317  0.79154192  1  0.018124  0  0.089188  0.079539  0  0.981895  0
H  H70  1  0.48712780  0.01515171  0.20845248  1  0.018392  0  0.089267  0.07973  0  0.981852  0
H  H71  1  0.01288083  0.98486340  0.70845893  1  0.018108  0  0.089192  0.079571  0  0.981882  0
H  H72  1  0.62331121  0.30537398  0.71244509  1  0.082485  0  0.101246  0.115239  0  0.983145  0
H  H73  1  0.87668430  0.69462674  0.21245074  1  0.082553  0  0.101216  0.115252  0  0.983192  0
H  H74  1  0.37667220  0.80536678  0.78755243  1  0.082245  0  0.101199  0.115239  0  0.983099  0
H  H75  1  0.12330451  0.19462666  0.28755849  1  0.082439  0  0.101195  0.115189  0  0.983143  0
H  H76  1  0.37669978  0.69462471  0.28755761  1  0.08252  0  0.101231  0.115231  0  0.983096  0
H  H77  1  0.12330128  0.30537389  0.78755105  1  0.082569  0  0.101215  0.115209  0  0.983186  0
H  H78  1  0.62332609  0.19463320  0.21244710  1  0.08226  0  0.101213  0.11527  0  0.983105  0
H  H79  1  0.87670543  0.80537203  0.71244285  1  0.082457  0  0.101191  0.115181  0  0.983175  0
H  H80  1  0.70310502  0.40316063  0.73699789  1  0.005789  0  0.094185  0.093316  0  0.995643  0
H  H81  1  0.79688336  0.59684076  0.23699439  1  0.005692  0  0.094154  0.093316  0  0.995662  0
H  H82  1  0.29688208  0.90315261  0.76300682  1  0.005783  0  0.094141  0.093265  0  0.995671  0
H  H83  1  0.20310812  0.09684532  0.26300675  1  0.005913  0  0.094116  0.093245  0  0.995642  0
H  H84  1  0.29690280  0.59683999  0.26300300  1  0.005897  0  0.094144  0.093229  0  0.995753  0
H  H85  1  0.20310540  0.40315793  0.76300560  1  0.00581  0  0.094164  0.093349  0  0.995664  0
H  H86  1  0.70311727  0.09684673  0.23699272  1  0.005794  0  0.09414  0.093275  0  0.995672  0
H  H87  1  0.79690288  0.90315531  0.73699459  1  0.005962  0  0.094111  0.093257  0  0.995746  0
H  H88  1  0.60707154  0.47801125  0.83298686  1  0.123493  0  0.114644  0.128488  0  0.978997  0
H  H89  1  0.89288933  0.52199665  0.33298886  1  0.123245  0  0.114562  0.128382  0  0.979141  0
H  H90  1  0.39288523  0.97799948  0.66701615  1  0.123282  0  0.11458  0.128471  0  0.979038  0
H  H91  1  0.10707846  0.02199259  0.16701443  1  0.123536  0  0.114647  0.128492  0  0.979054  0
H  H92  1  0.39293521  0.52199196  0.16701178  1  0.123357  0  0.114675  0.128565  0  0.978923  0
H  H93  1  0.10709837  0.47800398  0.66701384  1  0.123473  0  0.11459  0.12843  0  0.979118  0
H  H94  1  0.60710458  0.02199921  0.33298248  1  0.123866  0  0.114655  0.128527  0  0.979067  0
H  H95  1  0.89292830  0.97800740  0.83298692  1  0.123597  0  0.114652  0.128524  0  0.978965  0
H  H96  1  0.48818251  0.45276668  0.93091984  1  0.157793  0  0.121583  0.108839  0  1.039514  0
H  H97  1  0.01178523  0.54723843  0.43092366  1  0.157725  0  0.121608  0.108857  0  1.039493  0
H  H98  1  0.51178896  0.95276341  0.56908193  1  0.157835  0  0.121605  0.108916  0  1.039449  0
H  H99  1  0.98819328  0.04723403  0.06908043  1  0.157804  0  0.121576  0.108859  0  1.039431  0
H  H100  1  0.51182213  0.54723846  0.06907835  1  0.157876  0  0.121571  0.108874  0  1.039446  0
H  H101  1  0.98820882  0.45276284  0.56907633  1  0.157684  0  0.121596  0.10879  0  1.039614  0
H  H102  1  0.48820192  0.04723657  0.43091716  1  0.157841  0  0.121602  0.108935  0  1.039438  0
H  H103  1  0.01180819  0.95275887  0.93092227  1  0.157847  0  0.121586  0.108839  0  1.039528  0
H  H104  1  0.31247360  0.22281082  0.87024729  1  0.172608  0  0.11644  0.093354  0  1.065877  0
H  H105  1  0.18753793  0.77717845  0.37025096  1  0.172172  0  0.116458  0.093318  0  1.065991  0
H  H106  1  0.68754009  0.72282051  0.62975092  1  0.172492  0  0.116442  0.093315  0  1.065985  0
H  H107  1  0.81247143  0.27718697  0.12975351  1  0.172392  0  0.116439  0.093347  0  1.065921  0
H  H108  1  0.68752680  0.77719239  0.12975451  1  0.171885  0  0.116443  0.093348  0  1.065894  0
H  H109  1  0.81246142  0.22281895  0.62974677  1  0.172279  0  0.116468  0.093328  0  1.065932  0
H  H110  1  0.31246561  0.27718399  0.37024862  1  0.172387  0  0.116455  0.0934  0  1.065864  0
H  H111  1  0.18753215  0.72281237  0.87024783  1  0.172369  0  0.116454  0.09339  0  1.06587  0
H  H112  1  0.43695940  0.23491565  0.77110956  1  0.094749  0  0.11709  0.132316  0  0.968467  0
H  H113  1  0.06304889  0.76507476  0.27111146  1  0.094967  0  0.117077  0.132226  0  0.968509  0
H  H114  1  0.56304906  0.73491880  0.72888881  1  0.094851  0  0.117108  0.132339  0  0.9685  0
H  H115  1  0.93695935  0.26508431  0.22889376  1  0.094694  0  0.117086  0.13233  0  0.968435  0
H  H116  1  0.56304312  0.76508627  0.22889223  1  0.09469  0  0.117082  0.132324  0  0.968395  0
H  H117  1  0.93694304  0.23492522  0.72888898  1  0.09493  0  0.117072  0.132254  0  0.968482  0
H  H118  1  0.43696088  0.26508505  0.27111073  1  0.094755  0  0.117115  0.132365  0  0.968433  0
H  H119  1  0.06305059  0.73491503  0.77110939  1  0.094852  0  0.117105  0.13236  0  0.968401  0
C  C120  1  0.27747252  0.51791630  0.52606523  1  0.41836  0  0.048962  0.104311  0  3.91145  0
C  C121  1  0.22252557  0.48209188  0.02606499  1  0.418356  0  0.048842  0.103995  0  3.911389  0
C  C122  1  0.72252633  0.01790574  0.97393653  1  0.417356  0  0.048859  0.103987  0  3.911474  0
C  C123  1  0.77747744  0.98208090  0.47393503  1  0.418709  0  0.048967  0.104248  0  3.911387  0
C  C124  1  0.72252576  0.48208175  0.47393476  1  0.41835  0  0.048998  0.10428  0  3.911513  0
C  C125  1  0.77747589  0.51791648  0.97393590  1  0.41853  0  0.049036  0.104334  0  3.911436  0
C  C126  1  0.27747407  0.98209103  0.02606391  1  0.418314  0  0.048863  0.104053  0  3.911553  0
C  C127  1  0.22252932  0.01792231  0.52606631  1  0.418356  0  0.048998  0.10422  0  3.911414  0
C  C128  1  0.35924734  0.45784719  0.55682091  1  -0.02432  0  -0.081628  -0.180706  0  3.9002  0
C  C129  1  0.14075428  0.54215990  0.05682131  1  -0.024526  0  -0.081588  -0.180637  0  3.900469  0
C  C130  1  0.64075275  0.95783574  0.94318183  1  -0.024537  0  -0.08151  -0.180485  0  3.900372  0
C  C131  1  0.85925068  0.04214876  0.44318089  1  -0.024606  0  -0.081597  -0.180597  0  3.90012  0
C  C132  1  0.64075306  0.54215087  0.44317998  1  -0.024326  0  -0.081643  -0.180644  0  3.900189  0
C  C133  1  0.85923871  0.45784781  0.94317777  1  -0.024381  0  -0.08169  -0.180788  0  3.900358  0
C  C134  1  0.35924342  0.04216102  0.05681816  1  -0.024503  0  -0.081574  -0.180614  0  3.900505  0
C  C135  1  0.14075714  0.95785251  0.55682135  1  -0.0237  0  -0.081578  -0.180513  0  3.900258  0
C  C136  1  0.47900549  0.48522464  0.58871822  1  -0.028583  0  0.017545  0.175873  0  3.950555  0
C  C137  1  0.02099437  0.51478397  0.08871756  1  -0.02847  0  0.017575  0.176002  0  3.950542  0
C  C138  1  0.52099262  0.98521209  0.91128398  1  -0.02808  0  0.017499  0.175865  0  3.950572  0
C  C139  1  0.97900938  0.01477090  0.41128202  1  -0.028597  0  0.017516  0.175696  0  3.950507  0
C  C140  1  0.52099597  0.51477470  0.41128177  1  -0.028533  0  0.01751  0.175761  0  3.950574  0
C  C141  1  0.97899756  0.48522374  0.91127927  1  -0.028737  0  0.017505  0.175772  0  3.950685  0
C  C142  1  0.47900461  0.01478790  0.08871601  1  -0.028103  0  0.017532  0.175965  0  3.950352  0
C  C143  1  0.02099844  0.98522844  0.58871842  1  -0.028621  0  0.017462  0.175631  0  3.950553  0
C  C144  1  0.51224873  0.57312741  0.58726810  1  -0.044809  0  -0.086724  -0.192405  0  3.95317  0
C  C145  1  0.98775277  0.42687825  0.08726405  1  -0.044391  0  -0.086753  -0.192594  0  3.953369  0
C  C146  1  0.48775464  0.07311794  0.91273486  1  -0.044699  0  -0.086689  -0.192539  0  3.95327  0
C  C147  1  0.01225102  0.92686927  0.41273387  1  -0.044764  0  -0.086725  -0.192285  0  3.953207  0
C  C148  1  0.48774849  0.42687128  0.41273189  1  -0.044756  0  -0.08667  -0.192331  0  3.953064  0
C  C149  1  0.01224446  0.57312495  0.91273233  1  -0.044551  0  -0.086694  -0.19235  0  3.953192  0
C  C150  1  0.51224788  0.92688205  0.08726423  1  -0.044677  0  -0.086731  -0.192636  0  3.953263  0
C  C151  1  0.98774833  0.07313071  0.58726793  1  -0.044724  0  -0.086654  -0.192212  0  3.953026  0
C  C152  1  0.42594668  0.62959292  0.55589516  1  0.535276  0  0.042943  0.099332  0  3.955237  0
C  C153  1  0.07404857  0.37041608  0.05589311  1  0.534761  0  0.043013  0.099537  0  3.955267  0
C  C154  1  0.57405275  0.12958125  0.94410630  1  0.534876  0  0.042978  0.099495  0  3.955232  0
C  C155  1  0.92595280  0.87040392  0.44410541  1  0.535201  0  0.042967  0.099314  0  3.95505  0
C  C156  1  0.57405054  0.37040384  0.44410438  1  0.53522  0  0.042975  0.099379  0  3.955137  0
C  C157  1  0.92594971  0.62959228  0.94410733  1  0.534982  0  0.042914  0.099291  0  3.955134  0
C  C158  1  0.42594871  0.87041873  0.05589414  1  0.534874  0  0.043001  0.099508  0  3.95526  0
C  C159  1  0.07404866  0.12959800  0.55589458  1  0.535209  0  0.042947  0.099345  0  3.955053  0
C  C160  1  0.56539864  0.42459046  0.62615284  1  -0.041761  0  -0.161156  -0.213357  0  3.934028  0
C  C161  1  0.93460224  0.57541692  0.12615430  1  -0.042513  0  -0.161227  -0.213399  0  3.934407  0
C  C162  1  0.43459704  0.92457865  0.87384764  1  -0.042517  0  -0.161163  -0.213218  0  3.934268  0
C  C163  1  0.06539971  0.07540427  0.37384655  1  -0.041807  0  -0.161041  -0.213149  0  3.933887  0
C  C164  1  0.43460600  0.57540501  0.37384579  1  -0.041692  0  -0.16107  -0.213155  0  3.933911  0
C  C165  1  0.06538757  0.42458693  0.87384298  1  -0.042458  0  -0.161033  -0.213168  0  3.933912  0
C  C166  1  0.56540019  0.07542134  0.12615190  1  -0.042467  0  -0.161193  -0.213226  0  3.934155  0
C  C167  1  0.93460917  0.92459571  0.62615299  1  -0.041595  0  -0.161107  -0.213292  0  3.933896  0
C  C168  1  0.50407345  0.41952227  0.69031835  1  -0.0286  0  -0.152769  -0.113267  0  3.908712  0
C  C169  1  0.99591969  0.58047978  0.19031910  1  -0.028559  0  -0.152817  -0.113289  0  3.908926  0
C  C170  1  0.49591797  0.91951140  0.80968432  1  -0.02846  0  -0.152916  -0.113722  0  3.909144  0
C  C171  1  0.00407487  0.08047492  0.30968227  1  -0.02841  0  -0.152783  -0.113331  0  3.908822  0
C  C172  1  0.49593331  0.58047449  0.30968118  1  -0.028371  0  -0.152706  -0.113122  0  3.908666  0
C  C173  1  0.00406589  0.41952149  0.80967773  1  -0.028615  0  -0.152786  -0.113135  0  3.908748  0
C  C174  1  0.50408032  0.08048923  0.19031612  1  -0.02848  0  -0.152873  -0.113594  0  3.909028  0
C  C175  1  0.99593506  0.91952377  0.69031727  1  -0.028316  0  -0.152697  -0.113153  0  3.908565  0
C  C176  1  0.60172698  0.36867498  0.73280696  1  -0.017478  0  -0.158163  -0.214008  0  3.953212  0
C  C177  1  0.89826240  0.63132437  0.23280819  1  -0.017502  0  -0.158081  -0.214033  0  3.953366  0
C  C178  1  0.39825570  0.86866662  0.76719412  1  -0.017707  0  -0.158033  -0.213839  0  3.953082  0
C  C179  1  0.10172501  0.13132626  0.26719612  1  -0.017698  0  -0.158001  -0.213777  0  3.95303  0
C  C180  1  0.39828189  0.63132371  0.26719393  1  -0.017987  0  -0.158115  -0.2139  0  3.953179  0
C  C181  1  0.10172635  0.36867562  0.76719180  1  -0.017396  0  -0.158061  -0.214007  0  3.953366  0
C  C182  1  0.60174365  0.13133272  0.23280632  1  -0.017704  0  -0.158033  -0.213898  0  3.953119  0
C  C183  1  0.89828174  0.86867372  0.73280522  1  -0.017985  0  -0.158041  -0.21385  0  3.953195  0
C  C184  1  0.53498816  0.35710583  0.79358960  1  -0.026417  0  0.018744  0.17269  0  3.960634  0
C  C185  1  0.96499874  0.64289518  0.29359158  1  -0.026714  0  0.018745  0.172722  0  3.960785  0
C  C186  1  0.46499552  0.85710044  0.70640906  1  -0.026551  0  0.018683  0.172651  0  3.96083  0
C  C187  1  0.03498979  0.14289464  0.20641198  1  -0.026616  0  0.018644  0.172604  0  3.960684  0
C  C188  1  0.46501648  0.64289608  0.20641219  1  -0.02648  0  0.018765  0.172753  0  3.960574  0
C  C189  1  0.03499107  0.35710287  0.70640660  1  -0.026733  0  0.018714  0.172633  0  3.960893  0
C  C190  1  0.53500488  0.14290019  0.29359093  1  -0.026541  0  0.018677  0.172623  0  3.960842  0
C  C191  1  0.96501485  0.85710341  0.79358846  1  -0.026462  0  0.018746  0.172704  0  3.960539  0
C  C192  1  0.54624785  0.41899980  0.83945854  1  -0.097931  0  -0.080817  -0.184022  0  3.924508  0
C  C193  1  0.95372580  0.58100312  0.33946101  1  -0.097298  0  -0.080736  -0.183886  0  3.924441  0
C  C194  1  0.45372450  0.91899120  0.66054413  1  -0.097377  0  -0.080798  -0.184095  0  3.924691  0
C  C195  1  0.04625288  0.08100263  0.16054307  1  -0.098014  0  -0.080828  -0.184038  0  3.924593  0
C  C196  1  0.45375785  0.58100276  0.16054055  1  -0.097659  0  -0.080837  -0.184125  0  3.924522  0
C  C197  1  0.04626295  0.41899815  0.66053988  1  -0.097541  0  -0.080779  -0.183966  0  3.924399  0
C  C198  1  0.54627061  0.08100943  0.33945632  1  -0.097888  0  -0.080853  -0.184123  0  3.924872  0
C  C199  1  0.95375388  0.91899736  0.83945827  1  -0.097981  0  -0.080816  -0.184084  0  3.924509  0
C  C200  1  0.47931731  0.40581115  0.89458990  1  0.492404  0  0.051433  0.101036  0  3.915361  0
C  C201  1  0.02066379  0.59419426  0.39459166  1  0.49211  0  0.051505  0.101115  0  3.915384  0
C  C202  1  0.52065815  0.90580696  0.60541169  1  0.492152  0  0.051601  0.101176  0  3.915297  0
C  C203  1  0.97932449  0.09419147  0.10541260  1  0.492582  0  0.051504  0.101074  0  3.915253  0
C  C204  1  0.52068521  0.59419399  0.10541009  1  0.4925  0  0.051479  0.101089  0  3.915529  0
C  C205  1  0.97933026  0.40580831  0.60540607  1  0.492297  0  0.051526  0.101177  0  3.915351  0
C  C206  1  0.47933484  0.09419367  0.39458785  1  0.492163  0  0.051557  0.101163  0  3.915182  0
C  C207  1  0.02067803  0.90580787  0.89459100  1  0.492446  0  0.051456  0.101088  0  3.915491  0
C  C208  1  0.38436486  0.27612363  0.86083300  1  0.419841  0  0.043535  0.085749  0  3.954863  0
C  C209  1  0.11563386  0.72386989  0.36083581  1  0.420235  0  0.043621  0.086033  0  3.954609  0
C  C210  1  0.61563746  0.77612764  0.63916638  1  0.419949  0  0.043606  0.085959  0  3.954759  0
C  C211  1  0.88436781  0.22387623  0.13916795  1  0.420118  0  0.04356  0.085836  0  3.954848  0
C  C212  1  0.61563555  0.72387764  0.13916834  1  0.420441  0  0.043514  0.085789  0  3.954899  0
C  C213  1  0.88436549  0.27612880  0.63916283  1  0.420041  0  0.043622  0.086062  0  3.95462  0
C  C214  1  0.38436718  0.22387557  0.36083361  1  0.420053  0  0.043515  0.085823  0  3.954843  0
C  C215  1  0.11563471  0.77612246  0.86083429  1  0.420053  0  0.043521  0.085767  0  3.954827  0
C  C216  1  0.45101052  0.28462477  0.80543611  1  -0.002773  0  -0.081792  -0.186331  0  3.939964  0
C  C217  1  0.04898651  0.71536917  0.30543957  1  -0.002725  0  -0.081832  -0.186371  0  3.940171  0
C  C218  1  0.54898655  0.78462695  0.69456158  1  -0.002897  0  -0.081872  -0.18646  0  3.940229  0
C  C219  1  0.95101087  0.21537458  0.19456543  1  -0.002773  0  -0.081756  -0.186347  0  3.939966  0
C  C220  1  0.54899624  0.71537651  0.19456388  1  -0.002833  0  -0.081864  -0.186459  0  3.940004  0
C  C221  1  0.95101071  0.28463017  0.69455862  1  -0.002685  0  -0.081848  -0.186391  0  3.940222  0
C  C222  1  0.45101703  0.21537690  0.30543796  1  -0.002892  0  -0.08184  -0.186445  0  3.940089  0
C  C223  1  0.04899271  0.78462219  0.80543637  1  -0.002936  0  -0.081818  -0.186409  0  3.93989  0
S  S224  1  0.92859515  0.67462618  0.55986578  1  3.771788  0  0.540804  1.384934  0  6.426554  0
S  S225  1  0.57139122  0.32537036  0.05986537  1  3.771487  0  0.540667  1.384524  0  6.426909  0
S  S226  1  0.07138970  0.17462954  0.94013404  1  3.771496  0  0.540704  1.384593  0  6.426943  0
S  S227  1  0.42859509  0.82536938  0.44013840  1  3.77148  0  0.540957  1.385198  0  6.426282  0
S  S228  1  0.07140102  0.32536865  0.44013060  1  3.771641  0  0.540735  1.384686  0  6.427016  0
S  S229  1  0.42860813  0.67462254  0.94014049  1  3.771533  0  0.54086  1.3851  0  6.426637  0
S  S230  1  0.92861176  0.82537109  0.05986821  1  3.771427  0  0.540704  1.384615  0  6.426881  0
S  S231  1  0.57140955  0.17462610  0.55985797  1  3.771822  0  0.54085  1.385299  0  6.426235  0
N  N232  1  0.30967159  0.60270333  0.52591864  1  -1.283663  0  -0.340545  -0.246586  0  3.605763  0
N  N233  1  0.19032544  0.39730227  0.02591583  1  -1.283263  0  -0.340506  -0.246583  0  3.605488  0
N  N234  1  0.69032877  0.10269464  0.97408337  1  -1.283472  0  -0.34055  -0.2466  0  3.60556  0
N  N235  1  0.80967289  0.89729265  0.47408259  1  -1.283696  0  -0.340594  -0.246625  0  3.605306  0
N  N236  1  0.69032670  0.39729473  0.47408045  1  -1.283649  0  -0.340588  -0.246698  0  3.605685  0
N  N237  1  0.80967390  0.60270287  0.97408596  1  -1.283413  0  -0.340577  -0.246586  0  3.605628  0
N  N238  1  0.30967376  0.89730213  0.02591708  1  -1.283417  0  -0.340528  -0.246573  0  3.605585  0
N  N239  1  0.19032434  0.10270863  0.52591875  1  -1.283739  0  -0.340569  -0.246623  0  3.605427  0
N  N240  1  0.39992089  0.33498043  0.90533019  1  -1.285077  0  -0.338797  -0.256165  0  3.597295  0
N  N241  1  0.10006986  0.66501431  0.40533262  1  -1.285093  0  -0.338927  -0.256466  0  3.597509  0
N  N242  1  0.60007008  0.83498383  0.59467089  1  -1.285081  0  -0.338932  -0.256422  0  3.597444  0
N  N243  1  0.89992621  0.16501946  0.09467034  1  -1.285093  0  -0.338857  -0.256306  0  3.597411  0
N  N244  1  0.60008163  0.66502342  0.09467025  1  -1.285166  0  -0.338799  -0.256248  0  3.597503  0
N  N245  1  0.89992843  0.33498374  0.59466602  1  -1.285115  0  -0.338941  -0.256494  0  3.597536  0
N  N246  1  0.39992820  0.16501873  0.40532820  1  -1.2851  0  -0.338876  -0.256381  0  3.597332  0
N  N247  1  0.10007631  0.83497988  0.90533100  1  -1.285123  0  -0.33885  -0.25629  0  3.597393  0
O  O248  1  0.04479959  0.73980047  0.54431980  1  -1.311683  0  -0.377191  -0.661202  0  2.288452  0
O  O249  1  0.45517965  0.26020176  0.04431839  1  -1.311751  0  -0.377104  -0.660954  0  2.288405  0
O  O250  1  0.95518241  0.23980017  0.95568226  1  -1.311804  0  -0.37713  -0.660982  0  2.288366  0
O  O251  1  0.54480315  0.76019950  0.45568315  1  -1.311851  0  -0.377207  -0.661199  0  2.288397  0
O  O252  1  0.95519869  0.26019436  0.45567568  1  -1.31172  0  -0.377187  -0.661121  0  2.288503  0
O  O253  1  0.54481440  0.73979693  0.95568115  1  -1.311772  0  -0.377119  -0.661111  0  2.288418  0
O  O254  1  0.04481693  0.76019982  0.04431954  1  -1.311623  0  -0.377136  -0.661034  0  2.288447  0
O  O255  1  0.45520149  0.23979597  0.54431504  1  -1.311705  0  -0.377155  -0.66124  0  2.288526  0
O  O256  1  0.79771445  0.70037207  0.52383783  1  -1.331116  0  -0.380051  -0.661874  0  2.323759  0
O  O257  1  0.70226515  0.29961832  0.02383689  1  -1.330933  0  -0.380042  -0.661855  0  2.323981  0
O  O258  1  0.20226629  0.20037925  0.97616324  1  -1.330913  0  -0.380025  -0.661852  0  2.323896  0
O  O259  1  0.29772102  0.79962130  0.47616744  1  -1.330956  0  -0.380026  -0.661939  0  2.32378  0
O  O260  1  0.20227431  0.29962469  0.47616171  1  -1.331057  0  -0.38004  -0.661895  0  2.32396  0
O  O261  1  0.29773207  0.70037522  0.97616626  1  -1.330772  0  -0.380079  -0.661975  0  2.323925  0
O  O262  1  0.79773623  0.79962717  0.02383720  1  -1.330743  0  -0.380026  -0.661886  0  2.323999  0
O  O263  1  0.70228150  0.20037353  0.52382893  1  -1.331096  0  -0.379973  -0.661891  0  2.323814  0
O  O264  1  0.89860786  0.67833568  0.62466261  1  -1.349958  0  -0.380014  -0.651645  0  2.107159  0
O  O265  1  0.60138135  0.32165942  0.12466357  1  -1.349671  0  -0.380053  -0.651629  0  2.107014  0
O  O266  1  0.10137594  0.17834312  0.87533725  1  -1.349661  0  -0.380041  -0.651619  0  2.107138  0
O  O267  1  0.39860494  0.82165918  0.37534151  1  -1.349588  0  -0.380172  -0.651794  0  2.10701  0
O  O268  1  0.10139254  0.32165915  0.37533422  1  -1.349852  0  -0.380069  -0.651597  0  2.107193  0
O  O269  1  0.39862011  0.67832639  0.87534003  1  -1.34959  0  -0.38013  -0.651786  0  2.106892  0
O  O270  1  0.89862446  0.82165815  0.12466454  1  -1.349775  0  -0.38001  -0.651551  0  2.107018  0
O  O271  1  0.60139758  0.17833694  0.62465667  1  -1.349751  0  -0.380149  -0.651804  0  2.106873  0
O  O272  1  0.97401313  0.58923382  0.53821604  1  -1.353692  0  -0.355177  -0.657492  0  2.222029  0
O  O273  1  0.52598147  0.41076599  0.03822210  1  -1.353741  0  -0.355099  -0.657347  0  2.222117  0
O  O274  1  0.02597657  0.08923447  0.96177721  1  -1.353721  0  -0.35513  -0.657403  0  2.222133  0
O  O275  1  0.47400953  0.91076504  0.46178734  1  -1.353615  0  -0.35516  -0.657534  0  2.221955  0
O  O276  1  0.02597457  0.41076358  0.46177808  1  -1.353593  0  -0.35508  -0.657378  0  2.222202  0
O  O277  1  0.47401894  0.58923335  0.96179098  1  -1.354006  0  -0.355143  -0.657522  0  2.222289  0
O  O278  1  0.97403337  0.91076745  0.03822459  1  -1.353804  0  -0.355149  -0.657419  0  2.222051  0
O  O279  1  0.52599405  0.08922978  0.53821084  1  -1.35381  0  -0.355206  -0.65767  0  2.221953  0
