# generated using pymatgen
data_CoH16C16S(NO)4
_symmetry_space_group_name_H-M   'P 1'
_cell_length_a   9.42453254
_cell_length_b   15.50000159
_cell_length_c   15.23173158
_cell_angle_alpha   90.00043067
_cell_angle_beta   89.99927739
_cell_angle_gamma   90.00020550
_symmetry_Int_Tables_number   1
_chemical_formula_structural   CoH16C16S(NO)4
_chemical_formula_sum   'Co4 H64 C64 S4 N16 O16'
_cell_volume   2225.05545254
_cell_formula_units_Z   4
loop_
 _symmetry_equiv_pos_site_id
 _symmetry_equiv_pos_as_xyz
  1  'x, y, z'
loop_
 _atom_site_type_symbol
 _atom_site_label
 _atom_site_symmetry_multiplicity
 _atom_site_fract_x
 _atom_site_fract_y
 _atom_site_fract_z
 _atom_site_occupancy
 _atom_site_pbe_bader_charge
 _atom_site_pbe_bader_spin_density
 _atom_site_pbe_cm5_charge
 _atom_site_pbe_ddec_charge
 _atom_site_pbe_ddec_spin_density
 _atom_site_pbe_ddec_sum_bond_order
 _atom_site_pbe_magmom
Co  Co0  1  0.47498942  0.57618134  0.25000148  1  1.227924  2.556314  0.682598  0.834797  2.777042  2.627164  2.491
Co  Co1  1  0.97499747  0.92381849  0.75000443  1  1.228271  2.556275  0.68256  0.83474  2.77703  2.627244  2.491
Co  Co2  1  0.02501112  0.07618933  0.24999869  1  1.227975  2.556291  0.682654  0.834948  2.777017  2.627086  2.491
Co  Co3  1  0.52500114  0.42381035  0.74999770  1  1.228184  2.556254  0.682621  0.834893  2.776996  2.627112  2.491
H  H4  1  0.85481719  0.54965850  0.25000188  1  0.111833  0.000318  0.107101  0.124621  8.5e-05  1.017742  0.0
H  H5  1  0.35482886  0.95033851  0.74999906  1  0.111824  0.000318  0.107087  0.124634  8.5e-05  1.017775  0.0
H  H6  1  0.64517442  0.04965511  0.25000340  1  0.111939  0.000318  0.107081  0.124723  8.5e-05  1.017702  0.0
H  H7  1  0.14516382  0.45034610  0.74999665  1  0.111994  0.000318  0.107039  0.124666  8.5e-05  1.017829  0.0
H  H8  1  0.72935583  0.39448290  0.24999914  1  0.102287  0.000286  0.10265  0.11537  5e-06  1.028528  0.0
H  H9  1  0.22936955  0.10551009  0.74999960  1  0.102467  0.000286  0.102619  0.11538  4e-06  1.028763  0.0
H  H10  1  0.77063586  0.89448418  0.25000352  1  0.102348  0.000286  0.102637  0.115451  4e-06  1.028739  0.0
H  H11  1  0.27062518  0.60551911  0.75000135  1  0.102585  0.000286  0.102627  0.115409  5e-06  1.028762  0.0
H  H12  1  0.70768199  0.63907562  0.38665961  1  0.185453  0.000638  0.141235  0.119787  8.3e-05  0.994956  0.001
H  H13  1  0.20768422  0.86092948  0.61333787  1  0.18537  0.000638  0.141204  0.119775  8.3e-05  0.994998  0.001
H  H14  1  0.79231763  0.13907991  0.11333913  1  0.185345  0.000638  0.141274  0.119833  8.3e-05  0.994922  0.001
H  H15  1  0.29231214  0.36092031  0.88666175  1  0.18535  0.000638  0.141264  0.119808  8.2e-05  0.994892  0.001
H  H16  1  0.29231281  0.36091736  0.61333498  1  0.185372  0.000638  0.141247  0.119794  8.3e-05  0.994893  0.001
H  H17  1  0.79230740  0.13907834  0.38666393  1  0.185187  0.000638  0.141245  0.119777  8.2e-05  0.995012  0.001
H  H18  1  0.20769097  0.86093759  0.88666530  1  0.185158  0.000638  0.141215  0.119785  8.2e-05  0.995005  0.001
H  H19  1  0.70769964  0.63906751  0.11333809  1  0.185376  0.000638  0.141192  0.119745  8.3e-05  0.994855  0.001
H  H20  1  0.48960165  0.40213600  0.36686731  1  0.121638  0.000978  0.128277  0.126278  0.000252  0.976735  0.001
H  H21  1  0.98959516  0.09786332  0.63313597  1  0.121492  0.000978  0.128279  0.126254  0.000252  0.97669  0.001
H  H22  1  0.01039673  0.90214106  0.13313206  1  0.121669  0.000978  0.128277  0.12621  0.000252  0.976841  0.001
H  H23  1  0.51039924  0.59785785  0.86686498  1  0.121651  0.000978  0.128284  0.126249  0.000252  0.976814  0.001
H  H24  1  0.51039633  0.59785698  0.63312990  1  0.12177  0.000978  0.128225  0.126184  0.000252  0.976737  0.001
H  H25  1  0.01040707  0.90214708  0.36686452  1  0.121633  0.000978  0.128265  0.126206  0.000252  0.976821  0.001
H  H26  1  0.98958958  0.09786806  0.86687434  1  0.121783  0.000979  0.128311  0.126279  0.000252  0.976616  0.001
H  H27  1  0.48957646  0.40214223  0.13313617  1  0.121446  0.000979  0.128304  0.12625  0.000253  0.976602  0.001
H  H28  1  0.67107227  0.39573414  0.51177526  1  0.108706  0.001155  0.133485  0.136094  0.000493  0.977499  0.0
H  H29  1  0.17106482  0.10426971  0.48822525  1  0.108778  0.001155  0.133568  0.136202  0.000493  0.97751  0.0
H  H30  1  0.82892934  0.89573665  0.98822337  1  0.108795  0.001155  0.133496  0.136106  0.000493  0.977471  0.0
H  H31  1  0.32893165  0.60426354  0.01177776  1  0.109027  0.001155  0.133496  0.13611  0.000493  0.977465  0.0
H  H32  1  0.32892783  0.60425885  0.48822195  1  0.108825  0.001155  0.133516  0.136122  0.000493  0.977393  0.0
H  H33  1  0.82894165  0.89573876  0.51177590  1  0.108628  0.001155  0.133515  0.136118  0.000493  0.977523  0.0
H  H34  1  0.17105697  0.10427569  0.01178500  1  0.108787  0.001156  0.133504  0.135998  0.000493  0.977575  0.0
H  H35  1  0.67104617  0.39572557  0.98822404  1  0.108338  0.001156  0.133587  0.13615  0.000493  0.977492  0.0
H  H36  1  0.79874286  0.51329456  0.59427798  1  0.091471  0.00018  0.110944  0.094714  -0.000119  1.01698  0.0
H  H37  1  0.29874166  0.98671783  0.40571814  1  0.091293  0.00018  0.110887  0.094667  -0.000119  1.017098  0.0
H  H38  1  0.70128284  0.01329373  0.90571379  1  0.091343  0.00018  0.110888  0.094643  -0.000119  1.017225  0.0
H  H39  1  0.20127317  0.48671018  0.09428517  1  0.091308  0.00018  0.110919  0.094668  -0.000119  1.017176  0.0
H  H40  1  0.20128590  0.48670036  0.40571070  1  0.091399  0.00018  0.110916  0.09468  -0.000119  1.017304  0.0
H  H41  1  0.70128391  0.01329257  0.59428892  1  0.091336  0.00018  0.110891  0.094664  -0.000119  1.017171  0.0
H  H42  1  0.29873530  0.98672700  0.09428736  1  0.091016  0.00018  0.1108  0.094564  -0.000119  1.01712  0.0
H  H43  1  0.79873012  0.51326797  0.90571729  1  0.090891  0.00018  0.110769  0.094539  -0.000119  1.017216  0.0
H  H44  1  0.79366962  0.61949697  0.55342553  1  0.046985  2e-06  0.111494  0.089521  -4.6e-05  0.975723  0.0
H  H45  1  0.29366161  0.88051024  0.44656275  1  0.046861  2e-06  0.111497  0.089499  -4.6e-05  0.975785  0.0
H  H46  1  0.70635993  0.11949903  0.94656311  1  0.046954  2e-06  0.111468  0.089497  -4.6e-05  0.975802  0.0
H  H47  1  0.20635785  0.38050424  0.05344041  1  0.046855  2e-06  0.111486  0.0895  -4.6e-05  0.975867  0.0
H  H48  1  0.20634852  0.38049666  0.44656314  1  0.046901  2e-06  0.111457  0.089479  -4.6e-05  0.975807  0.0
H  H49  1  0.70635335  0.11949758  0.55343906  1  0.046859  2e-06  0.111493  0.089515  -4.6e-05  0.975799  0.0
H  H50  1  0.29365821  0.88051847  0.05344132  1  0.047009  2e-06  0.111501  0.089526  -4.6e-05  0.975718  0.0
H  H51  1  0.79365711  0.61947907  0.94655811  1  0.047079  2e-06  0.111492  0.089542  -4.6e-05  0.975763  0.0
H  H52  1  0.99354787  0.58595872  0.44938065  1  0.055968  4.5e-05  0.096641  0.099748  -3e-06  0.96976  0.0
H  H53  1  0.49353900  0.91403921  0.55061068  1  0.056013  4.5e-05  0.096672  0.099804  -3e-06  0.969673  0.0
H  H54  1  0.50645458  0.08597939  0.05059077  1  0.055962  4.5e-05  0.096691  0.099846  -3e-06  0.969575  0.0
H  H55  1  0.00645557  0.41401767  0.94941101  1  0.056078  4.5e-05  0.096673  0.099791  -3e-06  0.96957  0.0
H  H56  1  0.00644162  0.41403232  0.55058702  1  0.056034  4.5e-05  0.096706  0.099857  -3e-06  0.969565  0.0
H  H57  1  0.50645156  0.08597055  0.44941476  1  0.056018  4.5e-05  0.096709  0.099869  -3e-06  0.969515  0.0
H  H58  1  0.49353809  0.91404714  0.94939396  1  0.056155  4.5e-05  0.096719  0.099903  -3e-06  0.969678  0.0
H  H59  1  0.99353922  0.58595402  0.05060195  1  0.056183  4.5e-05  0.096685  0.099846  -3e-06  0.969635  0.0
H  H60  1  0.03808285  0.57498464  0.56199790  1  0.053073  8.1e-05  0.092969  0.093581  3.5e-05  1.007231  0.0
H  H61  1  0.53807820  0.92501819  0.43799301  1  0.053021  8.1e-05  0.092945  0.093531  3.5e-05  1.0073  0.0
H  H62  1  0.46194351  0.07499424  0.93797064  1  0.056151  8.1e-05  0.092874  0.093406  3.5e-05  1.00746  0.0
H  H63  1  0.96193915  0.42500566  0.06202958  1  0.056202  8.1e-05  0.092867  0.093378  3.5e-05  1.007378  0.0
H  H64  1  0.96193636  0.42501221  0.43796385  1  0.0562  8.1e-05  0.092858  0.093406  3.5e-05  1.007385  0.0
H  H65  1  0.46193888  0.07498640  0.56203571  1  0.05611  8.1e-05  0.092852  0.093398  3.5e-05  1.007428  0.0
H  H66  1  0.53807463  0.92502583  0.06201212  1  0.052547  8.1e-05  0.092917  0.093526  3.5e-05  1.007376  0.0
H  H67  1  0.03807157  0.57496925  0.93798208  1  0.052501  8.1e-05  0.092873  0.093503  3.5e-05  1.007375  0.0
C  C68  1  0.16358609  0.55177006  0.24999997  1  1.553527  0.001334  0.182898  0.554902  0.00141  4.311156  0.002
C  C69  1  0.66359112  0.94822140  0.74999785  1  1.553217  0.001339  0.18286  0.554838  0.001413  4.31163  0.002
C  C70  1  0.33641535  0.05177416  0.25000592  1  1.553125  0.001339  0.182896  0.554735  0.001414  4.311932  0.002
C  C71  1  0.83641401  0.44821131  0.74999790  1  1.553144  0.001344  0.182848  0.554799  0.001419  4.312262  0.002
C  C72  1  0.05632856  0.48144932  0.25000077  1  -0.29827  0.007506  -0.031483  -0.135248  0.003764  3.986705  0.006
C  C73  1  0.55633296  0.01855300  0.74999537  1  -0.29831  0.007507  -0.03153  -0.135296  0.003765  3.98681  0.006
C  C74  1  0.44366926  0.98143998  0.24999790  1  -0.298165  0.007508  -0.031508  -0.135279  0.003765  3.987003  0.006
C  C75  1  0.94365775  0.51855141  0.74999841  1  -0.29814  0.007507  -0.031541  -0.135442  0.003765  3.98698  0.006
C  C76  1  0.90943402  0.48771082  0.25000077  1  0.059314  0.000984  -0.101816  -0.116385  0.000237  3.980739  0.001
C  C77  1  0.40944714  0.01228383  0.74999657  1  0.059318  0.000984  -0.101815  -0.116468  0.000238  3.980861  0.001
C  C78  1  0.59055827  0.98770916  0.24999932  1  0.059444  0.000984  -0.101883  -0.116547  0.000238  3.980594  0.001
C  C79  1  0.09054804  0.51228926  0.74999907  1  0.059377  0.000985  -0.10167  -0.116227  0.000238  3.981083  0.001
C  C80  1  0.84315779  0.40575527  0.25000006  1  -0.002489  0.001951  -0.104331  -0.122582  0.000887  4.022353  0.002
C  C81  1  0.34314916  0.09423988  0.74999649  1  -0.002547  0.001951  -0.104253  -0.122467  0.000887  4.022084  0.002
C  C82  1  0.65685625  0.90575052  0.24999809  1  -0.003166  0.001953  -0.104247  -0.12274  0.000888  4.021973  0.002
C  C83  1  0.15683276  0.59424739  0.75000175  1  -0.002436  0.001951  -0.104412  -0.122895  0.000887  4.022772  0.002
C  C84  1  0.94021067  0.33852506  0.24999811  1  -0.267205  0.004193  -0.033986  -0.132933  0.001922  4.002193  0.003
C  C85  1  0.44021519  0.16147933  0.74999571  1  -0.267109  0.004192  -0.033954  -0.132995  0.001921  4.002295  0.003
C  C86  1  0.55977960  0.83851430  0.24999625  1  -0.266278  0.004191  -0.033983  -0.13286  0.001922  4.002257  0.003
C  C87  1  0.05977883  0.66148212  0.75000435  1  -0.267138  0.004194  -0.033912  -0.132762  0.001922  4.002213  0.003
C  C88  1  0.91481282  0.24440439  0.24999851  1  1.595453  0.001486  0.186331  0.561696  0.001507  4.289066  0.001
C  C89  1  0.41481052  0.25558961  0.75000011  1  1.596315  0.001489  0.186327  0.56177  0.001506  4.289194  0.001
C  C90  1  0.58519277  0.74440401  0.25000104  1  1.595038  0.001489  0.186237  0.561508  0.001507  4.289224  0.001
C  C91  1  0.08518092  0.75559762  0.75000396  1  1.595884  0.001493  0.186385  0.561651  0.001508  4.289342  0.001
C  C92  1  0.67049994  0.57440532  0.40168012  1  0.944578  0.001995  0.144886  0.087337  0.001357  3.908818  0.002
C  C93  1  0.17050183  0.92559713  0.59831896  1  0.944751  0.001992  0.144943  0.087356  0.001355  3.908598  0.002
C  C94  1  0.82949820  0.07441022  0.09831944  1  0.944406  0.001993  0.144771  0.087226  0.001355  3.908752  0.002
C  C95  1  0.32949281  0.42559007  0.90168050  1  0.944437  0.001992  0.144761  0.087175  0.001355  3.908739  0.002
C  C96  1  0.32949274  0.42558895  0.59831643  1  0.944375  0.001991  0.144823  0.087286  0.001355  3.908653  0.002
C  C97  1  0.82949297  0.07441198  0.40168153  1  0.944529  0.001992  0.144809  0.087262  0.001355  3.908778  0.002
C  C98  1  0.17050721  0.92560341  0.90168499  1  0.94468  0.001992  0.144916  0.087223  0.001355  3.908518  0.002
C  C99  1  0.67050623  0.57439904  0.09831934  1  0.944408  0.001993  0.144985  0.087348  0.001355  3.908346  0.002
C  C100  1  0.56158813  0.45029487  0.39301067  1  0.404817  0.001883  0.001589  -0.032606  0.000759  4.010509  0.002
C  C101  1  0.06158426  0.04970682  0.60699069  1  0.404855  0.001883  0.001663  -0.032459  0.000758  4.010078  0.002
C  C102  1  0.93841241  0.95029866  0.10698848  1  0.404588  0.001883  0.001639  -0.032409  0.000759  4.010605  0.002
C  C103  1  0.43841117  0.54970110  0.89300786  1  0.404358  0.001884  0.001624  -0.032585  0.000758  4.010418  0.002
C  C104  1  0.43840561  0.54970005  0.60698523  1  0.404618  0.001884  0.001631  -0.032491  0.00076  4.010585  0.002
C  C105  1  0.93841903  0.95030165  0.39300849  1  0.40447  0.001884  0.00169  -0.032409  0.000758  4.010284  0.002
C  C106  1  0.06158451  0.04971046  0.89301989  1  0.404546  0.001885  0.001538  -0.03267  0.000759  4.010837  0.002
C  C107  1  0.56157408  0.45029575  0.10699000  1  0.404897  0.001883  0.001674  -0.032484  0.000758  4.010493  0.002
C  C108  1  0.65146877  0.44595587  0.46384795  1  0.305165  0.004909  0.007763  -0.097624  0.002399  3.923747  0.003
C  C109  1  0.15146320  0.05404664  0.53615074  1  0.305304  0.004909  0.007699  -0.097798  0.002399  3.923797  0.003
C  C110  1  0.84853386  0.94595766  0.03615051  1  0.305084  0.004909  0.007721  -0.097749  0.002399  3.923883  0.003
C  C111  1  0.34853438  0.55404192  0.96384916  1  0.30494  0.004909  0.007716  -0.097685  0.002399  3.923637  0.003
C  C112  1  0.34853452  0.55403776  0.53614860  1  0.30511  0.004908  0.007781  -0.097599  0.002398  3.923943  0.003
C  C113  1  0.84854009  0.94595989  0.46385106  1  0.305616  0.004908  0.007654  -0.097815  0.002399  3.923695  0.003
C  C114  1  0.15145457  0.05405145  0.96385523  1  0.304834  0.004908  0.007881  -0.097448  0.002398  3.924264  0.003
C  C115  1  0.65144663  0.44595042  0.03615331  1  0.305496  0.004908  0.007796  -0.097635  0.002399  3.924082  0.003
C  C116  1  0.81983216  0.55264339  0.53594390  1  0.315388  0.000943  -0.052668  -0.075036  0.000527  3.90044  0.001
C  C117  1  0.31982421  0.94736516  0.46405336  1  0.31558  0.000943  -0.052626  -0.075096  0.000527  3.900627  0.001
C  C118  1  0.68018530  0.05264682  0.96404685  1  0.315214  0.000943  -0.052654  -0.075076  0.000527  3.900709  0.001
C  C119  1  0.18017658  0.44735382  0.03595621  1  0.315374  0.000943  -0.052688  -0.075162  0.000527  3.900899  0.001
C  C120  1  0.18018386  0.44735153  0.46404346  1  0.315338  0.000943  -0.052702  -0.075142  0.000527  3.900892  0.001
C  C121  1  0.68018438  0.05264395  0.53595567  1  0.315395  0.000943  -0.052734  -0.075185  0.000527  3.900767  0.001
C  C122  1  0.31982223  0.94737326  0.03595167  1  0.315823  0.000943  -0.052569  -0.075166  0.000526  3.900681  0.001
C  C123  1  0.81982035  0.55262368  0.96404953  1  0.315703  0.000943  -0.052509  -0.075143  0.000527  3.90083  0.001
C  C124  1  0.97544226  0.54620280  0.50838764  1  -0.067825  0.000111  -0.16358  -0.167688  6.3e-05  3.930358  0.0
C  C125  1  0.47544334  0.95380155  0.49160776  1  -0.067827  0.000111  -0.16355  -0.167611  6.3e-05  3.930255  0.0
C  C126  1  0.52456455  0.04621515  0.99159059  1  -0.046116  0.000111  -0.16349  -0.167492  6.3e-05  3.930282  0.0
C  C127  1  0.02456385  0.45378194  0.00841040  1  -0.046408  0.000111  -0.163411  -0.167229  6.3e-05  3.930143  0.0
C  C128  1  0.02456209  0.45379341  0.49158462  1  -0.04664  0.000111  -0.163456  -0.167464  6.3e-05  3.93004  0.0
C  C129  1  0.52456313  0.04620692  0.50841440  1  -0.046417  0.000111  -0.163433  -0.167441  6.3e-05  3.930024  0.0
C  C130  1  0.47544193  0.95381138  0.00839743  1  -0.06763  0.000111  -0.163563  -0.167721  6.3e-05  3.930486  0.0
C  C131  1  0.97544156  0.54618523  0.99160060  1  -0.067509  0.000111  -0.163535  -0.167716  6.3e-05  3.930384  0.0
S  S132  1  0.11229917  0.37563713  0.24999818  1  0.274945  0.001393  0.094505  0.157993  0.000347  2.975135  0.0
S  S133  1  0.61230425  0.12436402  0.74999556  1  0.274809  0.001393  0.094434  0.157935  0.000347  2.975242  0.0
S  S134  1  0.38770435  0.87562703  0.24999443  1  0.274386  0.001396  0.0945  0.158041  0.000347  2.975512  0.0
S  S135  1  0.88768184  0.62436940  0.75000100  1  0.274526  0.001394  0.09441  0.157848  0.000348  2.975098  0.0
N  N136  1  0.57428118  0.53093925  0.35489313  1  -1.212176  0.070501  -0.369655  -0.323177  0.036698  3.709683  0.045
N  N137  1  0.07428346  0.96906172  0.64510866  1  -1.212173  0.070503  -0.369692  -0.32324  0.036697  3.709586  0.045
N  N138  1  0.92571773  0.03094339  0.14510675  1  -1.211845  0.070504  -0.369636  -0.323222  0.036699  3.709764  0.045
N  N139  1  0.42571253  0.46905644  0.85489047  1  -1.211623  0.0705  -0.3696  -0.323027  0.036698  3.709657  0.045
N  N140  1  0.42571255  0.46905567  0.64510473  1  -1.211755  0.070498  -0.36955  -0.323081  0.036695  3.709435  0.045
N  N141  1  0.92571452  0.03094675  0.35489117  1  -1.211638  0.070502  -0.369575  -0.323027  0.036699  3.709624  0.045
N  N142  1  0.07428343  0.96906765  0.85489834  1  -1.211913  0.0705  -0.369565  -0.323149  0.036697  3.709607  0.045
N  N143  1  0.57427909  0.53093719  0.14510871  1  -1.212231  0.070507  -0.369676  -0.323252  0.036699  3.709755  0.045
N  N144  1  0.71907339  0.52487078  0.46848042  1  -1.227551  0.00365  -0.240663  0.046829  0.001476  3.779934  0.003
N  N145  1  0.21907060  0.97513370  0.53151828  1  -1.227735  0.00365  -0.240788  0.046856  0.001476  3.780041  0.003
N  N146  1  0.78092974  0.02487186  0.03151745  1  -1.227441  0.00365  -0.24064  0.046876  0.001476  3.779984  0.003
N  N147  1  0.28092648  0.47512768  0.96848352  1  -1.227519  0.003649  -0.240698  0.046835  0.001475  3.779946  0.003
N  N148  1  0.28092565  0.47512607  0.53151482  1  -1.227684  0.003649  -0.240746  0.046716  0.001475  3.780221  0.003
N  N149  1  0.78092844  0.02487154  0.46848352  1  -1.227755  0.00365  -0.240694  0.0468  0.001476  3.780029  0.003
N  N150  1  0.21906931  0.97514176  0.96848830  1  -1.227497  0.00365  -0.240869  0.04711  0.001476  3.779739  0.003
N  N151  1  0.71906832  0.52485627  0.03151763  1  -1.227131  0.00365  -0.240962  0.046955  0.001476  3.779873  0.003
O  O152  1  0.29404764  0.52064310  0.24999869  1  -1.148197  0.116848  -0.355213  -0.594565  0.059436  2.412872  0.089
O  O153  1  0.79405923  0.97935960  0.75000469  1  -1.148041  0.116903  -0.355201  -0.594567  0.05945  2.412526  0.089
O  O154  1  0.20594194  0.02064113  0.25000237  1  -1.147621  0.116886  -0.355173  -0.594534  0.059451  2.412491  0.089
O  O155  1  0.70593549  0.47935440  0.74999852  1  -1.147867  0.116936  -0.355262  -0.594702  0.059468  2.412142  0.089
O  O156  1  0.12875490  0.62875712  0.25000106  1  -1.147436  0.003339  -0.338684  -0.523988  0.000661  2.033596  0.002
O  O157  1  0.62876687  0.87125234  0.74999047  1  -1.147551  0.003336  -0.338495  -0.523745  0.000659  2.034708  0.002
O  O158  1  0.37124597  0.12874322  0.25001462  1  -1.147405  0.003337  -0.338577  -0.523753  0.000659  2.034748  0.002
O  O159  1  0.87123141  0.37126361  0.74999944  1  -1.147647  0.003336  -0.338313  -0.523419  0.000659  2.035867  0.002
O  O160  1  0.79229312  0.21335589  0.24999952  1  -1.178187  0.015804  -0.331717  -0.550223  0.007464  2.081154  0.012
O  O161  1  0.29229526  0.28663723  0.75001383  1  -1.17855  0.015795  -0.331759  -0.550248  0.007462  2.081155  0.012
O  O162  1  0.70771227  0.71335253  0.25000964  1  -1.1781  0.015805  -0.331665  -0.550091  0.007465  2.081254  0.012
O  O163  1  0.20770274  0.78664032  0.75000557  1  -1.178611  0.015801  -0.331811  -0.55021  0.007466  2.081174  0.012
O  O164  1  0.03231904  0.19947061  0.24999519  1  -1.159175  0.114081  -0.344373  -0.569084  0.057293  2.394809  0.085
O  O165  1  0.53230827  0.30052973  0.74999063  1  -1.159714  0.114083  -0.344385  -0.569154  0.057293  2.394642  0.085
O  O166  1  0.46769714  0.69946390  0.24999935  1  -1.158916  0.114091  -0.344292  -0.568943  0.0573  2.394648  0.085
O  O167  1  0.96768531  0.80053721  0.75000464  1  -1.15918  0.114079  -0.344261  -0.568905  0.057293  2.394948  0.085
