# generated using pymatgen
data_Co3H28C32(N3O5)2
_symmetry_space_group_name_H-M   'P 1'
_cell_length_a   8.17068152
_cell_length_b   9.90791602
_cell_length_c   10.34285843
_cell_angle_alpha   89.71959911
_cell_angle_beta   87.50714270
_cell_angle_gamma   69.32135845
_symmetry_Int_Tables_number   1
_chemical_formula_structural   Co3H28C32(N3O5)2
_chemical_formula_sum   'Co3 H28 C32 N6 O10'
_cell_volume   782.56733518
_cell_formula_units_Z   1
loop_
 _symmetry_equiv_pos_site_id
 _symmetry_equiv_pos_as_xyz
  1  'x, y, z'
loop_
 _atom_site_type_symbol
 _atom_site_label
 _atom_site_symmetry_multiplicity
 _atom_site_fract_x
 _atom_site_fract_y
 _atom_site_fract_z
 _atom_site_occupancy
 _atom_site_hle17_ddec_charge
 _atom_site_hle17_ddec_spin_density
 _atom_site_hle17_ddec_sum_bond_order
 _atom_site_hle17_magmom
 _atom_site_hse06_10hf_ddec_charge
 _atom_site_hse06_10hf_ddec_spin_density
 _atom_site_hse06_10hf_ddec_sum_bond_order
 _atom_site_hse06_10hf_magmom
 _atom_site_hse06_ddec_charge
 _atom_site_hse06_ddec_spin_density
 _atom_site_hse06_ddec_sum_bond_order
 _atom_site_hse06_magmom
 _atom_site_pbe_cm5_charge
 _atom_site_pbe_ddec_charge
 _atom_site_pbe_ddec_spin_density
 _atom_site_pbe_ddec_sum_bond_order
 _atom_site_pbe_magmom
Co  Co0  1  0.50140420  0.99872677  0.99838843  1  1.037482  -2.892782  2.087853  -2.602  1.007018  -2.867597  2.497194  -2.653  1.071708  -2.898961  2.431948  -2.719  0.656734  0.958376  -2.825015  2.546367  -2.579
Co  Co1  1  0.85759227  0.92076704  0.80459359  1  1.036642  -2.788156  1.9515  -2.521  0.992159  -2.77782  2.413213  -2.588  1.087269  -2.841589  2.321521  -2.678  0.640484  0.910103  -2.707921  2.488707  -2.495
Co  Co2  1  0.13984139  0.07990004  0.19702636  1  1.049154  2.881297  1.948444  2.523  0.996287  2.822968  2.414634  2.578  1.090363  2.885433  2.325089  2.673  0.645883  0.917456  2.743677  2.485583  2.474
H  H3  1  0.77330088  0.08639262  0.99779993  1  0.432136  -0.001279  0.857724  -0.002  0.408879  -0.001921  0.911698  -0.004  0.418056  -0.001169  0.899168  -0.002  0.291377  0.403325  -0.002855  0.919067  -0.005
H  H4  1  0.23048522  0.91681136  0.00305404  1  0.426072  -0.000108  0.864192  0.0  0.405454  0.000189  0.914561  0.001  0.414097  0.000161  0.902958  0.001  0.29197  0.40049  6.7e-05  0.920773  0.001
H  H5  1  0.23462715  0.08954643  0.48372050  1  0.317451  -9e-05  0.935218  -0.001  0.297814  -3.1e-05  0.997735  0.0  0.307145  -0.000103  0.990684  0.0  0.307033  0.2911  3.8e-05  1.002719  0.0
H  H6  1  0.76491919  0.91034414  0.51680276  1  0.317576  0.000156  0.934196  0.001  0.297968  7.4e-05  0.99668  0.0  0.307156  0.000128  0.989711  0.0  0.307349  0.291439  7e-06  1.001535  0.0
H  H7  1  0.54010231  0.72711168  0.59545929  1  0.104531  0.000249  0.942811  0.001  0.124518  -4.1e-05  0.997793  0.0  0.126538  -4.7e-05  0.997229  0.0  0.105084  0.123129  -3.2e-05  0.998157  0.0
H  H8  1  0.45922492  0.27287036  0.40440899  1  0.104285  -0.000101  0.942456  0.0  0.124088  -0.000147  0.997642  0.0  0.12606  -0.000123  0.997112  0.0  0.104919  0.122804  -0.000167  0.997883  0.0
H  H9  1  0.46138465  0.88629383  0.50766351  1  0.101379  0.000246  0.943339  0.001  0.115223  1.8e-05  1.007192  0.0  0.117913  -7e-06  1.006005  0.0  0.100179  0.113268  0.0  1.008117  0.0
H  H10  1  0.53778766  0.11382260  0.49257123  1  0.100269  -3.1e-05  0.944299  0.0  0.113726  7.1e-05  1.008521  0.0  0.116217  6.8e-05  1.007516  0.0  0.099845  0.11207  3e-06  1.009175  0.0
H  H11  1  0.23342364  0.77353043  0.57851655  1  0.093455  0.000236  0.98984  0.0  0.10644  -4e-06  1.056192  0.0  0.106847  -9e-06  1.059657  0.0  0.097597  0.106108  1.4e-05  1.05391  0.0
H  H12  1  0.76611576  0.22614587  0.42140350  1  0.093482  -0.000225  0.989389  0.0  0.106407  1.4e-05  1.055841  0.0  0.106721  1.4e-05  1.059283  0.0  0.097661  0.106235  -3e-06  1.053575  0.0
H  H13  1  0.26460230  0.80651377  0.74116022  1  0.112621  0.000339  0.953922  0.0  0.126437  0.000203  1.015496  0.0  0.129471  0.000188  1.01339  0.0  0.107368  0.124106  0.000224  1.017243  0.0
H  H14  1  0.73469826  0.19295324  0.25881870  1  0.111918  -0.000375  0.954351  0.0  0.126021  -0.000171  1.015619  0.0  0.129035  -0.00014  1.01345  0.0  0.107541  0.12372  -0.000226  1.017379  0.0
H  H15  1  0.01444953  0.38127166  0.44418076  1  0.11784  -0.000228  0.957277  0.0  0.127026  -0.000207  1.018983  0.0  0.130536  -0.000188  1.017119  0.0  0.106686  0.124434  -0.000209  1.020433  0.0
H  H16  1  0.98516404  0.61847538  0.55632993  1  0.118046  0.000224  0.956229  0.0  0.127104  0.000197  1.018075  0.0  0.130513  0.000178  1.016375  0.0  0.107038  0.124773  0.000202  1.019195  0.0
H  H17  1  0.71595398  0.55035927  0.50946287  1  0.080199  4.3e-05  0.972874  0.0  0.092142  -2.1e-05  1.03348  0.0  0.094682  -1.6e-05  1.032557  0.0  0.095715  0.090222  -3.4e-05  1.03437  0.0
H  H18  1  0.28357811  0.44936735  0.49094333  1  0.080436  -6.2e-05  0.972591  0.0  0.092471  -1.5e-05  1.033147  0.0  0.095006  -1.4e-05  1.032221  0.0  0.09604  0.090555  -1.6e-05  1.034018  0.0
H  H19  1  0.53045602  0.48236708  0.67528486  1  0.086643  -1e-06  0.952105  0.0  0.101817  3.3e-05  1.005491  0.0  0.10408  2.3e-05  1.005724  0.0  0.097101  0.100184  4.3e-05  1.005465  0.0
H  H20  1  0.46905386  0.51738231  0.32514797  1  0.087296  1.9e-05  0.951175  0.0  0.102309  -2.3e-05  1.004694  0.0  0.104646  -1.8e-05  1.004834  0.0  0.097724  0.100666  -2.7e-05  1.004644  0.0
H  H21  1  0.63858692  0.23962807  0.77990609  1  0.118403  0.000274  0.954089  0.0  0.125791  0.000168  1.017924  0.0  0.129642  0.000241  1.016267  0.0  0.108038  0.12306  2.5e-05  1.018781  0.0
H  H22  1  0.36081055  0.76004237  0.22041699  1  0.119282  -0.000168  0.953305  0.0  0.127395  -7.7e-05  1.015677  0.0  0.131381  -7.6e-05  1.013888  0.0  0.108707  0.124334  -5.4e-05  1.016944  0.0
H  H23  1  0.34492305  0.55340095  0.05630506  1  0.104487  -0.000101  0.977826  0.0  0.110972  -0.000194  1.045262  0.0  0.113862  -0.000135  1.044952  0.0  0.104466  0.108637  -0.000299  1.046115  0.0
H  H24  1  0.65692540  0.44478702  0.94375654  1  0.104684  -5.1e-05  0.977828  0.0  0.111037  -0.000174  1.045481  0.0  0.113842  -0.000145  1.045328  0.0  0.10514  0.108867  -0.00022  1.046036  0.0
H  H25  1  0.50305777  0.28788746  0.09077782  1  0.085172  -0.000408  0.949045  -0.001  0.093012  -0.000331  1.011586  -0.001  0.095613  -0.000233  1.009395  -0.001  0.116938  0.090844  -0.000461  1.0138  -0.001
H  H26  1  0.49875944  0.70943945  0.90656075  1  0.085013  -0.000297  0.949345  -0.001  0.093232  -0.000148  1.011493  -0.001  0.09584  -8.4e-05  1.009232  -0.001  0.116938  0.09115  -0.000262  1.013688  -0.001
H  H27  1  0.19769374  0.17920030  0.83175780  1  0.089331  -0.000363  0.94522  -0.001  0.094148  -0.000238  1.011993  -0.001  0.09664  -0.000159  1.010395  -0.001  0.115293  0.092057  -0.000351  1.013798  -0.001
H  H28  1  0.80121590  0.82230410  0.16533811  1  0.090759  -0.00047  0.944128  -0.001  0.095449  -0.000365  1.010923  -0.001  0.097968  -0.000237  1.009307  -0.001  0.11608  0.093355  -0.000487  1.012683  -0.001
H  H29  1  0.03879873  0.43957047  0.77731150  1  0.111432  -0.000229  0.955659  0.0  0.119336  -0.000315  1.019383  0.0  0.122191  -0.000201  1.019545  0.0  0.10598  0.11733  -0.000481  1.019345  0.0
H  H30  1  0.96015435  0.56283427  0.22256472  1  0.112066  -2.6e-05  0.954092  0.0  0.119183  -0.000208  1.018785  0.0  0.121989  -0.000182  1.019  0.0  0.106146  0.117231  -0.000223  1.018647  0.0
C  C31  1  0.53189119  0.90854970  0.70400410  1  0.700049  0.008157  3.813112  0.012  0.656397  0.00091  4.116995  0.002  0.693081  0.00025  4.109242  0.001  0.217666  0.63025  0.001459  4.120487  0.003
C  C32  1  0.46755519  0.09101136  0.29624483  1  0.699235  0.001829  3.817007  0.001  0.656533  0.001725  4.119003  0.001  0.692867  0.001214  4.11155  0.0  0.217959  0.630754  0.00189  4.122265  0.001
C  C33  1  0.45317719  0.84070963  0.60388747  1  -0.249593  -0.006017  3.683537  -0.009  -0.292115  -0.003853  3.935648  -0.006  -0.297639  -0.002778  3.942223  -0.004  -0.163146  -0.287972  -0.00495  3.93097  -0.007
C  C34  1  0.54607297  0.15923062  0.39628920  1  -0.248827  1e-05  3.684502  0.0  -0.29141  -4.9e-05  3.936885  0.0  -0.296976  -0.000117  3.943717  0.0  -0.163518  -0.287093  6.8e-05  3.931583  0.0
C  C35  1  0.26878430  0.84627119  0.64230632  1  -0.209246  -0.000564  3.728694  -0.002  -0.250276  -0.000626  3.973368  -0.001  -0.254135  -0.000413  3.983042  -0.001  -0.159997  -0.247263  -0.000844  3.966851  -0.002
C  C36  1  0.73051379  0.15341253  0.35776946  1  -0.208974  0.000851  3.730354  0.002  -0.250727  0.00062  3.976125  0.001  -0.254362  0.000449  3.985502  0.001  -0.159554  -0.247958  0.000738  3.969631  0.001
C  C37  1  0.13200486  0.99263368  0.63878910  1  0.439086  0.006332  3.640681  0.008  0.411161  -0.000849  3.920996  -0.001  0.43355  -0.001041  3.930382  -0.002  0.239862  0.394828  1e-06  3.915305  0.0
C  C38  1  0.86711649  0.00699617  0.36144759  1  0.4385  -0.005978  3.640534  -0.008  0.410837  0.000897  3.920702  0.001  0.433031  0.001064  3.930196  0.002  0.23973  0.394871  0.000201  3.914629  0.0
C  C39  1  0.99353461  0.21927795  0.57971491  1  0.149852  -0.002734  3.811919  -0.004  0.141381  -0.001343  4.056452  -0.002  0.145057  -0.001061  4.078149  -0.002  0.090508  0.139223  -0.001628  4.041976  -0.003
C  C40  1  0.00590036  0.78044085  0.42071772  1  0.148408  0.002966  3.812548  0.004  0.141121  0.001431  4.05622  0.002  0.144637  0.00112  4.078098  0.002  0.090631  0.139234  0.001753  4.04113  0.003
C  C41  1  0.93565880  0.35332725  0.51988875  1  -0.157866  0.001096  3.760043  0.002  -0.174617  9e-06  4.010971  0.0  -0.176874  0.000112  4.028818  0.0  -0.095614  -0.173159  -1.4e-05  3.999149  0.0
C  C42  1  0.06387740  0.64642896  0.48058378  1  -0.157651  -0.001139  3.759024  -0.002  -0.175146  -3.7e-05  4.010361  0.0  -0.177578  -0.000137  4.028523  0.0  -0.095406  -0.173303  -5e-06  3.997676  0.0
C  C43  1  0.76727994  0.44608442  0.55659195  1  -0.088264  -0.00207  3.812057  -0.003  -0.106592  -0.000709  4.072402  -0.001  -0.108389  -0.000611  4.093621  -0.001  -0.102866  -0.105507  -0.000795  4.058321  -0.001
C  C44  1  0.23225687  0.55365650  0.44385168  1  -0.086925  0.002293  3.809739  0.003  -0.105554  0.00074  4.070331  0.001  -0.107341  0.000633  4.091671  0.001  -0.102493  -0.104331  0.000834  4.055833  0.001
C  C45  1  0.66157284  0.40662866  0.64974341  1  -0.089018  0.001811  3.798675  0.002  -0.104759  0.000365  4.054618  0.001  -0.107161  0.000378  4.077155  0.001  -0.102839  -0.103143  0.000316  4.039585  0.0
C  C46  1  0.33792040  0.59311404  0.35066778  1  -0.088835  -0.001884  3.797415  -0.003  -0.104601  -0.000435  4.053759  -0.001  -0.107175  -0.000434  4.076391  -0.001  -0.102562  -0.102721  -0.000415  4.038366  -0.001
C  C47  1  0.71973290  0.27197744  0.70881226  1  -0.131589  -0.002444  3.716929  -0.003  -0.148966  -0.000886  3.964577  -0.001  -0.150915  -0.000726  3.982565  -0.001  -0.088095  -0.147723  -0.001185  3.952783  -0.001
C  C48  1  0.27966023  0.72771691  0.29153685  1  -0.131737  0.002565  3.717443  0.003  -0.149588  0.00075  3.965509  0.001  -0.151431  0.000659  3.983243  0.001  -0.088228  -0.148493  0.000908  3.954168  0.001
C  C49  1  0.88793442  0.17754682  0.67199375  1  0.147803  0.002306  3.814906  0.004  0.150453  7e-06  4.060176  0.0  0.154872  0.000241  4.083493  0.001  0.085913  0.147028  -0.000419  4.044586  0.0
C  C50  1  0.11144022  0.82209987  0.32835057  1  0.147955  -0.00239  3.814238  -0.004  0.14975  -1.6e-05  4.060045  0.0  0.154292  -0.000265  4.083144  0.0  0.086099  0.14614  0.000382  4.044851  0.0
C  C51  1  0.09662153  0.67496974  0.88684531  1  0.61842  0.003096  3.934398  0.005  0.575852  -0.00191  4.229137  -0.001  0.6108  -0.001483  4.223783  -0.001  0.200487  0.550066  -0.001483  4.233282  0.0
C  C52  1  0.90458871  0.32569465  0.11430173  1  0.61866  -0.002222  3.935757  -0.006  0.57433  0.002437  4.232874  0.001  0.609325  0.001613  4.227363  0.0  0.200009  0.548712  0.002798  4.236674  0.0
C  C53  1  0.18360765  0.51670757  0.91160290  1  -0.012478  0.006461  3.737366  0.008  0.00792  0.0023  3.961952  0.003  0.006039  0.001808  3.981471  0.002  -0.003395  0.008772  0.003418  3.95  0.004
C  C54  1  0.81707479  0.48355467  0.08842482  1  -0.012043  0.011469  3.737878  0.015  0.00892  0.004041  3.962552  0.005  0.007499  0.002539  3.981544  0.003  -0.002743  0.009054  0.005739  3.951139  0.007
C  C55  1  0.31255034  0.47261744  0.00295008  1  -0.128441  -0.006088  3.72716  -0.009  -0.147143  -0.00228  3.968917  -0.003  -0.152762  -0.002212  3.990281  -0.003  -0.08129  -0.143792  -0.002125  3.955844  -0.003
C  C56  1  0.68871106  0.52627791  0.99651837  1  -0.125968  -0.007813  3.72498  -0.011  -0.145483  -0.001576  3.967783  -0.002  -0.15107  -0.001587  3.988845  -0.002  -0.081125  -0.141919  -0.001536  3.95481  -0.003
C  C57  1  0.39754641  0.32635232  0.02375912  1  0.123998  0.007361  3.692608  0.01  0.098775  0.002104  3.947565  0.003  0.105339  0.002143  3.963232  0.003  0.045937  0.093264  0.002479  3.93899  0.003
C  C58  1  0.60379926  0.67213399  0.97406447  1  0.125013  0.009502  3.691575  0.013  0.098758  0.002617  3.948201  0.004  0.105725  0.002366  3.963475  0.003  0.046229  0.092743  0.003302  3.939889  0.004
C  C59  1  0.22910449  0.26577211  0.87674873  1  0.124266  0.007709  3.679299  0.01  0.097904  0.00188  3.93869  0.003  0.104258  0.001648  3.955507  0.003  0.045457  0.09302  0.002195  3.928886  0.003
C  C60  1  0.77082098  0.73495429  0.12093375  1  0.12525  0.009228  3.675829  0.012  0.09854  0.00226  3.935864  0.003  0.105064  0.001925  3.952463  0.003  0.046043  0.093671  0.002506  3.926004  0.003
C  C61  1  0.14086255  0.41007458  0.84752272  1  -0.125202  -0.006663  3.69617  -0.009  -0.14529  -0.002765  3.939736  -0.004  -0.150716  -0.002532  3.960453  -0.004  -0.081287  -0.142133  -0.002641  3.927026  -0.004
C  C62  1  0.85887242  0.59114531  0.15172130  1  -0.124226  -0.007953  3.696495  -0.011  -0.143946  -0.0017  3.9402  -0.003  -0.149242  -0.001681  3.960578  -0.002  -0.080821  -0.140839  -0.00187  3.927741  -0.003
N  N63  1  0.97849757  0.03514538  0.70695433  1  -0.502499  -0.038361  3.21117  -0.058  -0.469042  -0.02847  3.52988  -0.035  -0.498522  -0.023429  3.53226  -0.027  -0.365085  -0.447173  -0.032454  3.530351  -0.041
N  N64  1  0.02065662  0.96441745  0.29325576  1  -0.503764  0.039924  3.215736  0.058  -0.46973  0.02828  3.536305  0.033  -0.49918  0.0232  3.538339  0.026  -0.365545  -0.447865  0.032333  3.536517  0.039
N  N65  1  0.14619362  0.10096310  0.56239570  1  -0.397684  -0.000235  3.325343  -0.001  -0.337981  -0.000614  3.553887  -0.001  -0.357016  -0.000526  3.564391  -0.001  -0.382827  -0.32587  -0.000468  3.548019  -0.001
N  N66  1  0.85317235  0.89875958  0.43801208  1  -0.394141  0.000419  3.323442  0.001  -0.335901  0.000671  3.55262  0.001  -0.354853  0.000555  3.563214  0.001  -0.381934  -0.323475  0.000626  3.546046  0.001
N  N67  1  0.35733746  0.22366628  0.96206944  1  -0.305591  -0.036751  3.278179  -0.062  -0.260252  -0.027768  3.558235  -0.044  -0.277023  -0.023433  3.57082  -0.037  -0.316908  -0.24928  -0.031141  3.551838  -0.049
N  N68  1  0.64361306  0.77578330  0.03459469  1  -0.309122  -0.038694  3.285639  -0.065  -0.26491  -0.027816  3.569967  -0.043  -0.282141  -0.023536  3.582196  -0.036  -0.319273  -0.253287  -0.031383  3.563497  -0.048
O  O69  1  0.72461428  0.02716033  0.94738813  1  -0.924229  -0.138323  1.945511  -0.225  -0.920862  -0.104991  2.25966  -0.156  -0.983705  -0.080989  2.227181  -0.117  -0.578432  -0.865729  -0.127676  2.278184  -0.192
O  O70  1  0.27694781  0.97644605  0.05518136  1  -0.91743  0.027694  1.954684  0.042  -0.909695  0.020666  2.265862  0.03  -0.97605  0.015648  2.236207  0.022  -0.568956  -0.848421  0.02076  2.27924  0.029
O  O71  1  0.45242231  0.94229053  0.81228787  1  -0.603096  -0.027664  2.140004  -0.05  -0.559449  -0.023223  2.40899  -0.039  -0.587387  -0.018942  2.395778  -0.031  -0.289935  -0.538334  -0.028146  2.416431  -0.047
O  O72  1  0.54705923  0.05706665  0.18818887  1  -0.600191  -0.025111  2.125842  -0.044  -0.55585  -0.021046  2.390105  -0.033  -0.583318  -0.017445  2.377275  -0.027  -0.289004  -0.535098  -0.024886  2.39757  -0.04
O  O73  1  0.68013211  0.92143952  0.67170575  1  -0.654632  -0.033619  2.1121  -0.058  -0.605756  -0.028386  2.384433  -0.044  -0.643012  -0.02287  2.368189  -0.034  -0.318142  -0.575921  -0.033737  2.394766  -0.052
O  O74  1  0.31914270  0.07841211  0.32901425  1  -0.65668  0.03761  2.107483  0.061  -0.608059  0.030507  2.379792  0.045  -0.645505  0.024647  2.364174  0.036  -0.319596  -0.578021  0.036415  2.388945  0.054
O  O75  1  0.97142320  0.71051938  0.80665395  1  -0.63107  -0.047042  2.059162  -0.075  -0.593206  -0.03453  2.338098  -0.049  -0.635448  -0.026892  2.326905  -0.037  -0.328757  -0.559677  -0.041367  2.346346  -0.06
O  O76  1  0.02842653  0.29074337  0.19562387  1  -0.628823  0.050726  2.049079  0.079  -0.591729  0.035828  2.329422  0.05  -0.633624  0.02769  2.318392  0.037  -0.327243  -0.55782  0.043317  2.33606  0.061
O  O77  1  0.14753778  0.76488340  0.94218061  1  -0.615117  -0.007222  1.936191  -0.012  -0.570682  -0.010656  2.166898  -0.016  -0.593902  -0.008019  2.156352  -0.012  -0.30666  -0.55576  -0.013187  2.175367  -0.02
O  O78  1  0.85569140  0.23488334  0.05848392  1  -0.615085  0.010033  1.946325  0.016  -0.570177  0.011599  2.178398  0.018  -0.594014  0.008652  2.167861  0.014  -0.304311  -0.553974  0.014953  2.186536  0.023
