# generated using pymatgen
data_ZnH10C12(NO)4
_symmetry_space_group_name_H-M   'P 1'
_cell_length_a   17.21237327
_cell_length_b   17.21225761
_cell_length_c   17.21230322
_cell_angle_alpha   98.35167583
_cell_angle_beta   115.30131846
_cell_angle_gamma   115.30117305
_symmetry_Int_Tables_number   1
_chemical_formula_structural   ZnH10C12(NO)4
_chemical_formula_sum   'Zn8 H80 C96 N32 O32'
_cell_volume   3817.86775083
_cell_formula_units_Z   8
loop_
 _symmetry_equiv_pos_site_id
 _symmetry_equiv_pos_as_xyz
  1  'x, y, z'
loop_
 _atom_site_type_symbol
 _atom_site_label
 _atom_site_symmetry_multiplicity
 _atom_site_fract_x
 _atom_site_fract_y
 _atom_site_fract_z
 _atom_site_occupancy
 _atom_site_pbe_bader_charge
 _atom_site_pbe_bader_spin_density
 _atom_site_pbe_cm5_charge
 _atom_site_pbe_ddec_charge
 _atom_site_pbe_ddec_spin_density
 _atom_site_pbe_ddec_sum_bond_order
 _atom_site_pbe_magmom
Zn  Zn0  1  0.38342125  0.78599934  0.84642308  1  1.257502  0  0.697346  0.786351  0  2.388304  0
Zn  Zn1  1  0.06042540  0.84642317  0.96300296  1  1.257433  0  0.697349  0.786349  0  2.388254  0
Zn  Zn2  1  0.43957583  0.40257839  0.78600021  1  1.254116  0  0.69732  0.786276  0  2.388342  0
Zn  Zn3  1  0.11658051  0.96300464  0.40257819  1  1.258993  0  0.697362  0.786361  0  2.388303  0
Zn  Zn4  1  0.61657899  0.21400147  0.15357762  1  1.257433  0  0.697347  0.786337  0  2.388313  0
Zn  Zn5  1  0.93957526  0.15357735  0.03699672  1  1.257435  0  0.697363  0.786368  0  2.388256  0
Zn  Zn6  1  0.56042612  0.59742342  0.21400137  1  1.254117  0  0.697329  0.786257  0  2.388293  0
Zn  Zn7  1  0.88341951  0.03699524  0.59742170  1  1.258996  0  0.697343  0.786291  0  2.388287  0
H  H8  1  0.33066939  0.88677632  0.97144872  1  0.20298  0  0.139425  0.104985  0  1.025788  0
H  H9  1  0.08467367  0.97144806  0.14078152  1  0.198701  0  0.139438  0.105008  0  1.025779  0
H  H10  1  0.41532857  0.55610899  0.88677721  1  0.186015  0  0.13941  0.104975  0  1.025818  0
H  H11  1  0.16933363  0.14078174  0.55610946  1  0.186214  0  0.139429  0.105002  0  1.025785  0
H  H12  1  0.66933234  0.11322457  0.02855205  1  0.203015  0  0.139423  0.104988  0  1.025805  0
H  H13  1  0.91532635  0.02855182  0.85921896  1  0.198696  0  0.139427  0.105  0  1.025792  0
H  H14  1  0.58467379  0.44389254  0.11322451  1  0.185747  0  0.139426  0.104977  0  1.025778  0
H  H15  1  0.83066617  0.85921722  0.44389136  1  0.186193  0  0.139433  0.104998  0  1.025747  0
H  H16  1  0.22357236  0.81038897  0.68507821  1  0.093348  0  0.127136  0.124315  0  0.980803  0
H  H17  1  0.87468866  0.68507684  0.96150491  1  0.101489  0  0.127136  0.124292  0  0.980805  0
H  H18  1  0.62530880  0.58681470  0.81038877  1  0.090909  0  0.127125  0.124305  0  0.980845  0
H  H19  1  0.27642728  0.96150642  0.58681482  1  0.08976  0  0.127146  0.124312  0  0.980828  0
H  H20  1  0.77642637  0.18960963  0.31492153  1  0.093307  0  0.127146  0.12431  0  0.980836  0
H  H21  1  0.12531094  0.31492332  0.03849368  1  0.10108  0  0.127124  0.12431  0  0.980831  0
H  H22  1  0.37469124  0.41318731  0.18961086  1  0.090905  0  0.127152  0.12436  0  0.980781  0
H  H23  1  0.72357296  0.03849438  0.41318530  1  0.089796  0  0.127139  0.124306  0  0.980836  0
H  H24  1  0.09553576  0.88005068  0.63549192  1  0.102135  0  0.108004  0.107845  0  1.010348  0
H  H25  1  0.75543962  0.63549052  0.03995488  1  0.103137  0  0.107985  0.107816  0  1.010367  0
H  H26  1  0.74455826  0.78451542  0.88005125  1  0.089244  0  0.107999  0.107839  0  1.010298  0
H  H27  1  0.40446387  0.03995491  0.78451481  1  0.097278  0  0.107997  0.107839  0  1.01034  0
H  H28  1  0.90446426  0.11994920  0.36450913  1  0.102294  0  0.108001  0.107853  0  1.010321  0
H  H29  1  0.24455976  0.36450872  0.96004581  1  0.103154  0  0.107992  0.107825  0  1.010342  0
H  H30  1  0.25544156  0.21548567  0.11994757  1  0.089201  0  0.107983  0.107825  0  1.010314  0
H  H31  1  0.59553506  0.96004248  0.21548251  1  0.097239  0  0.107984  0.107814  0  1.010339  0
H  H32  1  0.11001315  0.98690320  0.80626279  1  0.057812  0  0.100583  0.121899  0  1.014894  0
H  H33  1  0.81935942  0.80626146  0.19624734  1  0.061646  0  0.100601  0.121913  0  1.014914  0
H  H34  1  0.68063876  0.87688846  0.98690303  1  0.056815  0  0.100589  0.121902  0  1.014898  0
H  H35  1  0.38998574  0.19624815  0.87688858  1  0.061045  0  0.100595  0.121897  0  1.01486  0
H  H36  1  0.88998731  0.01309853  0.19373815  1  0.056282  0  0.10059  0.121894  0  1.014892  0
H  H37  1  0.18064080  0.19373721  0.80375131  1  0.06164  0  0.100582  0.121885  0  1.014901  0
H  H38  1  0.31936190  0.12311206  0.01309723  1  0.056819  0  0.100595  0.121908  0  1.01489  0
H  H39  1  0.61001381  0.80374775  0.12311054  1  0.062493  0  0.100567  0.121894  0  1.014836  0
H  H40  1  0.53107732  0.99969077  0.88267543  1  0.225525  0  0.133908  0.109567  0  1.052229  0
H  H41  1  0.88298666  0.88267447  0.85159925  1  0.198984  0  0.133897  0.109514  0  1.052237  0
H  H42  1  0.61701348  0.46861281  0.99969029  1  0.190136  0  0.133905  0.109565  0  1.052221  0
H  H43  1  0.96892339  0.85160106  0.46861196  1  0.227138  0  0.133896  0.109552  0  1.052238  0
H  H44  1  0.46892312  0.00030883  0.11732519  1  0.225537  0  0.133902  0.109555  0  1.052231  0
H  H45  1  0.11701336  0.11732541  0.14840006  1  0.198978  0  0.133892  0.109517  0  1.052234  0
H  H46  1  0.38298718  0.53138772  0.00030997  1  0.190081  0  0.133905  0.109553  0  1.05225  0
H  H47  1  0.03107663  0.14839883  0.53138794  1  0.22713  0  0.133891  0.109538  0  1.052261  0
H  H48  1  0.46148089  0.74771507  0.71030106  1  0.094507  0  0.127017  0.129797  0  0.981293  0
H  H49  1  0.96258772  0.71030305  0.74881881  1  0.132792  0  0.126992  0.129761  0  0.981205  0
H  H50  1  0.53740995  0.28623023  0.74771478  1  0.147885  0  0.126994  0.129731  0  0.981273  0
H  H51  1  0.03851514  0.74882033  0.28623116  1  0.096126  0  0.126984  0.129753  0  0.981293  0
H  H52  1  0.53851765  0.25228473  0.28969878  1  0.094555  0  0.127005  0.129781  0  0.981302  0
H  H53  1  0.03741294  0.28969748  0.25118087  1  0.132797  0  0.126977  0.129724  0  0.981261  0
H  H54  1  0.46259006  0.71376965  0.25228511  1  0.147878  0  0.126984  0.129717  0  0.981288  0
H  H55  1  0.96148423  0.25117891  0.71376836  1  0.096476  0  0.127004  0.129789  0  0.981335  0
H  H56  1  0.61214635  0.82809790  0.66574317  1  0.104461  0  0.110306  0.116091  0  0.981779  0
H  H57  1  0.83764694  0.66574438  0.55359428  1  0.100852  0  0.110318  0.116131  0  0.981748  0
H  H58  1  0.66235302  0.21595001  0.82809695  1  0.100914  0  0.110293  0.116079  0  0.981771  0
H  H59  1  0.88785093  0.55359569  0.21594955  1  0.10173  0  0.110286  0.116075  0  0.98173  0
H  H60  1  0.38785325  0.17190226  0.33425717  1  0.104458  0  0.110305  0.116097  0  0.98177  0
H  H61  1  0.16235350  0.33425522  0.44640518  1  0.100871  0  0.110277  0.116054  0  0.981748  0
H  H62  1  0.33764658  0.78405016  0.17190339  1  0.100901  0  0.110285  0.116067  0  0.981776  0
H  H63  1  0.11214802  0.44640383  0.78405100  1  0.101698  0  0.110306  0.116092  0  0.981745  0
H  H64  1  0.72201029  0.04392179  0.74096791  1  0.124012  0  0.106877  0.138751  0  1.006675  0
H  H65  1  0.69704852  0.74096913  0.51895861  1  0.095854  0  0.106867  0.13874  0  1.006689  0
H  H66  1  0.80295438  0.32191249  0.04392074  1  0.114045  0  0.10684  0.138652  0  1.006677  0
H  H67  1  0.77799232  0.51896047  0.32191214  1  0.109249  0  0.106869  0.138734  0  1.006713  0
H  H68  1  0.27798931  0.95607838  0.25903185  1  0.12401  0  0.106857  0.138723  0  1.006656  0
H  H69  1  0.30295192  0.25903047  0.48104200  1  0.095845  0  0.10686  0.138719  0  1.006682  0
H  H70  1  0.19704606  0.67808711  0.95607988  1  0.114048  0  0.106838  0.138652  0  1.006703  0
H  H71  1  0.22200814  0.48104126  0.67808822  1  0.109282  0  0.106844  0.138697  0  1.006663  0
H  H72  1  0.20781227  0.93922273  0.90484357  1  0.561219  0  0.308508  0.289001  0  0.999208  0
H  H73  1  0.96562011  0.90484301  0.19703119  1  0.559806  0  0.30849  0.288974  0  0.999295  0
H  H74  1  0.53438053  0.73141238  0.93922300  1  0.567667  0  0.308484  0.288963  0  0.999216  0
H  H75  1  0.29218927  0.19703076  0.73141296  1  0.558386  0  0.308488  0.288983  0  0.999221  0
H  H76  1  0.79218753  0.06077623  0.09515726  1  0.561238  0  0.30851  0.289039  0  0.999202  0
H  H77  1  0.03437884  0.09515651  0.80296820  1  0.559803  0  0.308468  0.288958  0  0.999308  0
H  H78  1  0.46561887  0.26858898  0.06077626  1  0.567696  0  0.308491  0.288988  0  0.999194  0
H  H79  1  0.70781139  0.80296977  0.26858847  1  0.558406  0  0.308483  0.288973  0  0.999262  0
H  H80  1  0.66007442  0.04608001  0.83374045  1  0.56723  0  0.308001  0.295329  0  1.001181  0
H  H81  1  0.78766280  0.83374095  0.67366691  1  0.561622  0  0.308013  0.295363  0  1.001087  0
H  H82  1  0.71233743  0.38600472  0.04608001  1  0.566938  0  0.308002  0.295369  0  1.001173  0
H  H83  1  0.83992619  0.67366906  0.38600379  1  0.56244  0  0.308031  0.29539  0  1.00116  0
H  H84  1  0.33992559  0.95391987  0.16625945  1  0.56723  0  0.307998  0.29532  0  1.001199  0
H  H85  1  0.21233786  0.16625958  0.32633277  1  0.561442  0  0.308014  0.29536  0  1.001085  0
H  H86  1  0.28766258  0.61399516  0.95392047  1  0.566943  0  0.308009  0.295374  0  1.001153  0
H  H87  1  0.16007383  0.32633082  0.61399610  1  0.562428  0  0.308024  0.295385  0  1.001167  0
C  C88  1  0.28967298  0.87843485  0.89941705  1  1.000889  0  0.165971  0.196261  0  3.886722  0
C  C89  1  0.02098305  0.89941602  0.10974495  1  1.009532  0  0.165954  0.196244  0  3.88687  0
C  C90  1  0.47901796  0.58876236  0.87843485  1  1.021548  0  0.165972  0.196248  0  3.886804  0
C  C91  1  0.21032838  0.10974481  0.58876265  1  1.016292  0  0.165971  0.196228  0  3.886791  0
C  C92  1  0.71032639  0.12156439  0.10058364  1  1.000911  0  0.165974  0.196272  0  3.886808  0
C  C93  1  0.97901739  0.10058358  0.89025567  1  1.009529  0  0.165936  0.196231  0  3.886886  0
C  C94  1  0.52098376  0.41123852  0.12156592  1  1.021864  0  0.165935  0.196225  0  3.886748  0
C  C95  1  0.78967163  0.89025507  0.41123841  1  1.016296  0  0.165979  0.196274  0  3.886796  0
C  C96  1  0.23317831  0.83983828  0.75112845  1  0.437983  0  0.014888  -0.073042  0  3.92696  0
C  C97  1  0.91129123  0.75112702  0.01795042  1  0.412779  0  0.014873  -0.073032  0  3.926995  0
C  C98  1  0.58871022  0.60665856  0.83983984  1  0.43066  0  0.014908  -0.073027  0  3.92703  0
C  C99  1  0.26682304  0.01795141  0.60665820  1  0.430215  0  0.014812  -0.073108  0  3.927054  0
C  C100  1  0.76682087  0.16016217  0.24887291  1  0.437985  0  0.014873  -0.073075  0  3.926891  0
C  C101  1  0.08871069  0.24887266  0.98205026  1  0.413171  0  0.014868  -0.073107  0  3.927015  0
C  C102  1  0.41129385  0.39334398  0.16016333  1  0.430669  0  0.014767  -0.073269  0  3.926979  0
C  C103  1  0.73317569  0.98204719  0.39334096  1  0.430092  0  0.014781  -0.073184  0  3.927077  0
C  C104  1  0.18922723  0.88512212  0.77022411  1  0.36252  0  0.08048  0.139742  0  4.069588  0
C  C105  1  0.88510275  0.77022279  0.08099705  1  0.379106  0  0.080517  0.139789  0  4.069563  0
C  C106  1  0.61489671  0.69589475  0.88512095  1  0.37796  0  0.080438  0.139666  0  4.06966  0
C  C107  1  0.31077295  0.08099684  0.69589256  1  0.353884  0  0.080507  0.139769  0  4.069561  0
C  C108  1  0.81077279  0.11487776  0.22977694  1  0.362543  0  0.080497  0.139778  0  4.069549  0
C  C109  1  0.11489620  0.22977673  0.91900176  1  0.379212  0  0.080519  0.139813  0  4.069535  0
C  C110  1  0.38510291  0.30410754  0.11487854  1  0.378246  0  0.080508  0.139764  0  4.069648  0
C  C111  1  0.68922366  0.91900103  0.30410559  1  0.354045  0  0.080514  0.139809  0  4.069529  0
C  C112  1  0.12151153  0.90701931  0.70926236  1  -0.07268  0  -0.074748  -0.090743  0  4.056352  0
C  C113  1  0.80224243  0.70926163  0.08774911  1  -0.050696  0  -0.074748  -0.090732  0  4.056343  0
C  C114  1  0.69775506  0.78550701  0.90701898  1  0.013186  0  -0.074714  -0.090655  0  4.056368  0
C  C115  1  0.37848646  0.08774983  0.78550650  1  -0.052422  0  -0.074783  -0.090798  0  4.056475  0
C  C116  1  0.87848807  0.09298085  0.29073856  1  -0.072894  0  -0.074769  -0.09079  0  4.056359  0
C  C117  1  0.19775694  0.29073761  0.91224925  1  -0.050093  0  -0.074725  -0.09068  0  4.056293  0
C  C118  1  0.30224666  0.21449388  0.09298179  1  0.012955  0  -0.074734  -0.09067  0  4.056364  0
C  C119  1  0.62151311  0.91224821  0.21449061  1  -0.052328  0  -0.07472  -0.090666  0  4.056479  0
C  C120  1  0.08748337  0.95754946  0.73400678  1  0.013691  0  -0.113634  -0.255129  0  3.936242  0
C  C121  1  0.77645818  0.73400595  0.14652332  1  0.008962  0  -0.113648  -0.255114  0  3.936259  0
C  C122  1  0.72354025  0.87006500  0.95754785  1  -0.063415  0  -0.113602  -0.255111  0  3.936324  0
C  C123  1  0.41251640  0.14652143  0.87006254  1  0.012775  0  -0.113586  -0.25502  0  3.936337  0
C  C124  1  0.91251922  0.04245299  0.26599459  1  0.015259  0  -0.113638  -0.255104  0  3.936201  0
C  C125  1  0.22354204  0.26599273  0.85347764  1  0.008227  0  -0.113631  -0.255097  0  3.936316  0
C  C126  1  0.27646063  0.12993644  0.04245206  1  -0.063426  0  -0.113616  -0.255135  0  3.93634  0
C  C127  1  0.58748315  0.85347448  0.12993600  1  0.011245  0  -0.113597  -0.255127  0  3.936423  0
C  C128  1  0.01565826  0.97280746  0.66267494  1  1.530836  0  0.194811  0.612125  0  4.229677  0
C  C129  1  0.68986715  0.66267511  0.14701503  1  1.533027  0  0.194746  0.612015  0  4.229818  0
C  C130  1  0.81012906  0.95714740  0.97280646  1  1.52991  0  0.194798  0.612026  0  4.229614  0
C  C131  1  0.48433887  0.14701528  0.95714746  1  1.529985  0  0.194757  0.611991  0  4.229596  0
C  C132  1  0.98434175  0.02719242  0.33732496  1  1.530829  0  0.194841  0.612151  0  4.229649  0
C  C133  1  0.31013180  0.33732441  0.85298436  1  1.533038  0  0.194742  0.611986  0  4.229807  0
C  C134  1  0.18987160  0.04285312  0.02719380  1  1.529945  0  0.194781  0.612012  0  4.229597  0
C  C135  1  0.51566090  0.85298155  0.04285247  1  1.52965  0  0.194831  0.612128  0  4.2296  0
C  C136  1  0.53384964  0.95100644  0.83741890  1  0.961158  0  0.14637  0.150346  0  3.90934  0
C  C137  1  0.88641461  0.83741841  0.80357048  1  0.952331  0  0.146442  0.150504  0  3.909119  0
C  C138  1  0.61358493  0.41715589  0.95100541  1  0.959447  0  0.146429  0.150413  0  3.909215  0
C  C139  1  0.96614981  0.80357175  0.41715505  1  0.897605  0  0.146442  0.150446  0  3.909168  0
C  C140  1  0.46615144  0.04899380  0.16258209  1  0.961152  0  0.146384  0.15036  0  3.909328  0
C  C141  1  0.11358605  0.16258212  0.19642978  1  0.952332  0  0.146454  0.150484  0  3.909158  0
C  C142  1  0.38641531  0.58284492  0.04899413  1  0.959468  0  0.146427  0.150428  0  3.909282  0
C  C143  1  0.03385021  0.19642813  0.58284427  1  0.897595  0  0.146449  0.150483  0  3.909108  0
C  C144  1  0.49952789  0.82250344  0.74726413  1  0.41967  0  0.010158  -0.074709  0  3.931264  0
C  C145  1  0.92476101  0.74726484  0.74773518  1  0.366383  0  0.01017  -0.074666  0  3.93114  0
C  C146  1  0.57523916  0.32297534  0.82250485  1  0.371035  0  0.010158  -0.074685  0  3.931235  0
C  C147  1  0.00047039  0.74773582  0.32297514  1  0.404388  0  0.010157  -0.074727  0  3.931253  0
C  C148  1  0.50047107  0.17749609  0.25273526  1  0.419631  0  0.010144  -0.074736  0  3.931221  0
C  C149  1  0.07523836  0.25273440  0.25226434  1  0.366212  0  0.010162  -0.074677  0  3.93122  0
C  C150  1  0.42476150  0.67702518  0.17749600  1  0.371027  0  0.010182  -0.074643  0  3.931251  0
C  C151  1  0.99952834  0.25226278  0.67702461  1  0.404434  0  0.010158  -0.07471  0  3.931336  0
C  C152  1  0.57846273  0.89686508  0.74991609  1  0.342178  0  0.081383  0.146684  0  4.056257  0
C  C153  1  0.85305201  0.74991687  0.67145238  1  0.372637  0  0.081381  0.14664  0  4.056154  0
C  C154  1  0.64694675  0.31840112  0.89686535  1  0.346166  0  0.081407  0.146767  0  4.056203  0
C  C155  1  0.92153612  0.67145347  0.31840220  1  0.355089  0  0.081394  0.146735  0  4.056185  0
C  C156  1  0.42153623  0.10313444  0.25008330  1  0.341998  0  0.081398  0.1467  0  4.056217  0
C  C157  1  0.14694759  0.25008329  0.32854738  1  0.372199  0  0.081381  0.14664  0  4.056211  0
C  C158  1  0.35305221  0.68159841  0.10313462  1  0.34619  0  0.081374  0.14667  0  4.056293  0
C  C159  1  0.07846368  0.32854549  0.68159921  1  0.355173  0  0.081377  0.146695  0  4.056233  0
C  C160  1  0.63160830  0.89680534  0.70443994  1  -0.050523  0  -0.07546  -0.091826  0  4.032906  0
C  C161  1  0.80763672  0.70444150  0.57282922  1  -0.044566  0  -0.075476  -0.091831  0  4.032877  0
C  C162  1  0.69236373  0.26519587  0.89680458  1  -0.051864  0  -0.075451  -0.091848  0  4.032878  0
C  C163  1  0.86839053  0.57283160  0.26519587  1  -0.043134  0  -0.075447  -0.091819  0  4.032884  0
C  C164  1  0.36839172  0.10319454  0.29555996  1  -0.051252  0  -0.075464  -0.091847  0  4.032937  0
C  C165  1  0.19236500  0.29555939  0.42717039  1  -0.04425  0  -0.075436  -0.091793  0  4.032924  0
C  C166  1  0.30763523  0.73480365  0.10319597  1  -0.051877  0  -0.075433  -0.09181  0  4.032822  0
C  C167  1  0.13160842  0.42716792  0.73480410  1  -0.043402  0  -0.075453  -0.091819  0  4.03285  0
C  C168  1  0.70115891  0.97387555  0.70495138  1  -0.035335  0  -0.108261  -0.249325  0  3.92679  0
C  C169  1  0.73107743  0.70495365  0.50379111  1  -0.017895  0  -0.108251  -0.249379  0  3.92685  0
C  C170  1  0.76892389  0.27271593  0.97387525  1  -0.023453  0  -0.108188  -0.249168  0  3.926742  0
C  C171  1  0.79883909  0.50379259  0.27271553  1  -0.021473  0  -0.108237  -0.249313  0  3.926803  0
C  C172  1  0.29884004  0.02612397  0.29504801  1  -0.034427  0  -0.108249  -0.249315  0  3.926769  0
C  C173  1  0.26892194  0.29504559  0.49620842  1  -0.017808  0  -0.108247  -0.24931  0  3.92684  0
C  C174  1  0.23107548  0.72728331  0.02612486  1  -0.023454  0  -0.108191  -0.24918  0  3.926692  0
C  C175  1  0.20116009  0.49620785  0.72728525  1  -0.021579  0  -0.108253  -0.24934  0  3.92673  0
C  C176  1  0.75271806  0.96866466  0.65630450  1  1.520013  0  0.191476  0.610456  0  4.235631  0
C  C177  1  0.68763995  0.65630869  0.40358395  1  1.529138  0  0.191482  0.610563  0  4.235254  0
C  C178  1  0.81236251  0.21594856  0.96866564  1  1.53396  0  0.19138  0.610364  0  4.235646  0
C  C179  1  0.74728016  0.40358533  0.21594730  1  1.524752  0  0.191457  0.610478  0  4.235454  0
C  C180  1  0.24728195  0.03133522  0.34369598  1  1.52002  0  0.191492  0.610553  0  4.235431  0
C  C181  1  0.31236007  0.34369119  0.59641537  1  1.529142  0  0.191455  0.610516  0  4.235272  0
C  C182  1  0.18763751  0.78405132  0.03133542  1  1.533975  0  0.1914  0.610452  0  4.235497  0
C  C183  1  0.25271860  0.59641539  0.78405275  1  1.524908  0  0.19151  0.610567  0  4.235343  0
N  N184  1  0.29565585  0.83678263  0.83206265  1  -1.246145  0  -0.355432  -0.288218  0  3.613513  0
N  N185  1  0.99527948  0.83206117  0.03640653  1  -1.241907  0  -0.35542  -0.288185  0  3.613617  0
N  N186  1  0.50471961  0.54112621  0.83678243  1  -1.245534  0  -0.35545  -0.288214  0  3.613546  0
N  N187  1  0.20434588  0.03640810  0.54112667  1  -1.240685  0  -0.355399  -0.288177  0  3.613556  0
N  N188  1  0.70434288  0.16321597  0.16793767  1  -1.246158  0  -0.355417  -0.288145  0  3.613524  0
N  N189  1  0.00472012  0.16793900  0.96359265  1  -1.241867  0  -0.355392  -0.288149  0  3.613577  0
N  N190  1  0.49528169  0.45887495  0.16321762  1  -1.245672  0  -0.355319  -0.287989  0  3.613265  0
N  N191  1  0.79565478  0.96359242  0.45887301  1  -1.240687  0  -0.355376  -0.288096  0  3.6135  0
N  N192  1  0.22720068  0.90859954  0.86510806  1  -1.291714  0  -0.364841  -0.238313  0  3.596749  0
N  N193  1  0.95650984  0.86510722  0.13790871  1  -1.316108  0  -0.364853  -0.238362  0  3.596862  0
N  N194  1  0.54349106  0.68139960  0.90859891  1  -1.300441  0  -0.364796  -0.238229  0  3.59663  0
N  N195  1  0.27280200  0.13790906  0.68139991  1  -1.290739  0  -0.36485  -0.238301  0  3.596741  0
N  N196  1  0.77279998  0.09140099  0.13489337  1  -1.2917  0  -0.364841  -0.238385  0  3.596811  0
N  N197  1  0.04349018  0.13489267  0.86209118  1  -1.316121  0  -0.364856  -0.238384  0  3.596871  0
N  N198  1  0.45650918  0.31860121  0.09140180  1  -1.300409  0  -0.364845  -0.238327  0  3.596777  0
N  N199  1  0.72719738  0.86209018  0.31860020  1  -1.290746  0  -0.364846  -0.238356  0  3.596774  0
N  N200  1  0.47254053  0.85710606  0.80151272  1  -1.262546  0  -0.363114  -0.303401  0  3.602235  0
N  N201  1  0.94440864  0.80151225  0.82897174  1  -1.227446  0  -0.363134  -0.30343  0  3.602193  0
N  N202  1  0.55559057  0.38456293  0.85710589  1  -1.234777  0  -0.363104  -0.30333  0  3.602311  0
N  N203  1  0.02745747  0.82897309  0.38456225  1  -1.219971  0  -0.363125  -0.303377  0  3.602253  0
N  N204  1  0.52745906  0.14289410  0.19848762  1  -1.262468  0  -0.363085  -0.303347  0  3.602205  0
N  N205  1  0.05559180  0.19848735  0.17102772  1  -1.227272  0  -0.363116  -0.303406  0  3.602208  0
N  N206  1  0.44441009  0.61543759  0.14289437  1  -1.234753  0  -0.363121  -0.303369  0  3.602325  0
N  N207  1  0.97254148  0.17102643  0.61543714  1  -1.220037  0  -0.363121  -0.303395  0  3.602221  0
N  N208  1  0.59791171  0.97712013  0.80756621  1  -1.283714  0  -0.365566  -0.238061  0  3.592877  0
N  N209  1  0.83044886  0.80756690  0.70965526  1  -1.291455  0  -0.365574  -0.238124  0  3.592735  0
N  N210  1  0.66955254  0.37920760  0.97711999  1  -1.282984  0  -0.365598  -0.238224  0  3.592789  0
N  N211  1  0.90208833  0.70965699  0.37920694  1  -1.263557  0  -0.365623  -0.238207  0  3.59283  0
N  N212  1  0.40208831  0.02287975  0.19243368  1  -1.283719  0  -0.365562  -0.238039  0  3.592877  0
N  N213  1  0.16955180  0.19243362  0.29034443  1  -1.29128  0  -0.365554  -0.238053  0  3.592681  0
N  N214  1  0.33044770  0.62079321  0.02288071  1  -1.282965  0  -0.365565  -0.238145  0  3.592927  0
N  N215  1  0.09791191  0.29034382  0.62079319  1  -1.263644  0  -0.365612  -0.2382  0  3.592801  0
O  O216  1  0.98889992  0.02418025  0.69505181  1  -1.184799  0  -0.332942  -0.576499  0  2.363994  0
O  O217  1  0.67087008  0.69505228  0.20614879  1  -1.182831  0  -0.332933  -0.576482  0  2.364081  0
O  O218  1  0.82913020  0.03528073  0.02418059  1  -1.183645  0  -0.332951  -0.576505  0  2.364043  0
O  O219  1  0.51109768  0.20614749  0.03527988  1  -1.181414  0  -0.332909  -0.576486  0  2.364114  0
O  O220  1  0.01110116  0.97581999  0.30494859  1  -1.184806  0  -0.332983  -0.576556  0  2.364021  0
O  O221  1  0.32913080  0.30494917  0.79385170  1  -1.182797  0  -0.332908  -0.576476  0  2.364175  0
O  O222  1  0.17087110  0.96472043  0.97582062  1  -1.183654  0  -0.332929  -0.576501  0  2.36409  0
O  O223  1  0.48890189  0.79385054  0.96471898  1  -1.181248  0  -0.332971  -0.576542  0  2.364053  0
O  O224  1  0.98239845  0.93885792  0.57771027  1  -1.18689  0  -0.318427  -0.554599  0  2.168917  0
O  O225  1  0.63885169  0.57771065  0.09530708  1  -1.196984  0  -0.318385  -0.554544  0  2.168885  0
O  O226  1  0.86114408  0.95645688  0.93885207  1  -1.188355  0  -0.318471  -0.554594  0  2.16867  0
O  O227  1  0.51760059  0.09530679  0.95645698  1  -1.190696  0  -0.318406  -0.554534  0  2.168525  0
O  O228  1  0.01760221  0.06114260  0.42228999  1  -1.186887  0  -0.318435  -0.554607  0  2.168891  0
O  O229  1  0.36115068  0.42229088  0.90469464  1  -1.196993  0  -0.318409  -0.554543  0  2.16873  0
O  O230  1  0.13885786  0.04354493  0.06114951  1  -1.188342  0  -0.318457  -0.554556  0  2.168616  0
O  O231  1  0.48239854  0.90468940  0.04354316  1  -1.190555  0  -0.31845  -0.554627  0  2.16873  0
O  O232  1  0.80682299  0.04691141  0.65283496  1  -1.163534  0  -0.345013  -0.554792  0  2.248783  0
O  O233  1  0.60592170  0.65283608  0.34601097  1  -1.163605  0  -0.344992  -0.554816  0  2.248679  0
O  O234  1  0.89407783  0.24008943  0.04691151  1  -1.165258  0  -0.345006  -0.554799  0  2.248753  0
O  O235  1  0.69317728  0.34601084  0.24009041  1  -1.167714  0  -0.345018  -0.55484  0  2.248745  0
O  O236  1  0.19317639  0.95308783  0.34716515  1  -1.163558  0  -0.345016  -0.554826  0  2.248667  0
O  O237  1  0.39407854  0.34716472  0.65398915  1  -1.163585  0  -0.34497  -0.55479  0  2.248664  0
O  O238  1  0.10592219  0.75991045  0.95308839  1  -1.16524  0  -0.344991  -0.554825  0  2.248689  0
O  O239  1  0.30682274  0.65398904  0.75991006  1  -1.167969  0  -0.344996  -0.554822  0  2.248689  0
O  O240  1  0.74472026  0.89346885  0.62149397  1  -1.200521  0  -0.335192  -0.59084  0  2.185888  0
O  O241  1  0.72802639  0.62150101  0.37676931  1  -1.204968  0  -0.33522  -0.590887  0  2.18573  0
O  O242  1  0.77197527  0.14874828  0.89346941  1  -1.20819  0  -0.335148  -0.590798  0  2.185883  0
O  O243  1  0.75527015  0.37677037  0.14874472  1  -1.201257  0  -0.335206  -0.590844  0  2.185859  0
O  O244  1  0.25527763  0.10653031  0.37850492  1  -1.200516  0  -0.335217  -0.590916  0  2.185861  0
O  O245  1  0.27197320  0.37849916  0.62323103  1  -1.204949  0  -0.335218  -0.590883  0  2.185721  0
O  O246  1  0.22802539  0.85125224  0.10653144  1  -1.208212  0  -0.335174  -0.590843  0  2.185849  0
O  O247  1  0.24472861  0.62323036  0.85125534  1  -1.201084  0  -0.335261  -0.590914  0  2.185807  0
