# generated using pymatgen
data_CuSiH20C14SN2Cl2O
_symmetry_space_group_name_H-M   'P 1'
_cell_length_a   11.72265937
_cell_length_b   11.72259917
_cell_length_c   15.19521373
_cell_angle_alpha   89.99927743
_cell_angle_beta   90.00042151
_cell_angle_gamma   89.99973368
_symmetry_Int_Tables_number   1
_chemical_formula_structural   CuSiH20C14SN2Cl2O
_chemical_formula_sum   'Cu4 Si4 H80 C56 S4 N8 Cl8 O4'
_cell_volume   2088.12683155
_cell_formula_units_Z   4
loop_
 _symmetry_equiv_pos_site_id
 _symmetry_equiv_pos_as_xyz
  1  'x, y, z'
loop_
 _atom_site_type_symbol
 _atom_site_label
 _atom_site_symmetry_multiplicity
 _atom_site_fract_x
 _atom_site_fract_y
 _atom_site_fract_z
 _atom_site_occupancy
 _atom_site_pbe_bader_charge
 _atom_site_pbe_bader_spin_density
 _atom_site_pbe_cm5_charge
 _atom_site_pbe_ddec_charge
 _atom_site_pbe_ddec_spin_density
 _atom_site_pbe_ddec_sum_bond_order
 _atom_site_pbe_magmom
Cu  Cu0  1  0.95296356  0.32434017  0.46177217  1  0.943474  0.516553  0.606265  0.648412  0.68396  2.397201  0.518
Cu  Cu1  1  0.04704101  0.67566044  0.96177404  1  0.943383  0.516558  0.60627  0.648456  0.683965  2.397078  0.518
Cu  Cu2  1  0.67565250  0.95296130  0.71177403  1  0.94328  0.516557  0.606301  0.648448  0.683959  2.397056  0.518
Cu  Cu3  1  0.32434540  0.04703486  0.21177000  1  0.943322  0.516555  0.606282  0.648446  0.683963  2.397133  0.518
Si  Si4  1  0.80393485  0.84068290  0.30693628  1  2.687882  0.000476  0.13792  0.862332  0.000464  3.780372  0.001
Si  Si5  1  0.19606226  0.15931853  0.80694466  1  2.687883  0.000476  0.137915  0.86234  0.000464  3.780297  0.001
Si  Si6  1  0.15931449  0.80392344  0.55694889  1  2.687966  0.000476  0.138032  0.862718  0.000464  3.780103  0.001
Si  Si7  1  0.84068022  0.19607611  0.05693842  1  2.688133  0.000476  0.137928  0.862431  0.000464  3.780342  0.001
H  H8  1  0.90165505  0.42110605  0.29193847  1  0.134492  0.002237  0.112549  0.089323  0.001069  1.033203  0.001
H  H9  1  0.09834704  0.57889477  0.79194421  1  0.134258  0.002237  0.112554  0.089302  0.001069  1.033264  0.001
H  H10  1  0.57888792  0.90165433  0.54194356  1  0.134409  0.002239  0.11252  0.0893  0.00107  1.033059  0.001
H  H11  1  0.42110920  0.09833864  0.04193760  1  0.13445  0.002239  0.112505  0.089249  0.00107  1.033146  0.001
H  H12  1  0.84727074  0.60688974  0.22658592  1  0.083859  0.002927  0.094368  0.111886  0.00228  1.047083  0.001
H  H13  1  0.15272987  0.39311215  0.72659310  1  0.084009  0.002926  0.094346  0.111796  0.00228  1.04711  0.001
H  H14  1  0.39310566  0.84726292  0.47659377  1  0.084021  0.002927  0.094338  0.111825  0.00228  1.047052  0.001
H  H15  1  0.60689052  0.15272891  0.97658677  1  0.083922  0.002927  0.094368  0.111868  0.00228  1.047099  0.001
H  H16  1  0.82943531  0.74093553  0.49248342  1  0.116836  0.002079  0.093223  0.102889  0.001496  1.068386  0.001
H  H17  1  0.17057041  0.25906457  0.99249135  1  0.11755  0.002078  0.093235  0.10288  0.001496  1.068432  0.001
H  H18  1  0.25906316  0.82943480  0.74249300  1  0.117509  0.002079  0.093242  0.102905  0.001496  1.068387  0.001
H  H19  1  0.74093333  0.17057706  0.24248617  1  0.117614  0.002078  0.093234  0.102938  0.001496  1.068386  0.001
H  H20  1  0.89474114  0.55142578  0.54465029  1  0.086308  0.002354  0.10801  0.085852  0.001069  1.033852  0.001
H  H21  1  0.10526795  0.44857482  0.04465626  1  0.086185  0.002355  0.108031  0.08586  0.001069  1.033841  0.001
H  H22  1  0.44856975  0.89474880  0.79465438  1  0.086212  0.002352  0.108044  0.085816  0.001068  1.034062  0.001
H  H23  1  0.55142895  0.10526392  0.29465040  1  0.086283  0.002352  0.108054  0.085884  0.001068  1.034042  0.001
H  H24  1  0.63250639  0.90683096  0.38497189  1  0.07508  0.000685  0.087823  0.17773  0.000648  1.029938  0.0
H  H25  1  0.36749744  0.09316663  0.88497267  1  0.075031  0.000685  0.087842  0.177723  0.000649  1.029934  0.0
H  H26  1  0.09316048  0.63248913  0.63498069  1  0.074855  0.000686  0.087895  0.177865  0.000649  1.029757  0.0
H  H27  1  0.90683498  0.36750146  0.13497551  1  0.074986  0.000685  0.087856  0.177794  0.000649  1.02989  0.0
H  H28  1  0.73218288  0.02016823  0.37461071  1  0.054585  0.000474  0.086249  0.172494  0.000471  1.05328  0.0
H  H29  1  0.26781999  0.97983038  0.87461482  1  0.054574  0.000474  0.086279  0.172538  0.000471  1.053233  0.0
H  H30  1  0.97982846  0.73216983  0.62461694  1  0.054516  0.000473  0.086301  0.17254  0.000471  1.053215  0.0
H  H31  1  0.02016690  0.26782008  0.12461102  1  0.054621  0.000473  0.086283  0.17255  0.000471  1.05321  0.0
H  H32  1  0.75375565  0.91485306  0.45601364  1  0.059631  3e-06  0.090611  0.173381  -6.2e-05  1.04198  0.0
H  H33  1  0.24625483  0.08514081  0.95601974  1  0.059575  3e-06  0.090577  0.173378  -6.2e-05  1.042002  0.0
H  H34  1  0.08513591  0.75373386  0.70602416  1  0.05936  3e-06  0.090677  0.173523  -6.2e-05  1.041849  0.0
H  H35  1  0.91485767  0.24625130  0.20601691  1  0.059603  3e-06  0.090602  0.173379  -6.2e-05  1.041977  0.0
H  H36  1  0.64235086  0.78969026  0.20930072  1  0.044481  -9e-06  0.083158  0.15232  -7e-06  1.058151  0.0
H  H37  1  0.35764702  0.21032129  0.70931676  1  0.044339  -9e-06  0.083097  0.15224  -7e-06  1.058281  0.0
H  H38  1  0.21031818  0.64234135  0.45931776  1  0.044358  -9e-06  0.083066  0.152168  -7e-06  1.058231  0.0
H  H39  1  0.78967869  0.35766953  0.95931506  1  0.044254  -9e-06  0.0831  0.152225  -7e-06  1.058186  0.0
H  H40  1  0.77608650  0.77090021  0.15360997  1  0.055742  1e-06  0.083985  0.167579  -4e-05  1.049024  0.0
H  H41  1  0.22391511  0.22911567  0.65361849  1  0.055887  0.0  0.084032  0.16758  -4e-05  1.049082  0.0
H  H42  1  0.22911112  0.77607832  0.40362529  1  0.05572  0.0  0.084056  0.167627  -4e-05  1.04907  0.0
H  H43  1  0.77088266  0.22393944  0.90361588  1  0.055641  0.0  0.08405  0.167622  -4e-05  1.049114  0.0
H  H44  1  0.71768397  0.90966297  0.16818082  1  0.016691  -1e-06  0.086932  0.165605  -2.4e-05  1.046298  0.0
H  H45  1  0.28231778  0.09035012  0.66818971  1  0.017017  -1e-06  0.086943  0.165572  -2.4e-05  1.046335  0.0
H  H46  1  0.09034673  0.71767339  0.41819095  1  0.016912  -1e-06  0.086923  0.165549  -2.4e-05  1.046302  0.0
H  H47  1  0.90964633  0.28233902  0.91818571  1  0.016921  -1e-06  0.086976  0.165577  -2.4e-05  1.046275  0.0
H  H48  1  0.02337635  0.74367524  0.23527251  1  0.085661  0.001236  0.100426  0.099372  0.000584  1.032389  0.001
H  H49  1  0.97661069  0.25632309  0.73529093  1  0.085544  0.001236  0.10045  0.099422  0.000584  1.032237  0.001
H  H50  1  0.25631954  0.02336482  0.48529026  1  0.085681  0.001236  0.100408  0.099413  0.000584  1.032241  0.001
H  H51  1  0.74367757  0.97662601  0.98527207  1  0.085709  0.001236  0.100422  0.099362  0.000584  1.032404  0.001
H  H52  1  0.21364683  0.82826635  0.20596538  1  0.110172  0.002528  0.109646  0.077756  0.001218  1.037239  0.002
H  H53  1  0.78634163  0.17172991  0.70598158  1  0.11031  0.002529  0.109686  0.077845  0.001218  1.037219  0.002
H  H54  1  0.17173065  0.21363962  0.45597987  1  0.110535  0.002528  0.109669  0.07784  0.001218  1.03724  0.002
H  H55  1  0.82827301  0.78635340  0.95597717  1  0.110259  0.002529  0.109674  0.077818  0.001219  1.03714  0.002
H  H56  1  0.10663381  0.14965110  0.28337762  1  0.154434  0.002292  0.110073  0.092147  0.000996  1.043609  0.002
H  H57  1  0.89337160  0.85033877  0.78337861  1  0.154388  0.002292  0.110019  0.092118  0.000996  1.043671  0.002
H  H58  1  0.85034435  0.10662871  0.53338694  1  0.154316  0.002292  0.110028  0.092047  0.000997  1.043737  0.002
H  H59  1  0.14965611  0.89338231  0.03337764  1  0.154471  0.002291  0.110019  0.092074  0.000996  1.043698  0.002
H  H60  1  0.91589339  0.07813744  0.32492491  1  0.109417  0.001084  0.095668  0.101338  0.000454  1.058647  0.001
H  H61  1  0.08411072  0.92185517  0.82492328  1  0.109315  0.001084  0.09569  0.101354  0.000454  1.058701  0.001
H  H62  1  0.92185204  0.91588645  0.57493445  1  0.109049  0.001084  0.095759  0.101525  0.000454  1.058689  0.001
H  H63  1  0.07813858  0.08412304  0.07491682  1  0.109247  0.001084  0.095684  0.101346  0.000454  1.058734  0.001
H  H64  1  0.32258585  0.33093787  0.40847858  1  0.063999  4.8e-05  0.099861  0.151964  2.3e-05  1.010447  0.0
H  H65  1  0.67742333  0.66906190  0.90847617  1  0.06408  4.8e-05  0.099845  0.15199  2.3e-05  1.010493  0.0
H  H66  1  0.66905794  0.32257851  0.65847345  1  0.064151  4.8e-05  0.099855  0.152013  2.3e-05  1.01046  0.0
H  H67  1  0.33094201  0.67741767  0.15847320  1  0.064136  4.8e-05  0.099839  0.152001  2.3e-05  1.010488  0.0
H  H68  1  0.37670863  0.43678945  0.33415416  1  0.062893  -1.4e-05  0.107052  0.166538  -2e-06  0.970027  0.0
H  H69  1  0.62329727  0.56321494  0.83415313  1  0.062979  -1.4e-05  0.107076  0.166536  -2e-06  0.970107  0.0
H  H70  1  0.56320946  0.37670644  0.58414949  1  0.062867  -1.4e-05  0.107083  0.166526  -2e-06  0.970028  0.0
H  H71  1  0.43679148  0.62329181  0.08415167  1  0.062842  -1.4e-05  0.107073  0.166526  -2e-06  0.97003  0.0
H  H72  1  0.31812731  0.30480044  0.29091470  1  0.144537  -0.000281  0.096161  0.161195  -0.000453  1.033846  0.0
H  H73  1  0.68187818  0.69520381  0.79091272  1  0.144434  -0.000281  0.096126  0.161164  -0.000453  1.033962  0.0
H  H74  1  0.69519565  0.31812307  0.54090955  1  0.14447  -0.000281  0.096158  0.161166  -0.000453  1.033934  0.0
H  H75  1  0.30480488  0.68187675  0.04090977  1  0.144484  -0.000281  0.096163  0.161165  -0.000453  1.033956  0.0
H  H76  1  0.09164711  0.51672987  0.21285425  1  0.10762  9.8e-05  0.09665  0.161095  6.8e-05  1.018242  0.0
H  H77  1  0.90835933  0.48327396  0.71285494  1  0.107606  9.8e-05  0.096668  0.161153  6.8e-05  1.018298  0.0
H  H78  1  0.48326010  0.09163859  0.46285851  1  0.107509  9.9e-05  0.096569  0.161039  6.8e-05  1.018263  0.0
H  H79  1  0.51674021  0.90835944  0.96285813  1  0.10753  9.9e-05  0.096575  0.161057  6.8e-05  1.018269  0.0
H  H80  1  0.19259874  0.40450985  0.18635397  1  0.127359  0.001287  0.09352  0.170538  0.001301  1.028685  0.0
H  H81  1  0.80740830  0.59549440  0.68635169  1  0.127323  0.001287  0.093489  0.170563  0.001301  1.028681  0.0
H  H82  1  0.59547745  0.19259227  0.43635130  1  0.127092  0.001287  0.093466  0.170452  0.001301  1.02872  0.0
H  H83  1  0.40452346  0.80740705  0.93635061  1  0.127172  0.001288  0.09346  0.170439  0.001301  1.028714  0.0
H  H84  1  0.24199694  0.54318773  0.22254838  1  0.045356  7e-06  0.098447  0.151732  -1.6e-05  1.005558  0.0
H  H85  1  0.75801045  0.45681593  0.72254717  1  0.045502  7e-06  0.098455  0.151753  -1.6e-05  1.00551  0.0
H  H86  1  0.45679908  0.24199004  0.47254957  1  0.045337  7e-06  0.098428  0.151754  -1.6e-05  1.005581  0.0
H  H87  1  0.54320047  0.75800783  0.97255080  1  0.045322  7e-06  0.098444  0.151754  -1.6e-05  1.005554  0.0
C  C88  1  0.88617736  0.49519938  0.33331886  1  0.395353  -0.000738  0.037408  0.082639  -0.000606  3.933783  0.0
C  C89  1  0.11382513  0.50480673  0.83332540  1  0.395321  -0.000736  0.037375  0.082577  -0.000607  3.93335  0.0
C  C90  1  0.50479149  0.88617466  0.58332751  1  0.394892  -0.000735  0.037505  0.082647  -0.000605  3.933734  0.0
C  C91  1  0.49520688  0.11382190  0.08332116  1  0.395529  -0.000737  0.037453  0.082711  -0.000605  3.933925  0.0
C  C92  1  0.85422259  0.59983354  0.29803413  1  -0.013018  0.008364  -0.0824  -0.11132  0.005917  3.96591  0.007
C  C93  1  0.14578041  0.40016548  0.79803857  1  -0.01289  0.008366  -0.082463  -0.111267  0.005918  3.965655  0.007
C  C94  1  0.40016411  0.85421555  0.54804323  1  -0.012498  0.008365  -0.082486  -0.11133  0.005917  3.966122  0.007
C  C95  1  0.59983221  0.14577902  0.04803716  1  -0.013073  0.008365  -0.082372  -0.111323  0.005917  3.96614  0.007
C  C96  1  0.83423400  0.69363485  0.35348529  1  -0.577119  -0.003428  -0.037525  -0.176728  -0.003379  3.913127  -0.002
C  C97  1  0.16576612  0.30636752  0.85349207  1  -0.577186  -0.003427  -0.037346  -0.176526  -0.003378  3.913289  -0.002
C  C98  1  0.30636489  0.83422828  0.60349539  1  -0.577344  -0.003427  -0.037438  -0.17673  -0.003378  3.913334  -0.002
C  C99  1  0.69363112  0.16577306  0.10348637  1  -0.577135  -0.003427  -0.037511  -0.176652  -0.003378  3.913105  -0.002
C  C100  1  0.84623432  0.67420495  0.44411724  1  -0.103052  0.007844  -0.079635  -0.105446  0.00556  3.963027  0.006
C  C101  1  0.15377094  0.32579253  0.94412443  1  -0.104183  0.007847  -0.079688  -0.105513  0.005561  3.963147  0.006
C  C102  1  0.32579092  0.84623081  0.69412590  1  -0.103938  0.007845  -0.07972  -0.105517  0.00556  3.963142  0.006
C  C103  1  0.67420851  0.15377588  0.19412017  1  -0.104163  0.007846  -0.079683  -0.105535  0.00556  3.962874  0.006
C  C104  1  0.88033704  0.56766425  0.47496573  1  0.537284  -0.000994  0.044013  0.093446  -0.000716  3.911287  -0.001
C  C105  1  0.11967106  0.43233699  0.97497103  1  0.537547  -0.000994  0.044026  0.09347  -0.000715  3.911413  -0.001
C  C106  1  0.43233252  0.88033964  0.72497720  1  0.537017  -0.000994  0.044029  0.093537  -0.000716  3.911313  -0.001
C  C107  1  0.56766380  0.11966740  0.22497186  1  0.537551  -0.000995  0.044015  0.093448  -0.000717  3.911249  -0.001
C  C108  1  0.72362476  0.92861428  0.38839746  1  -0.832615  0.001387  -0.296377  -0.719825  0.000848  3.80022  0.001
C  C109  1  0.27637910  0.07138240  0.88840123  1  -0.832643  0.001387  -0.296407  -0.719854  0.000848  3.800212  0.001
C  C110  1  0.07138024  0.72360802  0.63840758  1  -0.832274  0.001387  -0.296628  -0.720278  0.000849  3.800004  0.001
C  C111  1  0.92861525  0.27638166  0.13839946  1  -0.832712  0.001387  -0.296471  -0.720001  0.000849  3.800129  0.001
C  C112  1  0.72794905  0.82564122  0.19919366  1  -0.766936  -0.000186  -0.298215  -0.72107  -0.000229  3.854385  0.0
C  C113  1  0.27204873  0.17437050  0.69920364  1  -0.767151  -0.000186  -0.298283  -0.721029  -0.000229  3.854667  0.0
C  C114  1  0.17436619  0.72794028  0.44920748  1  -0.766889  -0.000186  -0.298192  -0.720968  -0.000229  3.854466  0.0
C  C115  1  0.82562887  0.27206905  0.94920121  1  -0.766844  -0.000186  -0.298203  -0.720963  -0.000229  3.854579  0.0
C  C116  1  0.95057623  0.90284046  0.28405813  1  -0.571957  -0.004042  -0.036098  -0.172745  -0.003851  3.897953  -0.003
C  C117  1  0.04942151  0.09715452  0.78406695  1  -0.572011  -0.004042  -0.036029  -0.172732  -0.003851  3.897904  -0.003
C  C118  1  0.09714981  0.95056446  0.53407238  1  -0.571811  -0.004043  -0.036186  -0.172973  -0.003851  3.898106  -0.003
C  C119  1  0.90284211  0.04943546  0.03405579  1  -0.572235  -0.004043  -0.036114  -0.172896  -0.003851  3.897882  -0.003
C  C120  1  0.03752573  0.83380784  0.24941933  1  -0.079257  0.006492  -0.077362  -0.103117  0.004421  3.980049  0.005
C  C121  1  0.96246571  0.16618600  0.74943328  1  -0.078792  0.006491  -0.077358  -0.103021  0.00442  3.979794  0.005
C  C122  1  0.16618218  0.03751622  0.49943387  1  -0.079326  0.006492  -0.077315  -0.103066  0.004421  3.979892  0.005
C  C123  1  0.83381166  0.96247780  0.99942093  1  -0.079882  0.006494  -0.077351  -0.103053  0.004421  3.980009  0.005
C  C124  1  0.14418052  0.87971564  0.23169935  1  0.489703  -0.000941  0.04278  0.092631  -0.000599  3.936637  0.0
C  C125  1  0.85581416  0.12027849  0.73171315  1  0.489655  -0.000941  0.042576  0.092151  -0.000599  3.936952  0.0
C  C126  1  0.12027929  0.14417114  0.48171317  1  0.489726  -0.000942  0.042721  0.092448  -0.000599  3.937114  0.0
C  C127  1  0.87972376  0.85582572  0.98170547  1  0.490683  -0.000944  0.042655  0.092459  -0.0006  3.936995  0.0
C  C128  1  0.08556795  0.05952956  0.27578811  1  0.391677  -0.001058  0.045656  0.089176  -0.001133  3.900022  -0.001
C  C129  1  0.91443398  0.94046043  0.77579229  1  0.391478  -0.001056  0.045654  0.089107  -0.001132  3.90049  -0.001
C  C130  1  0.94046384  0.08556157  0.52579872  1  0.392805  -0.001054  0.045771  0.089514  -0.001133  3.900523  -0.001
C  C131  1  0.05953568  0.91444702  0.02578806  1  0.393227  -0.001056  0.045715  0.089355  -0.001132  3.900388  -0.001
C  C132  1  0.97759867  0.01809367  0.29745883  1  -0.011685  0.006554  -0.076718  -0.096946  0.004685  3.942871  0.005
C  C133  1  0.02240261  0.98189853  0.79746285  1  -0.011812  0.006554  -0.076756  -0.096942  0.004685  3.943185  0.005
C  C134  1  0.98189701  0.97759128  0.54747106  1  -0.011469  0.006554  -0.076929  -0.097293  0.004685  3.943413  0.005
C  C135  1  0.01809590  0.02241525  0.04745567  1  -0.011821  0.006554  -0.076769  -0.096983  0.004685  3.943148  0.005
C  C136  1  0.31267131  0.36943928  0.34318807  1  -0.254448  4.5e-05  -0.233779  -0.495083  -5.1e-05  3.824381  0.0
C  C137  1  0.68733468  0.63056241  0.84318543  1  -0.254528  4.5e-05  -0.233762  -0.49508  -5.1e-05  3.824612  0.0
C  C138  1  0.63055785  0.31266922  0.59318309  1  -0.254514  4.5e-05  -0.233792  -0.495053  -5.1e-05  3.824435  0.0
C  C139  1  0.36944318  0.68732888  0.09318428  1  -0.254426  4.5e-05  -0.233781  -0.495062  -5.1e-05  3.824416  0.0
C  C140  1  0.17467878  0.47855798  0.22848393  1  -0.250868  0.002321  -0.237529  -0.493893  0.001518  3.805223  0.002
C  C141  1  0.82532781  0.52144559  0.72848181  1  -0.250992  0.002321  -0.237521  -0.494001  0.001518  3.805279  0.002
C  C142  1  0.52143221  0.17467286  0.47848616  1  -0.250564  0.002321  -0.237365  -0.493743  0.001517  3.805277  0.002
C  C143  1  0.47856825  0.82532576  0.97848571  1  -0.250656  0.002321  -0.237392  -0.493786  0.001517  3.805261  0.002
S  S144  1  0.17140287  0.43140028  0.34135324  1  1.219041  0.000211  0.281635  0.648354  5.1e-05  4.043138  0.0
S  S145  1  0.82860395  0.56860058  0.84135200  1  1.219237  0.000211  0.281708  0.648431  5.1e-05  4.043187  0.0
S  S146  1  0.56859271  0.17139866  0.59135211  1  1.219045  0.000211  0.281622  0.648264  5.1e-05  4.043168  0.0
S  S147  1  0.43140660  0.82859862  0.09135095  1  1.218959  0.000211  0.281656  0.648342  5.1e-05  4.042993  0.0
N  N148  1  0.90102257  0.47966880  0.42050038  1  -1.216463  0.09099  -0.348062  -0.216928  0.062173  3.644567  0.079
N  N149  1  0.09898331  0.52032991  0.92050668  1  -1.215946  0.090993  -0.348061  -0.216904  0.062177  3.644409  0.079
N  N150  1  0.52032760  0.90102130  0.67050361  1  -1.21573  0.090984  -0.3481  -0.216931  0.062169  3.644467  0.079
N  N151  1  0.47967161  0.09897725  0.17049864  1  -1.216366  0.090992  -0.348102  -0.216983  0.062174  3.644635  0.079
N  N152  1  0.16779697  0.99099627  0.24375926  1  -1.212027  0.096327  -0.347916  -0.20782  0.065758  3.630303  0.084
N  N153  1  0.83220124  0.00899596  0.74376808  1  -1.211941  0.096326  -0.347791  -0.207511  0.065757  3.630647  0.084
N  N154  1  0.00899823  0.16779064  0.49377048  1  -1.213316  0.096325  -0.347851  -0.207821  0.065759  3.630893  0.084
N  N155  1  0.99100323  0.83221029  0.99376562  1  -1.213616  0.09632  -0.347856  -0.207842  0.065755  3.630774  0.084
Cl  Cl156  1  0.06226585  0.40049765  0.57288586  1  -0.636242  0.127506  -0.336856  -0.553952  0.081904  1.156208  0.099
Cl  Cl157  1  0.93773072  0.59949908  0.07288057  1  -0.636224  0.127501  -0.336865  -0.553971  0.081902  1.156238  0.099
Cl  Cl158  1  0.59950259  0.06226390  0.82289011  1  -0.636229  0.127499  -0.336861  -0.553974  0.081899  1.156214  0.099
Cl  Cl159  1  0.40049553  0.93774239  0.32289364  1  -0.636247  0.127496  -0.336872  -0.553962  0.081897  1.156185  0.099
Cl  Cl160  1  0.79671387  0.24812166  0.39172899  1  -0.625439  0.12484  -0.29264  -0.515912  0.080591  1.267258  0.097
Cl  Cl161  1  0.20329003  0.75187668  0.89172903  1  -0.62547  0.124837  -0.292623  -0.515907  0.080589  1.267296  0.097
Cl  Cl162  1  0.75187073  0.79671222  0.64172597  1  -0.625475  0.124845  -0.292633  -0.515913  0.080594  1.267257  0.097
Cl  Cl163  1  0.24812991  0.20328936  0.14172592  1  -0.625457  0.124841  -0.292642  -0.515902  0.080591  1.267295  0.097
O  O164  1  0.09015876  0.33072056  0.34443803  1  -1.252438  0.002442  -0.348968  -0.558924  0.001639  2.237804  0.003
O  O165  1  0.90984724  0.66927941  0.84443626  1  -1.252541  0.002439  -0.349026  -0.559011  0.001637  2.237921  0.003
O  O166  1  0.66927314  0.09015447  0.59443797  1  -1.252322  0.002443  -0.34896  -0.558896  0.00164  2.237901  0.003
O  O167  1  0.33072705  0.90984361  0.09443414  1  -1.252247  0.002445  -0.348973  -0.558897  0.001641  2.237688  0.003
