# generated using pymatgen
data_KH10C14S2NO8
_symmetry_space_group_name_H-M   'P 1'
_cell_length_a   7.21673693
_cell_length_b   11.32342764
_cell_length_c   19.25800000
_cell_angle_alpha   90.00000000
_cell_angle_beta   95.48152320
_cell_angle_gamma   90.00000000
_symmetry_Int_Tables_number   1
_chemical_formula_structural   KH10C14S2NO8
_chemical_formula_sum   'K4 H40 C56 S8 N4 O32'
_cell_volume   1566.53248894
_cell_formula_units_Z   4
loop_
 _symmetry_equiv_pos_site_id
 _symmetry_equiv_pos_as_xyz
  1  'x, y, z'
loop_
 _atom_site_type_symbol
 _atom_site_label
 _atom_site_symmetry_multiplicity
 _atom_site_fract_x
 _atom_site_fract_y
 _atom_site_fract_z
 _atom_site_occupancy
 _atom_site_hle17_bader_spin_density
 _atom_site_hle17_ddec_charge
 _atom_site_hle17_ddec_spin_density
 _atom_site_hle17_ddec_sum_bond_order
 _atom_site_hle17_magmom
 _atom_site_hse06_10hf_bader_spin_density
 _atom_site_hse06_10hf_ddec_charge
 _atom_site_hse06_10hf_ddec_spin_density
 _atom_site_hse06_10hf_ddec_sum_bond_order
 _atom_site_hse06_10hf_magmom
 _atom_site_hse06_bader_spin_density
 _atom_site_hse06_ddec_charge
 _atom_site_hse06_ddec_spin_density
 _atom_site_hse06_ddec_sum_bond_order
 _atom_site_hse06_magmom
 _atom_site_pbe_bader_charge
 _atom_site_pbe_bader_spin_density
 _atom_site_pbe_cm5_charge
 _atom_site_pbe_ddec_charge
 _atom_site_pbe_ddec_spin_density
 _atom_site_pbe_ddec_sum_bond_order
 _atom_site_pbe_magmom
K  K0  1  0.32448718  0.64132701  0.48612286  1  0  0.949605  0  0.473988  0  0  0.914269  0  0.653001  0  0  0.926262  0  0.632368  0  0.893737  0  0.860773  0.904967  0  0.668039  0
K  K1  1  0.82449030  0.85867109  0.48612393  1  0  0.949604  0  0.473984  0  0  0.914292  0  0.652965  0  0  0.926253  0  0.632376  0  0.893753  0  0.860779  0.904989  0  0.668003  0
K  K2  1  0.67550513  0.35866702  0.51387515  1  0  0.949612  0  0.47397  0  0  0.914277  0  0.652974  0  0  0.926247  0  0.63238  0  0.893745  0  0.860769  0.904975  0  0.66801  0
K  K3  1  0.17549088  0.14133176  0.51387368  1  0  0.949613  0  0.473961  0  0  0.914279  0  0.652967  0  0  0.92623  0  0.63241  0  0.893725  0  0.860754  0.904975  0  0.668008  0
H  H4  1  0.15883102  0.23000633  0.69614781  1  0  0.111726  0  0.953736  0  0  0.121107  0  1.014039  0  0  0.124013  0  1.013579  0  0.131147  0  0.11284  0.118994  0  1.014493  0
H  H5  1  0.65882857  0.26999245  0.69614712  1  0  0.111631  0  0.953838  0  0  0.121018  0  1.014123  0  0  0.123928  0  1.013666  0  0.131139  0  0.112793  0.118904  0  1.01458  0
H  H6  1  0.84117104  0.76999476  0.30385367  1  0  0.111702  0  0.953731  0  0  0.121089  0  1.014012  0  0  0.123999  0  1.013554  0  0.131117  0  0.11286  0.118977  0  1.014465  0
H  H7  1  0.34116931  0.73000687  0.30385317  1  0  0.111674  0  0.953817  0  0  0.121074  0  1.014094  0  0  0.12398  0  1.013635  0  0.131131  0  0.112826  0.118961  0  1.014549  0
H  H8  1  0.31362515  0.21178040  0.81810292  1  0  0.096872  0  0.968253  0  0  0.105451  0  1.03342  0  0  0.107643  0  1.032806  0  0.096758  0  0.105686  0.103874  0  1.033921  0
H  H9  1  0.81361991  0.28821927  0.81810265  1  0  0.096863  0  0.968278  0  0  0.105442  0  1.033442  0  0  0.107635  0  1.032827  0  0.096748  0  0.105683  0.103864  0  1.033943  0
H  H10  1  0.68637831  0.78821893  0.18189757  1  0  0.096876  0  0.968284  0  0  0.105456  0  1.033441  0  0  0.107647  0  1.032826  0  0.096765  0  0.105689  0.103879  0  1.03394  0
H  H11  1  0.18637797  0.71178094  0.18189712  1  0  0.096878  0  0.968255  0  0  0.105456  0  1.033423  0  0  0.107649  0  1.032808  0  0.096757  0  0.105692  0.103879  0  1.033924  0
H  H12  1  0.58027334  0.54688123  0.79718751  1  0  0.101264  0  0.966706  0  0  0.109068  0  1.033323  0  0  0.111881  0  1.032301  0  0.117999  0  0.106681  0.107068  0  1.034098  0
H  H13  1  0.08027440  0.95312218  0.79718815  1  0  0.101286  0  0.966669  0  0  0.109095  0  1.033271  0  0  0.111909  0  1.032248  0  0.117812  0  0.106699  0.107095  0  1.034046  0
H  H14  1  0.41972594  0.45312251  0.20281335  1  0  0.101294  0  0.966699  0  0  0.109103  0  1.033296  0  0  0.111917  0  1.032274  0  0.11782  0  0.106709  0.107103  0  1.034072  0
H  H15  1  0.91972488  0.04687803  0.20281219  1  0  0.101324  0  0.966707  0  0  0.109131  0  1.0333  0  0  0.111944  0  1.032279  0  0.117798  0  0.10672  0.10713  0  1.034076  0
H  H16  1  0.43430192  0.56397411  0.67427136  1  0  0.119649  0  0.937919  0  0  0.127801  0  0.999599  0  0  0.131542  0  0.997105  0  0.120922  0  0.11758  0.125073  0  1.001551  0
H  H17  1  0.93430504  0.93602753  0.67427191  1  0  0.11964  0  0.937911  0  0  0.127792  0  0.999602  0  0  0.131532  0  0.997108  0  0.12071  0  0.117571  0.125064  0  1.001554  0
H  H18  1  0.56569457  0.43602698  0.32572888  1  0  0.119628  0  0.937886  0  0  0.127781  0  0.999581  0  0  0.131522  0  0.997085  0  0.120695  0  0.117572  0.125052  0  1.001533  0
H  H19  1  0.06569424  0.06397268  0.32572843  1  0  0.119641  0  0.937892  0  0  0.127787  0  0.999593  0  0  0.131527  0  0.997099  0  0.120703  0  0.117576  0.125059  0  1.001545  0
H  H20  1  0.88199660  0.44895240  0.74230700  1  0  0.102671  0  0.963384  0  0  0.111664  0  1.027684  0  0  0.114391  0  1.027173  0  0.109532  0  0.105516  0.109696  0  1.028155  0
H  H21  1  0.38199766  0.05104726  0.74230608  1  0  0.102656  0  0.963337  0  0  0.111658  0  1.027629  0  0  0.114387  0  1.027114  0  0.109536  0  0.105494  0.109689  0  1.028101  0
H  H22  1  0.11800407  0.55104869  0.25769339  1  0  0.102726  0  0.96339  0  0  0.111719  0  1.027669  0  0  0.114447  0  1.027156  0  0.109503  0  0.10553  0.109752  0  1.02814  0
H  H23  1  0.61800441  0.94895383  0.25769384  1  0  0.102748  0  0.963363  0  0  0.111755  0  1.02763  0  0  0.114485  0  1.027113  0  0.109517  0  0.105537  0.109788  0  1.028101  0
H  H24  1  0.01014653  0.45965675  0.86806339  1  0  0.114032  0  0.945553  0  0  0.119187  0  1.012518  0  0  0.122937  0  1.009691  0  0.132955  0  0.109868  0.11647  0  1.01463  0
H  H25  1  0.51014547  0.04034291  0.86806172  1  0  0.113904  0  0.945594  0  0  0.119107  0  1.012517  0  0  0.12286  0  1.009692  0  0.133005  0  0.109833  0.116394  0  1.014633  0
H  H26  1  0.98985692  0.54034522  0.13193710  1  0  0.114087  0  0.945541  0  0  0.119259  0  1.012479  0  0  0.123011  0  1.009651  0  0.132955  0  0.109892  0.116542  0  1.014593  0
H  H27  1  0.48985937  0.95965553  0.13193830  1  0  0.114048  0  0.94555  0  0  0.119246  0  1.012463  0  0  0.123001  0  1.009637  0  0.132856  0  0.10989  0.116532  0  1.014579  0
H  H28  1  0.27154397  0.79089126  0.82895037  1  0  0.102015  0  0.968477  0  0  0.108276  0  1.036456  0  0  0.110985  0  1.035727  0  0.104477  0  0.105223  0.106325  0  1.037056  0
H  H29  1  0.77154152  0.70910772  0.82895072  1  0  0.102034  0  0.968467  0  0  0.108298  0  1.036431  0  0  0.111009  0  1.035702  0  0.104475  0  0.105227  0.106344  0  1.03704  0
H  H30  1  0.72845948  0.20910894  0.17104752  1  0  0.102084  0  0.968456  0  0  0.108345  0  1.036423  0  0  0.111056  0  1.035694  0  0.104421  0  0.105245  0.106395  0  1.037022  0
H  H31  1  0.22845915  0.29089248  0.17104811  1  0  0.102033  0  0.968438  0  0  0.108256  0  1.036453  0  0  0.110973  0  1.035717  0  0.104448  0  0.105244  0.106308  0  1.037043  0
H  H32  1  0.14581829  0.77880305  0.70235506  1  0  0.108666  0  0.958047  0  0  0.116474  0  1.022145  0  0  0.119851  0  1.020271  0  0.089004  0  0.109762  0.113997  0  1.02363  0
H  H33  1  0.64581863  0.72119417  0.70235500  1  0  0.108666  0  0.957999  0  0  0.116475  0  1.022088  0  0  0.119853  0  1.020214  0  0.089059  0  0.109746  0.113997  0  1.023573  0
H  H34  1  0.85418099  0.22119627  0.29764372  1  0  0.10867  0  0.95797  0  0  0.11648  0  1.022073  0  0  0.119858  0  1.020199  0  0.089095  0  0.109763  0.114003  0  1.023557  0
H  H35  1  0.35418622  0.27880516  0.29764346  1  0  0.108627  0  0.957994  0  0  0.116434  0  1.022108  0  0  0.119812  0  1.020234  0  0.089124  0  0.109745  0.113958  0  1.023591  0
H  H36  1  0.57846369  0.28169297  0.97301587  1  0  0.404779  0  0.881525  0  0  0.372256  0  0.961716  0  0  0.385778  0  0.947172  0  0.667762  0  0.304994  0.36279  0  0.971661  0
H  H37  1  0.07846614  0.21830757  0.97301551  1  0  0.40473  0  0.881579  0  0  0.372195  0  0.961795  0  0  0.385718  0  0.947257  0  0.66843  0  0.304974  0.362727  0  0.971738  0
H  H38  1  0.42153697  0.71830724  0.02698452  1  0  0.404801  0  0.881506  0  0  0.372225  0  0.961792  0  0  0.385749  0  0.947226  0  0.667765  0  0.304966  0.36276  0  0.971737  0
H  H39  1  0.92153592  0.78169175  0.02698440  1  0  0.404747  0  0.881555  0  0  0.372212  0  0.96177  0  0  0.385735  0  0.947235  0  0.667761  0  0.304978  0.362746  0  0.971716  0
H  H40  1  0.26149349  0.54137759  0.01577877  1  0  0.403089  0  0.894566  0  0  0.372394  0  0.968585  0  0  0.385531  0  0.950152  0  0.657545  0  0.306271  0.363184  0  0.980863  0
H  H41  1  0.76149104  0.95862139  0.01577757  1  0  0.403129  0  0.894449  0  0  0.372432  0  0.968518  0  0  0.385568  0  0.950086  0  0.657536  0  0.306279  0.363222  0  0.980751  0
H  H42  1  0.73850857  0.45862438  0.98422166  1  0  0.40309  0  0.894566  0  0  0.372397  0  0.968588  0  0  0.385535  0  0.950155  0  0.657524  0  0.306269  0.363187  0  0.980871  0
H  H43  1  0.23850963  0.04137705  0.98422230  1  0  0.403097  0  0.894522  0  0  0.372391  0  0.968585  0  0  0.385527  0  0.950153  0  0.657533  0  0.306253  0.363181  0  0.980837  0
C  C44  1  0.28821497  0.39801376  0.67924337  1  0  -0.096759  0  3.708092  0  0  -0.070298  0  3.947607  0  0  -0.074704  0  3.967343  0  -0.192888  0  -0.005115  -0.06749  0  3.934514  0
C  C45  1  0.78821391  0.10198590  0.67924325  1  0  -0.096833  0  3.708145  0  0  -0.070417  0  3.947699  0  0  -0.074824  0  3.967437  0  -0.192802  0  -0.00519  -0.067607  0  3.934606  0
C  C46  1  0.71178570  0.60198733  0.32075754  1  0  -0.096753  0  3.708038  0  0  -0.070375  0  3.94765  0  0  -0.07478  0  3.967385  0  -0.192915  0  -0.005203  -0.067567  0  3.934557  0
C  C47  1  0.21178398  0.89801430  0.32075704  1  0  -0.096684  0  3.708018  0  0  -0.070227  0  3.947517  0  0  -0.07463  0  3.967252  0  -0.1928  0  -0.005099  -0.067418  0  3.934424  0
C  C48  1  0.25320115  0.29802283  0.71847342  1  0  -0.06556  0  3.719695  0  0  -0.089035  0  3.970715  0  0  -0.089548  0  3.989858  0  0.042748  0  -0.076472  -0.088683  0  3.957898  0
C  C49  1  0.75319731  0.20197683  0.71847372  1  0  -0.065423  0  3.7197  0  0  -0.088846  0  3.970653  0  0  -0.089367  0  3.989804  0  0.042731  0  -0.076387  -0.088494  0  3.957837  0
C  C50  1  0.74680091  0.70197737  0.28152754  1  0  -0.065548  0  3.719668  0  0  -0.088969  0  3.970639  0  0  -0.089488  0  3.989783  0  0.042732  0  -0.076449  -0.088616  0  3.957822  0
C  C51  1  0.24680058  0.79802161  0.28152657  1  0  -0.065554  0  3.719611  0  0  -0.089032  0  3.970615  0  0  -0.089547  0  3.989757  0  0.042749  0  -0.076453  -0.088681  0  3.9578  0
C  C52  1  0.33817505  0.28848597  0.78629090  1  0  -0.056935  0  3.712003  0  0  -0.083095  0  3.965798  0  0  -0.083881  0  3.98762  0  -0.081494  0  -0.07668  -0.082449  0  3.950998  0
C  C53  1  0.83816982  0.21151369  0.78629115  1  0  -0.056966  0  3.711966  0  0  -0.083131  0  3.96576  0  0  -0.083918  0  3.987582  0  -0.080928  0  -0.076667  -0.082481  0  3.95096  0
C  C54  1  0.66182701  0.71151424  0.21371006  1  0  -0.056958  0  3.711987  0  0  -0.083115  0  3.965778  0  0  -0.083911  0  3.987626  0  -0.081436  0  -0.076672  -0.082462  0  3.950978  0
C  C55  1  0.16182668  0.78848652  0.21370909  1  0  -0.056953  0  3.711964  0  0  -0.083114  0  3.965773  0  0  -0.0839  0  3.987596  0  -0.081445  0  -0.0767  -0.082466  0  3.950973  0
C  C56  1  0.45417877  0.37880579  0.81464069  1  0  -0.080942  0  3.7744  0  0  -0.059381  0  4.009086  0  0  -0.067731  0  4.03314  0  -0.059526  0  -0.015272  -0.053866  0  3.992865  0
C  C57  1  0.95417632  0.12119475  0.81464052  1  0  -0.080858  0  3.774312  0  0  -0.059342  0  4.009054  0  0  -0.067689  0  4.033105  0  -0.059994  0  -0.015279  -0.053838  0  3.992847  0
C  C58  1  0.54582329  0.62119530  0.18535975  1  0  -0.080816  0  3.774201  0  0  -0.059313  0  4.008946  0  0  -0.067663  0  4.032993  0  -0.059477  0  -0.015278  -0.053816  0  3.992749  0
C  C59  1  0.04582157  0.87880457  0.18535924  1  0  -0.080937  0  3.774379  0  0  -0.059411  0  4.009108  0  0  -0.06776  0  4.033158  0  -0.05959  0  -0.015285  -0.053902  0  3.992894  0
C  C60  1  0.48991644  0.47763188  0.77406258  1  0  -0.054788  0  3.703073  0  0  -0.079309  0  3.952664  0  0  -0.080224  0  3.974007  0  -0.008464  0  -0.073643  -0.078574  0  3.938239  0
C  C61  1  0.98991678  0.02236955  0.77406303  1  0  -0.054845  0  3.703045  0  0  -0.079354  0  3.952649  0  0  -0.080269  0  3.973991  0  -0.008356  0  -0.073664  -0.078615  0  3.938225  0
C  C62  1  0.51008423  0.52236833  0.22593781  1  0  -0.054834  0  3.702937  0  0  -0.079338  0  3.952541  0  0  -0.080252  0  3.973881  0  -0.008325  0  -0.073644  -0.078598  0  3.938118  0
C  C63  1  0.01008250  0.97763154  0.22593679  1  0  -0.054834  0  3.703015  0  0  -0.079333  0  3.952594  0  0  -0.080246  0  3.973934  0  -0.008238  0  -0.07366  -0.078596  0  3.93817  0
C  C64  1  0.40851033  0.48728443  0.70606333  1  0  -0.052216  0  3.709925  0  0  -0.074398  0  3.958463  0  0  -0.074541  0  3.977135  0  -0.012945  0  -0.07035  -0.074338  0  3.946018  0
C  C65  1  0.90851066  0.01271700  0.70606275  1  0  -0.052164  0  3.709882  0  0  -0.074343  0  3.958428  0  0  -0.074486  0  3.977101  0  -0.012809  0  -0.070317  -0.074283  0  3.945981  0
C  C66  1  0.59149174  0.51271754  0.29393815  1  0  -0.052162  0  3.709742  0  0  -0.074338  0  3.958311  0  0  -0.07448  0  3.976978  0  -0.012802  0  -0.070319  -0.074277  0  3.945863  0
C  C67  1  0.09149001  0.98728321  0.29393764  1  0  -0.052178  0  3.709887  0  0  -0.074364  0  3.958418  0  0  -0.074506  0  3.977087  0  -0.012814  0  -0.070326  -0.074303  0  3.945968  0
C  C68  1  0.54272463  0.37401308  0.88746141  1  0  0.654591  0  3.811418  0  0  0.600724  0  4.11545  0  0  0.635078  0  4.105512  0  1.515618  0  0.239494  0.577407  0  4.121678  0
C  C69  1  0.04272429  0.12598747  0.88746148  1  0  0.654579  0  3.811364  0  0  0.600727  0  4.11538  0  0  0.635077  0  4.105446  0  1.515625  0  0.239496  0.577413  0  4.121605  0
C  C70  1  0.45727604  0.62598537  0.11253898  1  0  0.654569  0  3.811301  0  0  0.600724  0  4.115315  0  0  0.635084  0  4.10537  0  1.51561  0  0.239516  0.577412  0  4.121542  0
C  C71  1  0.95727359  0.87401450  0.11253881  1  0  0.654597  0  3.811337  0  0  0.600723  0  4.115371  0  0  0.635074  0  4.105437  0  1.515614  0  0.239518  0.577409  0  4.121597  0
C  C72  1  0.00786081  0.61324364  0.71622542  1  0  -0.110732  0  3.741074  0  0  -0.083305  0  3.978027  0  0  -0.088507  0  4.000479  0  -0.126794  0  -0.012783  -0.079903  0  3.963041  0
C  C73  1  0.50786115  0.88675358  0.71622431  1  0  -0.110814  0  3.741021  0  0  -0.08343  0  3.978029  0  0  -0.088634  0  4.000483  0  -0.126822  0  -0.01284  -0.080024  0  3.963036  0
C  C74  1  0.99213846  0.38675480  0.28377440  1  0  -0.110711  0  3.740941  0  0  -0.08328  0  3.97786  0  0  -0.088479  0  4.000308  0  -0.126795  0  -0.012765  -0.079881  0  3.962879  0
C  C75  1  0.49213952  0.11324575  0.28377504  1  0  -0.110752  0  3.741035  0  0  -0.083345  0  3.978032  0  0  -0.088548  0  4.000483  0  -0.126803  0  -0.012785  -0.079945  0  3.96305  0
C  C76  1  0.96736027  0.52309779  0.76193716  1  0  -0.081384  0  3.754406  0  0  -0.102836  0  4.003748  0  0  -0.104832  0  4.025691  0  -0.067635  0  -0.084477  -0.101468  0  3.988983  0
C  C77  1  0.46735993  0.97690120  0.76193619  1  0  -0.081356  0  3.754359  0  0  -0.102804  0  4.003711  0  0  -0.1048  0  4.025654  0  -0.067622  0  -0.084422  -0.101435  0  3.988946  0
C  C78  1  0.03264179  0.47690418  0.23806275  1  0  -0.081501  0  3.754478  0  0  -0.102934  0  4.003805  0  0  -0.104932  0  4.025746  0  -0.067657  0  -0.084513  -0.101566  0  3.989042  0
C  C79  1  0.53264213  0.02309725  0.23806425  1  0  -0.081556  0  3.754511  0  0  -0.10302  0  4.003879  0  0  -0.105018  0  4.025819  0  -0.067658  0  -0.084527  -0.101652  0  3.989116  0
C  C80  1  0.03853010  0.52928585  0.83161708  1  0  -0.047097  0  3.683876  0  0  -0.073571  0  3.939018  0  0  -0.073211  0  3.957925  0  0.019617  0  -0.073041  -0.073648  0  3.926154  0
C  C81  1  0.53852765  0.97071226  0.83161588  1  0  -0.046981  0  3.683908  0  0  -0.073498  0  3.939039  0  0  -0.073147  0  3.957963  0  0.019605  0  -0.073025  -0.073584  0  3.926182  0
C  C82  1  0.96147336  0.47071524  0.16838341  1  0  -0.047097  0  3.683973  0  0  -0.073598  0  3.939118  0  0  -0.073243  0  3.958028  0  0.019591  0  -0.073043  -0.073678  0  3.926256  0
C  C83  1  0.46147163  0.02928354  0.16838446  1  0  -0.047  0  3.68376  0  0  -0.073511  0  3.938914  0  0  -0.073162  0  3.957836  0  0.019749  0  -0.072991  -0.073595  0  3.926057  0
C  C84  1  0.14884597  0.62583347  0.85529240  1  0  -0.064432  0  3.742221  0  0  -0.046024  0  3.979118  0  0  -0.053427  0  4.000842  0  -0.074888  0  -0.009966  -0.041168  0  3.964437  0
C  C85  1  0.64884352  0.87416640  0.85529223  1  0  -0.064415  0  3.742221  0  0  -0.04601  0  3.979118  0  0  -0.053414  0  4.000842  0  -0.074857  0  -0.010011  -0.041153  0  3.964438  0
C  C86  1  0.85115610  0.37416851  0.14470700  1  0  -0.064368  0  3.742154  0  0  -0.045965  0  3.979033  0  0  -0.053362  0  4.000759  0  -0.074896  0  -0.00989  -0.041109  0  3.964355  0
C  C87  1  0.35115159  0.12583204  0.14470692  1  0  -0.064336  0  3.74203  0  0  -0.045965  0  3.978934  0  0  -0.053369  0  4.000659  0  -0.07481  0  -0.009916  -0.041108  0  3.964256  0
C  C88  1  0.18572093  0.71679268  0.80922794  1  0  -0.055844  0  3.697613  0  0  -0.080111  0  3.947783  0  0  -0.080346  0  3.968485  0  0.020388  0  -0.073606  -0.07981  0  3.933735  0
C  C89  1  0.68571988  0.78320631  0.80922731  1  0  -0.055871  0  3.697673  0  0  -0.080134  0  3.947823  0  0  -0.080374  0  3.968529  0  0.020347  0  -0.073541  -0.079834  0  3.933772  0
C  C90  1  0.81428252  0.28320842  0.19077150  1  0  -0.056163  0  3.697751  0  0  -0.080423  0  3.947934  0  0  -0.080664  0  3.968639  0  0.020467  0  -0.073746  -0.080121  0  3.933886  0
C  C91  1  0.31428079  0.21678948  0.19077256  1  0  -0.055946  0  3.697672  0  0  -0.08017  0  3.947863  0  0  -0.080416  0  3.968566  0  0.020331  0  -0.073645  -0.07987  0  3.933823  0
C  C92  1  0.11606497  0.71044213  0.73942479  1  0  -0.063991  0  3.718798  0  0  -0.085637  0  3.96842  0  0  -0.087465  0  3.989639  0  -0.064827  0  -0.079344  -0.084392  0  3.95417  0
C  C93  1  0.61606530  0.78955686  0.73942524  1  0  -0.063941  0  3.718751  0  0  -0.085557  0  3.968358  0  0  -0.087385  0  3.989579  0  -0.06491  0  -0.079349  -0.084313  0  3.954108  0
C  C94  1  0.88393570  0.28955808  0.26057352  1  0  -0.063853  0  3.718733  0  0  -0.085498  0  3.968341  0  0  -0.087327  0  3.989561  0  -0.064858  0  -0.079303  -0.084253  0  3.954093  0
C  C95  1  0.38392980  0.21044246  0.26057235  1  0  -0.063936  0  3.718704  0  0  -0.085568  0  3.968305  0  0  -0.087396  0  3.989529  0  -0.064905  0  -0.079409  -0.084323  0  3.954056  0
C  C96  1  0.23161210  0.63041159  0.92897902  1  0  0.666275  0  3.795079  0  0  0.614994  0  4.09369  0  0  0.649357  0  4.084014  0  1.529763  0  0.242122  0.591672  0  4.099739  0
C  C97  1  0.73160965  0.86958740  0.92897834  1  0  0.666297  0  3.795013  0  0  0.615025  0  4.093617  0  0  0.649389  0  4.083939  0  1.529659  0  0.242127  0.591702  0  4.099665  0
C  C98  1  0.76838718  0.36958862  0.07102131  1  0  0.666432  0  3.794944  0  0  0.61518  0  4.093506  0  0  0.649531  0  4.083842  0  1.529756  0  0.242185  0.591858  0  4.099557  0
C  C99  1  0.26838684  0.13041104  0.07102190  1  0  0.666394  0  3.794996  0  0  0.615174  0  4.093509  0  0  0.649541  0  4.083823  0  1.529726  0  0.242185  0.59185  0  4.099561  0
S  S100  1  0.17412251  0.41693383  0.59384443  1  0  1.247631  0  5.527374  0  0  1.164662  0  6.036446  0  0  1.209522  0  6.018491  0  2.950083  0  0.525909  1.133762  0  6.047755  0
S  S101  1  0.67412284  0.08306672  0.59384437  1  0  1.247637  0  5.527325  0  0  1.16468  0  6.036397  0  0  1.209538  0  6.018446  0  2.950089  0  0.525929  1.133779  0  6.047707  0
S  S102  1  0.82587677  0.58306550  0.40615591  1  0  1.247704  0  5.527243  0  0  1.164766  0  6.036305  0  0  1.209623  0  6.018353  0  2.950054  0  0.52593  1.133865  0  6.047617  0
S  S103  1  0.32587643  0.91693437  0.40615545  1  0  1.247605  0  5.527324  0  0  1.164648  0  6.036391  0  0  1.209502  0  6.018444  0  2.95011  0  0.525891  1.133748  0  6.0477  0
S  S104  1  0.92828310  0.60050810  0.62607784  1  0  1.260663  0  5.489437  0  0  1.177589  0  5.997971  0  0  1.222932  0  5.979064  0  2.984153  0  0.557241  1.146315  0  6.010137  0
S  S105  1  0.42828277  0.89949089  0.62607635  1  0  1.260645  0  5.489631  0  0  1.177589  0  5.998165  0  0  1.222933  0  5.979258  0  2.983879  0  0.557219  1.146312  0  6.010331  0
S  S106  1  0.07171617  0.39949211  0.37392198  1  0  1.260579  0  5.489415  0  0  1.177514  0  5.997943  0  0  1.222855  0  5.979034  0  2.984071  0  0.557188  1.14624  0  6.010109  0
S  S107  1  0.57171651  0.10051020  0.37392295  1  0  1.260585  0  5.4896  0  0  1.177529  0  5.998125  0  0  1.222873  0  5.979213  0  2.983939  0  0.557193  1.146255  0  6.010289  0
N  N108  1  0.10126348  0.54933808  0.58874279  1  0  -0.795771  0  2.961357  0  0  -0.748889  0  3.28463  0  0  -0.773004  0  3.279821  0  -1.584134  0  -0.477269  -0.731904  0  3.287148  0
N  N109  1  0.60126520  0.95066179  0.58874226  1  0  -0.795737  0  2.961258  0  0  -0.748873  0  3.284551  0  0  -0.772968  0  3.279711  0  -1.583843  0  -0.477289  -0.731885  0  3.287068  0
N  N110  1  0.89873719  0.45066213  0.41125811  1  0  -0.795789  0  2.961323  0  0  -0.748903  0  3.284569  0  0  -0.773021  0  3.279777  0  -1.584016  0  -0.477285  -0.731917  0  3.287088  0
N  N111  1  0.39873407  0.04933842  0.41125704  1  0  -0.795734  0  2.96126  0  0  -0.748852  0  3.284513  0  0  -0.772963  0  3.279708  0  -1.583933  0  -0.477269  -0.731866  0  3.28703  0
O  O112  1  0.31737528  0.41013288  0.54528618  1  0  -0.683141  0  1.970577  0  0  -0.644563  0  2.228446  0  0  -0.664162  0  2.215078  0  -1.311732  0  -0.422376  -0.63053  0  2.237047  0
O  O113  1  0.81737562  0.08986590  0.54528559  1  0  -0.683153  0  1.970572  0  0  -0.644586  0  2.228467  0  0  -0.664181  0  2.2151  0  -1.311765  0  -0.422394  -0.630551  0  2.237069  0
O  O114  1  0.68262260  0.58986556  0.45471411  1  0  -0.683197  0  1.970569  0  0  -0.644619  0  2.228424  0  0  -0.664218  0  2.215057  0  -1.311783  0  -0.422383  -0.630585  0  2.237026  0
O  O115  1  0.18262366  0.91013431  0.45471474  1  0  -0.683222  0  1.970506  0  0  -0.644634  0  2.228357  0  0  -0.664228  0  2.214992  0  -1.311775  0  -0.422412  -0.6306  0  2.23696  0
O  O116  1  0.02981318  0.32619805  0.58539581  1  0  -0.688194  0  2.0004  0  0  -0.647092  0  2.261583  0  0  -0.667059  0  2.249866  0  -1.313782  0  -0.425289  -0.632942  0  2.26915  0
O  O117  1  0.52981491  0.17380250  0.58539579  1  0  -0.688175  0  2.000397  0  0  -0.647072  0  2.26158  0  0  -0.66704  0  2.249865  0  -1.313798  0  -0.425259  -0.632921  0  2.269147  0
O  O118  1  0.97018749  0.67380128  0.41460562  1  0  -0.688187  0  2.0003  0  0  -0.647107  0  2.26151  0  0  -0.667074  0  2.249794  0  -1.313724  0  -0.425264  -0.632954  0  2.269076  0
O  O119  1  0.47018576  0.82619771  0.41460407  1  0  -0.688167  0  2.000383  0  0  -0.647082  0  2.261571  0  0  -0.667052  0  2.249859  0  -1.313784  0  -0.425264  -0.63293  0  2.269137  0
O  O120  1  0.89925503  0.71992512  0.60004807  1  0  -0.631876  0  1.949516  0  0  -0.59549  0  2.206673  0  0  -0.614331  0  2.192849  0  -1.326545  0  -0.374816  -0.582143  0  2.215744  0
O  O121  1  0.39925469  0.78007563  0.60004710  1  0  -0.631825  0  1.949722  0  0  -0.595446  0  2.206901  0  0  -0.614294  0  2.193076  0  -1.326566  0  -0.374755  -0.582098  0  2.215972  0
O  O122  1  0.10074564  0.28007509  0.39995128  1  0  -0.631851  0  1.949535  0  0  -0.595482  0  2.206702  0  0  -0.614319  0  2.192878  0  -1.326549  0  -0.374814  -0.582135  0  2.215773  0
O  O123  1  0.60074597  0.21992457  0.39995277  1  0  -0.631798  0  1.949704  0  0  -0.595426  0  2.20688  0  0  -0.614266  0  2.193053  0  -1.326578  0  -0.37477  -0.582077  0  2.215948  0
O  O124  1  0.76839553  0.52138630  0.62185763  1  0  -0.651551  0  1.950562  0  0  -0.608805  0  2.200661  0  0  -0.628433  0  2.18866  0  -1.316701  0  -0.364048  -0.594919  0  2.208453  0
O  O125  1  0.26839659  0.97861357  0.62185619  1  0  -0.651554  0  1.9506  0  0  -0.608822  0  2.200711  0  0  -0.62845  0  2.18871  0  -1.316683  0  -0.364044  -0.594942  0  2.208516  0
O  O126  1  0.23160514  0.47861303  0.37814224  1  0  -0.651549  0  1.950595  0  0  -0.608805  0  2.200702  0  0  -0.628435  0  2.1887  0  -1.316707  0  -0.364051  -0.594925  0  2.208506  0
O  O127  1  0.73160408  0.02138663  0.37814368  1  0  -0.651548  0  1.95058  0  0  -0.608815  0  2.200693  0  0  -0.628441  0  2.188688  0  -1.316675  0  -0.364041  -0.594935  0  2.208496  0
O  O128  1  0.64272971  0.45765913  0.91101896  1  0  -0.555134  0  1.989717  0  0  -0.505665  0  2.203105  0  0  -0.527566  0  2.192128  0  -1.154316  0  -0.279675  -0.49069  0  2.210252  0
O  O129  1  0.14272937  0.04234142  0.91101850  1  0  -0.555142  0  1.989745  0  0  -0.505655  0  2.203118  0  0  -0.527555  0  2.192144  0  -1.154299  0  -0.279658  -0.490681  0  2.210256  0
O  O130  1  0.35727375  0.54234020  0.08898205  1  0  -0.555152  0  1.989837  0  0  -0.505676  0  2.203205  0  0  -0.527579  0  2.192224  0  -1.15431  0  -0.279696  -0.490702  0  2.210349  0
O  O131  1  0.85727130  0.95765791  0.08898136  1  0  -0.555131  0  1.989786  0  0  -0.505641  0  2.203166  0  0  -0.527541  0  2.192191  0  -1.154325  0  -0.279662  -0.490667  0  2.2103  0
O  O132  1  0.50979468  0.27792115  0.92288975  1  0  -0.525742  0  2.07842  0  0  -0.475611  0  2.295293  0  0  -0.497633  0  2.279994  0  -1.172431  0  -0.315079  -0.460328  0  2.305228  0
O  O133  1  0.00979574  0.22207940  0.92288986  1  0  -0.52574  0  2.078455  0  0  -0.475603  0  2.295316  0  0  -0.497624  0  2.280022  0  -1.173118  0  -0.31509  -0.460316  0  2.305248  0
O  O134  1  0.49020320  0.72207994  0.07711106  1  0  -0.525803  0  2.078365  0  0  -0.475643  0  2.295279  0  0  -0.497664  0  2.27995  0  -1.172409  0  -0.315071  -0.460359  0  2.305211  0
O  O135  1  0.99020354  0.77792081  0.07711048  1  0  -0.52578  0  2.078341  0  0  -0.475632  0  2.295217  0  0  -0.497652  0  2.27992  0  -1.172416  0  -0.315116  -0.460348  0  2.305149  0
O  O136  1  0.32651398  0.71634317  0.95240789  1  0  -0.554906  0  1.965302  0  0  -0.506522  0  2.172236  0  0  -0.528716  0  2.162329  0  -1.15265  0  -0.282182  -0.491377  0  2.178709  0
O  O137  1  0.82651432  0.78365582  0.95240731  1  0  -0.554898  0  1.965259  0  0  -0.506536  0  2.172173  0  0  -0.528731  0  2.162275  0  -1.152548  0  -0.282193  -0.49139  0  2.178646  0
O  O138  1  0.67348669  0.28365881  0.04759249  1  0  -0.554976  0  1.965405  0  0  -0.506623  0  2.172307  0  0  -0.528811  0  2.162408  0  -1.152623  0  -0.282239  -0.491479  0  2.178784  0
O  O139  1  0.17349053  0.21634262  0.04759271  1  0  -0.55495  0  1.965362  0  0  -0.506597  0  2.172239  0  0  -0.528791  0  2.162336  0  -1.1526  0  -0.282228  -0.491451  0  2.178714  0
O  O140  1  0.19758941  0.53565229  0.96543377  1  0  -0.526551  0  2.089567  0  0  -0.476285  0  2.297305  0  0  -0.498362  0  2.278894  0  -1.162419  0  -0.318467  -0.460973  0  2.309107  0
O  O141  1  0.69758418  0.96434669  0.96543351  1  0  -0.526576  0  2.08946  0  0  -0.476321  0  2.297232  0  0  -0.498398  0  2.278822  0  -1.162396  0  -0.318453  -0.46101  0  2.309001  0
O  O142  1  0.80240987  0.46435056  0.03456605  1  0  -0.526595  0  2.089431  0  0  -0.476342  0  2.297154  0  0  -0.498418  0  2.278747  0  -1.16244  0  -0.318473  -0.461029  0  2.30896  0
O  O143  1  0.30240953  0.03564910  0.03456663  1  0  -0.526623  0  2.089469  0  0  -0.476367  0  2.297205  0  0  -0.498445  0  2.278792  0  -1.162433  0  -0.318458  -0.461055  0  2.308989  0
