# generated using pymatgen
data_CdH5C6N2ClO5
_symmetry_space_group_name_H-M   'P 1'
_cell_length_a   7.23699198
_cell_length_b   10.08343379
_cell_length_c   12.31734508
_cell_angle_alpha   89.99898578
_cell_angle_beta   84.73374113
_cell_angle_gamma   89.99948517
_symmetry_Int_Tables_number   1
_chemical_formula_structural   CdH5C6N2ClO5
_chemical_formula_sum   'Cd4 H20 C24 N8 Cl4 O20'
_cell_volume   895.04852290
_cell_formula_units_Z   4
loop_
 _symmetry_equiv_pos_site_id
 _symmetry_equiv_pos_as_xyz
  1  'x, y, z'
loop_
 _atom_site_type_symbol
 _atom_site_label
 _atom_site_symmetry_multiplicity
 _atom_site_fract_x
 _atom_site_fract_y
 _atom_site_fract_z
 _atom_site_occupancy
 _atom_site_hle17_bader_spin_density
 _atom_site_hle17_ddec_charge
 _atom_site_hle17_ddec_spin_density
 _atom_site_hle17_ddec_sum_bond_order
 _atom_site_hle17_magmom
 _atom_site_hse06_10hf_bader_spin_density
 _atom_site_hse06_10hf_ddec_charge
 _atom_site_hse06_10hf_ddec_spin_density
 _atom_site_hse06_10hf_ddec_sum_bond_order
 _atom_site_hse06_10hf_magmom
 _atom_site_hse06_bader_spin_density
 _atom_site_hse06_ddec_charge
 _atom_site_hse06_ddec_spin_density
 _atom_site_hse06_ddec_sum_bond_order
 _atom_site_hse06_magmom
 _atom_site_pbe_bader_spin_density
 _atom_site_pbe_cm5_charge
 _atom_site_pbe_ddec_charge
 _atom_site_pbe_ddec_spin_density
 _atom_site_pbe_ddec_sum_bond_order
 _atom_site_pbe_magmom
Cd  Cd0  1  0.85879706  0.11411807  0.59227621  1  0  1.073485  0  1.785201  0  0  0.897161  0  2.235837  0  0  0.950454  0  2.187456  0  0  0.680136  0.858511  0  2.269138  0
Cd  Cd1  1  0.64119810  0.61412072  0.90771958  1  0  1.073529  0  1.785114  0  0  0.897212  0  2.23575  0  0  0.950506  0  2.187375  0  0  0.680151  0.858568  0  2.269043  0
Cd  Cd2  1  0.14118906  0.88588206  0.40772496  1  0  1.073566  0  1.785161  0  0  0.89723  0  2.235774  0  0  0.950523  0  2.187397  0  0  0.680202  0.85861  0  2.269037  0
Cd  Cd3  1  0.35880334  0.38587742  0.09228056  1  0  1.073541  0  1.785077  0  0  0.897203  0  2.235712  0  0  0.950502  0  2.187328  0  0  0.680164  0.858541  0  2.269052  0
H  H4  1  0.19167493  0.92142381  0.93964457  1  0  0.390357  0  0.93375  0  0  0.353796  0  1.012648  0  0  0.366445  0  0.995643  0  0  0.294164  0.34499  0  1.024518  0
H  H5  1  0.30832727  0.42142807  0.56035278  1  0  0.390359  0  0.933765  0  0  0.353764  0  1.012696  0  0  0.366408  0  0.995702  0  0  0.294148  0.34496  0  1.024564  0
H  H6  1  0.80833997  0.07857334  0.06035865  1  0  0.39004  0  0.934028  0  0  0.353496  0  1.013041  0  0  0.366143  0  0.996045  0  0  0.294013  0.344689  0  1.024911  0
H  H7  1  0.69167440  0.57857206  0.43965713  1  0  0.390231  0  0.933889  0  0  0.353751  0  1.012703  0  0  0.366398  0  0.995701  0  0  0.294204  0.344947  0  1.024571  0
H  H8  1  0.12946286  0.48920280  0.88063424  1  0  0.095669  0  0.975243  0  0  0.098379  0  1.045727  0  0  0.101298  0  1.043876  0  0  0.106859  0.096384  0  1.046889  0
H  H9  1  0.37052742  0.98921005  0.61936308  1  0  0.095749  0  0.975198  0  0  0.098429  0  1.045696  0  0  0.101354  0  1.043862  0  0  0.106849  0.09643  0  1.046859  0
H  H10  1  0.87054574  0.51077650  0.11935197  1  0  0.09568  0  0.975138  0  0  0.098377  0  1.045631  0  0  0.101304  0  1.043775  0  0  0.106828  0.096379  0  1.046794  0
H  H11  1  0.62945841  0.01080000  0.38064053  1  0  0.095803  0  0.975161  0  0  0.098502  0  1.045674  0  0  0.101422  0  1.043823  0  0  0.106897  0.096503  0  1.046834  0
H  H12  1  0.96475567  0.40246859  0.72030637  1  0  0.116135  0  0.942269  0  0  0.118452  0  1.007661  0  0  0.122559  0  1.003745  0  0  0.125606  0.115085  0  1.011393  0
H  H13  1  0.53524915  0.90246958  0.77968181  1  0  0.116063  0  0.94232  0  0  0.118426  0  1.007705  0  0  0.122537  0  1.003784  0  0  0.125563  0.115056  0  1.011444  0
H  H14  1  0.03524057  0.59752361  0.27967919  1  0  0.116086  0  0.942329  0  0  0.118454  0  1.007729  0  0  0.122563  0  1.003809  0  0  0.125574  0.11509  0  1.011458  0
H  H15  1  0.46476146  0.09753948  0.22031089  1  0  0.116048  0  0.942172  0  0  0.118393  0  1.007569  0  0  0.122504  0  1.003647  0  0  0.125566  0.115024  0  1.011306  0
H  H16  1  0.51283506  0.23452857  0.68025047  1  0  0.427369  0  0.872017  0  0  0.390678  0  0.944807  0  0  0.402676  0  0.927515  0  0  0.288074  0.381904  0  0.957385  0
H  H17  1  0.98717690  0.73452799  0.81975391  1  0  0.42735  0  0.872032  0  0  0.390648  0  0.944843  0  0  0.402647  0  0.927549  0  0  0.288047  0.381875  0  0.95742  0
H  H18  1  0.48716986  0.76548048  0.31975532  1  0  0.427272  0  0.872126  0  0  0.39056  0  0.944958  0  0  0.402562  0  0.927658  0  0  0.288017  0.381786  0  0.957536  0
H  H19  1  0.01283222  0.26546818  0.18023962  1  0  0.427305  0  0.872097  0  0  0.39055  0  0.944979  0  0  0.402548  0  0.927687  0  0  0.288017  0.381776  0  0.957556  0
H  H20  1  0.62299027  0.18977265  0.77593651  1  0  0.431236  0  0.809149  0  0  0.407188  0  0.875057  0  0  0.416391  0  0.864587  0  0  0.313713  0.400485  0  0.882903  0
H  H21  1  0.87702019  0.68977868  0.72406204  1  0  0.431225  0  0.809329  0  0  0.407174  0  0.875229  0  0  0.416378  0  0.864757  0  0  0.31373  0.400471  0  0.883076  0
H  H22  1  0.37701327  0.81022946  0.22406930  1  0  0.431216  0  0.809182  0  0  0.407145  0  0.875131  0  0  0.416347  0  0.864662  0  0  0.313731  0.400442  0  0.88298  0
H  H23  1  0.12298411  0.31021451  0.27593726  1  0  0.431118  0  0.809391  0  0  0.407078  0  0.875265  0  0  0.416281  0  0.864801  0  0  0.313737  0.400378  0  0.883108  0
C  C24  1  0.02869549  0.97679475  0.80363124  1  0  0.625183  0  3.883758  0  0  0.566585  0  4.188517  0  0  0.599642  0  4.183132  0  0  0.218787  0.544226  0  4.191316  0
C  C25  1  0.47131087  0.47679918  0.69637175  1  0  0.624971  0  3.88385  0  0  0.566491  0  4.188532  0  0  0.599549  0  4.183145  0  0  0.218687  0.544118  0  4.191329  0
C  C26  1  0.97131201  0.02319745  0.19637615  1  0  0.624805  0  3.883968  0  0  0.566207  0  4.188792  0  0  0.599249  0  4.183434  0  0  0.218569  0.543839  0  4.191588  0
C  C27  1  0.52869883  0.52321385  0.30364049  1  0  0.625079  0  3.88388  0  0  0.56655  0  4.188677  0  0  0.599606  0  4.183297  0  0  0.218743  0.544181  0  4.191469  0
C  C28  1  0.07672014  0.12023988  0.83044372  1  0  0.053771  0  3.645923  0  0  0.051621  0  3.893928  0  0  0.051513  0  3.911942  0  0  0.125594  0.051538  0  3.882166  0
C  C29  1  0.42328181  0.62025172  0.66955315  1  0  0.053895  0  3.64573  0  0  0.051545  0  3.893894  0  0  0.051434  0  3.911909  0  0  0.125575  0.051517  0  3.882055  0
C  C30  1  0.92328159  0.87973942  0.16955397  1  0  0.053934  0  3.645782  0  0  0.051611  0  3.893898  0  0  0.051509  0  3.911913  0  0  0.125627  0.051564  0  3.882094  0
C  C31  1  0.57671203  0.37976130  0.33045279  1  0  0.053874  0  3.645667  0  0  0.051551  0  3.893805  0  0  0.051445  0  3.91182  0  0  0.125621  0.051514  0  3.881979  0
C  C32  1  0.17537832  0.16822037  0.91660777  1  0  0.043384  0  3.645353  0  0  0.041056  0  3.892826  0  0  0.040273  0  3.910613  0  0  0.123946  0.041124  0  3.88153  0
C  C33  1  0.32461517  0.66822566  0.58338527  1  0  0.043363  0  3.645126  0  0  0.041107  0  3.892556  0  0  0.040326  0  3.910338  0  0  0.123958  0.041155  0  3.881258  0
C  C34  1  0.82464441  0.83178770  0.08337581  1  0  0.043367  0  3.645519  0  0  0.041216  0  3.892797  0  0  0.040433  0  3.910576  0  0  0.123917  0.041272  0  3.881503  0
C  C35  1  0.67535743  0.33177844  0.41662503  1  0  0.043241  0  3.645737  0  0  0.041079  0  3.893045  0  0  0.040294  0  3.910833  0  0  0.123925  0.041133  0  3.881745  0
C  C36  1  0.27077228  0.09072421  0.00222524  1  0  0.643076  0  3.810196  0  0  0.583291  0  4.118659  0  0  0.617959  0  4.108912  0  0  0.233688  0.55983  0  4.124526  0
C  C37  1  0.22922214  0.59073438  0.49777155  1  0  0.643171  0  3.810304  0  0  0.583466  0  4.118592  0  0  0.618133  0  4.108841  0  0  0.233729  0.560008  0  4.124467  0
C  C38  1  0.72924792  0.90927196  0.99776814  1  0  0.643129  0  3.810382  0  0  0.583405  0  4.118714  0  0  0.618072  0  4.108968  0  0  0.233676  0.559935  0  4.124586  0
C  C39  1  0.77074789  0.40926972  0.50223715  1  0  0.643189  0  3.810015  0  0  0.583407  0  4.11839  0  0  0.618067  0  4.108647  0  0  0.233735  0.559942  0  4.124264  0
C  C40  1  0.11534470  0.38350489  0.86499746  1  0  0.115243  0  3.656171  0  0  0.083227  0  3.917652  0  0  0.087229  0  3.931684  0  0  0.063656  0.080635  0  3.908005  0
C  C41  1  0.38464952  0.88350478  0.63500136  1  0  0.1149  0  3.656317  0  0  0.082994  0  3.917784  0  0  0.086974  0  3.931833  0  0  0.063606  0.080408  0  3.908132  0
C  C42  1  0.88464514  0.61648433  0.13499552  1  0  0.115202  0  3.65608  0  0  0.08327  0  3.917586  0  0  0.087256  0  3.931635  0  0  0.063741  0.080684  0  3.907936  0
C  C43  1  0.61534204  0.11649932  0.36500054  1  0  0.114915  0  3.655987  0  0  0.082884  0  3.91758  0  0  0.086883  0  3.931613  0  0  0.063527  0.080295  0  3.907935  0
C  C44  1  0.02447030  0.33630389  0.77748430  1  0  0.131891  0  3.61302  0  0  0.099314  0  3.876736  0  0  0.105249  0  3.887507  0  0  0.071582  0.095201  0  3.870002  0
C  C45  1  0.47554281  0.83630936  0.72251170  1  0  0.132296  0  3.612586  0  0  0.09953  0  3.876464  0  0  0.10547  0  3.887231  0  0  0.071749  0.095414  0  3.869736  0
C  C46  1  0.97554522  0.66367739  0.22250182  1  0  0.132108  0  3.612618  0  0  0.099309  0  3.876577  0  0  0.10525  0  3.887339  0  0  0.07157  0.095193  0  3.869854  0
C  C47  1  0.52445567  0.16370763  0.27749011  1  0  0.132175  0  3.612792  0  0  0.099461  0  3.876694  0  0  0.105398  0  3.887463  0  0  0.071732  0.095348  0  3.869959  0
N  N48  1  0.00579247  0.20692656  0.76183666  1  0  -0.269747  0  3.180337  0  0  -0.218242  0  3.43896  0  0  -0.230191  0  3.45509  0  0  -0.289744  -0.209796  0  3.427873  0
N  N49  1  0.49421902  0.70692266  0.73816371  1  0  -0.269941  0  3.18022  0  0  -0.218324  0  3.43896  0  0  -0.23027  0  3.455087  0  0  -0.289829  -0.209891  0  3.427857  0
N  N50  1  0.99422043  0.79306465  0.23816008  1  0  -0.269845  0  3.180041  0  0  -0.218251  0  3.438811  0  0  -0.230198  0  3.454934  0  0  -0.28969  -0.209815  0  3.427722  0
N  N51  1  0.50577779  0.29308243  0.26184057  1  0  -0.269708  0  3.180246  0  0  -0.218101  0  3.438959  0  0  -0.23005  0  3.455091  0  0  -0.289781  -0.209664  0  3.427855  0
N  N52  1  0.19042169  0.30028827  0.93182663  1  0  -0.273023  0  3.205068  0  0  -0.21893  0  3.464154  0  0  -0.231529  0  3.482125  0  0  -0.290887  -0.21008  0  3.452188  0
N  N53  1  0.30956910  0.80029793  0.56817508  1  0  -0.272936  0  3.205131  0  0  -0.21884  0  3.464115  0  0  -0.231437  0  3.482095  0  0  -0.290873  -0.209993  0  3.452154  0
N  N54  1  0.80958123  0.69971385  0.06817268  1  0  -0.273182  0  3.205075  0  0  -0.219103  0  3.464065  0  0  -0.231699  0  3.482039  0  0  -0.290952  -0.210253  0  3.452105  0
N  N55  1  0.69041457  0.19971013  0.43183506  1  0  -0.272992  0  3.205203  0  0  -0.218884  0  3.46421  0  0  -0.231485  0  3.482186  0  0  -0.290869  -0.210035  0  3.452248  0
Cl  Cl56  1  0.19471179  0.11967175  0.49655671  1  0  -0.546167  0  0.984425  0  0  -0.480472  0  1.260381  0  0  -0.501579  0  1.240543  0  0  -0.289182  -0.465086  0  1.274281  0
Cl  Cl57  1  0.30528417  0.61966593  0.00343557  1  0  -0.546128  0  0.984395  0  0  -0.480434  0  1.260348  0  0  -0.501539  0  1.240508  0  0  -0.289167  -0.465023  0  1.27422  0
Cl  Cl58  1  0.80527065  0.88033036  0.50344044  1  0  -0.546166  0  0.984442  0  0  -0.480422  0  1.260347  0  0  -0.501527  0  1.240507  0  0  -0.289182  -0.465004  0  1.274185  0
Cl  Cl59  1  0.69471498  0.38032924  0.99656053  1  0  -0.546129  0  0.984404  0  0  -0.480451  0  1.260386  0  0  -0.501559  0  1.240546  0  0  -0.289173  -0.46504  0  1.274256  0
O  O60  1  0.92728813  0.95646740  0.72867950  1  0  -0.580293  0  2.074505  0  0  -0.526176  0  2.331884  0  0  -0.553535  0  2.325464  0  0  -0.302247  -0.506848  0  2.335596  0
O  O61  1  0.57271385  0.45646772  0.77131525  1  0  -0.580133  0  2.074738  0  0  -0.526018  0  2.33204  0  0  -0.553374  0  2.325631  0  0  -0.302133  -0.506697  0  2.335757  0
O  O62  1  0.07271379  0.04351389  0.27131657  1  0  -0.579958  0  2.074903  0  0  -0.525815  0  2.332224  0  0  -0.553163  0  2.325821  0  0  -0.302071  -0.506497  0  2.335941  0
O  O63  1  0.42729533  0.54353836  0.22868967  1  0  -0.580403  0  2.074554  0  0  -0.52622  0  2.331749  0  0  -0.55358  0  2.325339  0  0  -0.302251  -0.506894  0  2.335467  0
O  O64  1  0.09105361  0.88097841  0.85927350  1  0  -0.609162  0  2.097513  0  0  -0.542762  0  2.317713  0  0  -0.570391  0  2.309616  0  0  -0.304062  -0.523173  0  2.322843  0
O  O65  1  0.40895171  0.38098238  0.64072521  1  0  -0.609129  0  2.097362  0  0  -0.542744  0  2.31755  0  0  -0.570377  0  2.309458  0  0  -0.304059  -0.523148  0  2.322673  0
O  O66  1  0.90896540  0.11901180  0.14071827  1  0  -0.609101  0  2.097722  0  0  -0.542567  0  2.317825  0  0  -0.570195  0  2.309739  0  0  -0.303954  -0.522961  0  2.322925  0
O  O67  1  0.59105479  0.61902667  0.35927894  1  0  -0.608976  0  2.097447  0  0  -0.542672  0  2.317676  0  0  -0.570311  0  2.30959  0  0  -0.304057  -0.523085  0  2.322812  0
O  O68  1  0.26504390  0.96191155  0.00472600  1  0  -0.520538  0  2.12564  0  0  -0.471822  0  2.352197  0  0  -0.494983  0  2.337574  0  0  -0.3168  -0.456199  0  2.362604  0
O  O69  1  0.23495763  0.46192410  0.49527584  1  0  -0.520623  0  2.125691  0  0  -0.47191  0  2.352231  0  0  -0.495065  0  2.3376  0  0  -0.316791  -0.456283  0  2.36264  0
O  O70  1  0.73495425  0.03807965  0.99526686  1  0  -0.520194  0  2.125715  0  0  -0.471647  0  2.352457  0  0  -0.494803  0  2.337836  0  0  -0.316642  -0.456022  0  2.362861  0
O  O71  1  0.76503020  0.53809289  0.50473426  1  0  -0.520416  0  2.12528  0  0  -0.471828  0  2.351942  0  0  -0.494983  0  2.337319  0  0  -0.316884  -0.456205  0  2.362353  0
O  O72  1  0.35137180  0.15266247  0.07082795  1  0  -0.549712  0  2.11399  0  0  -0.493019  0  2.369134  0  0  -0.518569  0  2.359591  0  0  -0.280805  -0.474716  0  2.374856  0
O  O73  1  0.14861678  0.65266959  0.42916476  1  0  -0.549772  0  2.114131  0  0  -0.493112  0  2.369195  0  0  -0.518661  0  2.359655  0  0  -0.280858  -0.474817  0  2.374921  0
O  O74  1  0.64862487  0.84733469  0.92916574  1  0  -0.549787  0  2.113723  0  0  -0.493121  0  2.368791  0  0  -0.518675  0  2.359252  0  0  -0.280843  -0.474793  0  2.374496  0
O  O75  1  0.85136304  0.34733946  0.57084300  1  0  -0.549706  0  2.113923  0  0  -0.493059  0  2.369114  0  0  -0.51859  0  2.359566  0  0  -0.280765  -0.47474  0  2.374823  0
O  O76  1  0.57910475  0.15647431  0.70834481  1  0  -0.79827  0  1.836885  0  0  -0.73943  0  2.036231  0  0  -0.76102  0  2.006802  0  0  -0.572117  -0.724162  0  2.057665  0
O  O77  1  0.92089935  0.65647769  0.79165269  1  0  -0.798242  0  1.837047  0  0  -0.739395  0  2.036378  0  0  -0.760987  0  2.006946  0  0  -0.572113  -0.724125  0  2.057814  0
O  O78  1  0.42088218  0.84353177  0.29166123  1  0  -0.798184  0  1.837016  0  0  -0.739299  0  2.03633  0  0  -0.760889  0  2.006901  0  0  -0.572088  -0.72403  0  2.057763  0
O  O79  1  0.07910543  0.34351550  0.20834253  1  0  -0.798034  0  1.837121  0  0  -0.739156  0  2.03653  0  0  -0.760747  0  2.007107  0  0  -0.572064  -0.723883  0  2.057957  0
