# generated using pymatgen
data_Zn2P2H6(CO2)3
_symmetry_space_group_name_H-M   'P 1'
_cell_length_a   5.31986299
_cell_length_b   8.36066819
_cell_length_c   18.89368691
_cell_angle_alpha   89.99942865
_cell_angle_beta   89.99738337
_cell_angle_gamma   89.99965214
_symmetry_Int_Tables_number   1
_chemical_formula_structural   Zn2P2H6(CO2)3
_chemical_formula_sum   'Zn8 P8 H24 C12 O24'
_cell_volume   840.34602210
_cell_formula_units_Z   4
loop_
 _symmetry_equiv_pos_site_id
 _symmetry_equiv_pos_as_xyz
  1  'x, y, z'
loop_
 _atom_site_type_symbol
 _atom_site_label
 _atom_site_symmetry_multiplicity
 _atom_site_fract_x
 _atom_site_fract_y
 _atom_site_fract_z
 _atom_site_occupancy
 _atom_site_hle17_bader_spin_density
 _atom_site_hle17_ddec_charge
 _atom_site_hle17_ddec_spin_density
 _atom_site_hle17_ddec_sum_bond_order
 _atom_site_hle17_magmom
 _atom_site_hse06_10hf_bader_spin_density
 _atom_site_hse06_10hf_ddec_charge
 _atom_site_hse06_10hf_ddec_spin_density
 _atom_site_hse06_10hf_ddec_sum_bond_order
 _atom_site_hse06_10hf_magmom
 _atom_site_hse06_bader_spin_density
 _atom_site_hse06_ddec_charge
 _atom_site_hse06_ddec_spin_density
 _atom_site_hse06_ddec_sum_bond_order
 _atom_site_hse06_magmom
 _atom_site_pbe_bader_spin_density
 _atom_site_pbe_cm5_charge
 _atom_site_pbe_ddec_charge
 _atom_site_pbe_ddec_spin_density
 _atom_site_pbe_ddec_sum_bond_order
 _atom_site_pbe_magmom
Zn  Zn0  1  0.56381920  0.25620503  0.05274047  1  0  1.250277  0  1.753421  0  0  1.089086  0  2.224437  0  0  1.132023  0  2.161534  0  0  0.724728  1.058611  0  2.268086  0
Zn  Zn1  1  0.06381121  0.24382304  0.94725566  1  0  1.250496  0  1.753031  0  0  1.089272  0  2.224054  0  0  1.132198  0  2.16118  0  0  0.724834  1.058791  0  2.267707  0
Zn  Zn2  1  0.93620748  0.75619352  0.44725976  1  0  1.250393  0  1.753396  0  0  1.089248  0  2.224385  0  0  1.132163  0  2.161501  0  0  0.724799  1.058771  0  2.268028  0
Zn  Zn3  1  0.43614268  0.74376142  0.55274473  1  0  1.250362  0  1.752716  0  0  1.089004  0  2.22382  0  0  1.131965  0  2.160867  0  0  0.724759  1.058502  0  2.267493  0
Zn  Zn4  1  0.43616075  0.74378707  0.94726116  1  0  1.250208  0  1.752865  0  0  1.088781  0  2.224013  0  0  1.131742  0  2.161047  0  0  0.724668  1.058317  0  2.267634  0
Zn  Zn5  1  0.93614430  0.75619060  0.05273962  1  0  1.250532  0  1.753681  0  0  1.089251  0  2.224854  0  0  1.132158  0  2.161984  0  0  0.724905  1.058781  0  2.26851  0
Zn  Zn6  1  0.06384014  0.24382250  0.55274134  1  0  1.250572  0  1.753063  0  0  1.089246  0  2.224243  0  0  1.132216  0  2.161296  0  0  0.724862  1.058766  0  2.267896  0
Zn  Zn7  1  0.56387110  0.25620317  0.44725849  1  0  1.250417  0  1.753265  0  0  1.089117  0  2.224363  0  0  1.13204  0  2.161497  0  0  0.724828  1.058639  0  2.26802  0
P  P8  1  0.06315986  0.09903867  0.10422996  1  0  1.510665  0  4.819187  0  0  1.35635  0  5.311863  0  0  1.405138  0  5.276749  0  0  0.340095  1.32221  0  5.335654  0
P  P9  1  0.56317164  0.40097385  0.89577517  1  0  1.510393  0  4.818699  0  0  1.356104  0  5.31133  0  0  1.404868  0  5.276236  0  0  0.34011  1.321969  0  5.335129  0
P  P10  1  0.43680858  0.59901990  0.39577887  1  0  1.510393  0  4.818908  0  0  1.356129  0  5.311593  0  0  1.404908  0  5.276494  0  0  0.340062  1.321988  0  5.335375  0
P  P11  1  0.93683673  0.90093026  0.60424413  1  0  1.511081  0  4.819757  0  0  1.356556  0  5.312496  0  0  1.405323  0  5.277408  0  0  0.339837  1.322427  0  5.336273  0
P  P12  1  0.93686708  0.90090678  0.89576373  1  0  1.511009  0  4.819031  0  0  1.35662  0  5.311688  0  0  1.405384  0  5.276576  0  0  0.339906  1.322477  0  5.335498  0
P  P13  1  0.43675191  0.59903978  0.10421534  1  0  1.510514  0  4.818589  0  0  1.356251  0  5.311229  0  0  1.405046  0  5.276113  0  0  0.340085  1.322106  0  5.335029  0
P  P14  1  0.56318828  0.40094828  0.60422541  1  0  1.510983  0  4.818636  0  0  1.3566  0  5.311302  0  0  1.40537  0  5.276203  0  0  0.340139  1.322464  0  5.335091  0
P  P15  1  0.06324473  0.09906663  0.39577020  1  0  1.510266  0  4.818977  0  0  1.355924  0  5.311759  0  0  1.404713  0  5.276658  0  0  0.339762  1.321789  0  5.335546  0
H  H16  1  0.08206144  0.33690045  0.17395629  1  0  0.142275  0  0.937599  0  0  0.155846  0  0.99339  0  0  0.157937  0  0.993956  0  0  0.107558  0.154299  0  0.993141  0
H  H17  1  0.58203983  0.16309764  0.82604596  1  0  0.142254  0  0.937957  0  0  0.155801  0  0.993775  0  0  0.157896  0  0.99434  0  0  0.107561  0.15426  0  0.993516  0
H  H18  1  0.41788052  0.83692990  0.32604192  1  0  0.142022  0  0.937441  0  0  0.155673  0  0.993238  0  0  0.157766  0  0.993805  0  0  0.107446  0.154114  0  0.992996  0
H  H19  1  0.91796871  0.66309927  0.67395592  1  0  0.142243  0  0.937766  0  0  0.155856  0  0.993415  0  0  0.157942  0  0.993984  0  0  0.107555  0.154309  0  0.993165  0
H  H20  1  0.91795986  0.66311797  0.82605540  1  0  0.142345  0  0.937863  0  0  0.155778  0  0.993735  0  0  0.157863  0  0.994301  0  0  0.107548  0.154238  0  0.993477  0
H  H21  1  0.41789500  0.83690642  0.17395726  1  0  0.14223  0  0.937976  0  0  0.15579  0  0.993796  0  0  0.157883  0  0.994366  0  0  0.107517  0.154245  0  0.99354  0
H  H22  1  0.58207875  0.16305981  0.67395177  1  0  0.14216  0  0.937369  0  0  0.15579  0  0.993105  0  0  0.157888  0  0.993675  0  0  0.107539  0.154232  0  0.992857  0
H  H23  1  0.08213530  0.33691675  0.32604254  1  0  0.142044  0  0.937614  0  0  0.155726  0  0.993325  0  0  0.157815  0  0.993892  0  0  0.107538  0.154176  0  0.993072  0
H  H24  1  0.80410377  0.22712405  0.18811863  1  0  0.132298  0  0.93642  0  0  0.149283  0  0.988574  0  0  0.151656  0  0.987979  0  0  0.107806  0.147541  0  0.989146  0
H  H25  1  0.30408413  0.27287430  0.81189246  1  0  0.13226  0  0.936166  0  0  0.149272  0  0.988352  0  0  0.151648  0  0.987753  0  0  0.107836  0.147533  0  0.988925  0
H  H26  1  0.69585925  0.72715953  0.31188120  1  0  0.132172  0  0.936668  0  0  0.149221  0  0.98878  0  0  0.151597  0  0.988189  0  0  0.107719  0.147479  0  0.989342  0
H  H27  1  0.19587328  0.77287298  0.68810408  1  0  0.132475  0  0.93693  0  0  0.149358  0  0.989067  0  0  0.15172  0  0.988486  0  0  0.10796  0.147619  0  0.98963  0
H  H28  1  0.19589873  0.77288241  0.81189411  1  0  0.132343  0  0.936459  0  0  0.149309  0  0.988582  0  0  0.151676  0  0.987985  0  0  0.107892  0.14757  0  0.989154  0
H  H29  1  0.69589582  0.72712020  0.18810493  1  0  0.132211  0  0.936163  0  0  0.149298  0  0.988286  0  0  0.151675  0  0.98768  0  0  0.107813  0.147556  0  0.988854  0
H  H30  1  0.30411882  0.27288400  0.68811143  1  0  0.132448  0  0.936771  0  0  0.149297  0  0.989038  0  0  0.151673  0  0.988443  0  0  0.107857  0.147557  0  0.989602  0
H  H31  1  0.80416494  0.22714424  0.31189066  1  0  0.13237  0  0.936571  0  0  0.149397  0  0.98869  0  0  0.151772  0  0.988098  0  0  0.107829  0.147659  0  0.989255  0
H  H32  1  0.32424640  0.14680426  0.24999118  1  0  0.06479  0  0.916845  0  0  0.087275  0  0.971014  0  0  0.087545  0  0.971992  0  0  0.094724  0.086991  0  0.970446  0
H  H33  1  0.82421697  0.35316649  0.74999690  1  0  0.064573  0  0.917069  0  0  0.087227  0  0.971059  0  0  0.087499  0  0.972031  0  0  0.094666  0.086941  0  0.970495  0
H  H34  1  0.17572915  0.64680289  0.25000578  1  0  0.064681  0  0.916679  0  0  0.087206  0  0.970825  0  0  0.087476  0  0.971802  0  0  0.094678  0.086922  0  0.970256  0
H  H35  1  0.67580685  0.85317947  0.75000727  1  0  0.064688  0  0.916948  0  0  0.087292  0  0.97101  0  0  0.087565  0  0.971984  0  0  0.09471  0.087006  0  0.970445  0
H  H36  1  0.06992841  0.00990904  0.24999786  1  0  0.072302  0  0.928154  0  0  0.092436  0  0.984501  0  0  0.093175  0  0.985117  0  0  0.096629  0.091787  0  0.984256  0
H  H37  1  0.56992411  0.49009268  0.74999925  1  0  0.072259  0  0.928011  0  0  0.092345  0  0.98445  0  0  0.093078  0  0.985077  0  0  0.096621  0.091699  0  0.984206  0
H  H38  1  0.43008779  0.50991018  0.25000291  1  0  0.072244  0  0.928186  0  0  0.092298  0  0.984619  0  0  0.093031  0  0.985244  0  0  0.096578  0.09165  0  0.984374  0
H  H39  1  0.93010041  0.99008067  0.75000059  1  0  0.072346  0  0.928083  0  0  0.092385  0  0.984564  0  0  0.093115  0  0.985198  0  0  0.096648  0.091741  0  0.98432  0
C  C40  1  0.00955933  0.21556570  0.18311034  1  0  -0.449511  0  3.657011  0  0  -0.462133  0  3.899377  0  0  -0.472746  0  3.909634  0  0  -0.16637  -0.454683  0  3.892287  0
C  C41  1  0.50958520  0.28441475  0.81689387  1  0  -0.449181  0  3.656538  0  0  -0.461929  0  3.899095  0  0  -0.472541  0  3.909353  0  0  -0.166425  -0.454483  0  3.891998  0
C  C42  1  0.49044570  0.71555797  0.31689477  1  0  -0.449043  0  3.656364  0  0  -0.461863  0  3.898878  0  0  -0.472491  0  3.909159  0  0  -0.166222  -0.454412  0  3.891801  0
C  C43  1  0.99047869  0.78443980  0.68311856  1  0  -0.449908  0  3.65834  0  0  -0.462252  0  3.900445  0  0  -0.472856  0  3.910693  0  0  -0.166424  -0.45481  0  3.893388  0
C  C44  1  0.99043377  0.78441922  0.81688123  1  0  -0.449655  0  3.657675  0  0  -0.462034  0  3.899924  0  0  -0.472627  0  3.910155  0  0  -0.166321  -0.454589  0  3.89285  0
C  C45  1  0.49037783  0.71558812  0.18309876  1  0  -0.44931  0  3.656462  0  0  -0.462127  0  3.898976  0  0  -0.472747  0  3.909249  0  0  -0.166462  -0.454684  0  3.891894  0
C  C46  1  0.50952297  0.28444370  0.68310580  1  0  -0.449516  0  3.656998  0  0  -0.462038  0  3.899277  0  0  -0.472675  0  3.909573  0  0  -0.166267  -0.454577  0  3.892183  0
C  C47  1  0.00958773  0.21557383  0.31688783  1  0  -0.449194  0  3.656918  0  0  -0.462009  0  3.899438  0  0  -0.47261  0  3.909671  0  0  -0.166319  -0.454548  0  3.89233  0
C  C48  1  0.11780880  0.13793579  0.24999726  1  0  0.007753  0  3.681711  0  0  -0.038177  0  3.939949  0  0  -0.036471  0  3.954708  0  0  -0.15153  -0.039186  0  3.929806  0
C  C49  1  0.61777552  0.36206215  0.74999712  1  0  0.007866  0  3.681492  0  0  -0.038173  0  3.939829  0  0  -0.036461  0  3.954587  0  0  -0.151551  -0.039186  0  3.92969  0
C  C50  1  0.38220255  0.63792876  0.24999868  1  0  0.007782  0  3.681181  0  0  -0.038058  0  3.939428  0  0  -0.036344  0  3.954191  0  0  -0.15151  -0.039067  0  3.929273  0
C  C51  1  0.88224634  0.86206468  0.74999907  1  0  0.00807  0  3.682271  0  0  -0.038077  0  3.940581  0  0  -0.036377  0  3.955327  0  0  -0.151456  -0.039092  0  3.930437  0
O  O52  1  0.94616284  0.93478086  0.11777621  1  0  -0.866459  0  2.010799  0  0  -0.772688  0  2.304798  0  0  -0.802142  0  2.281504  0  0  -0.376513  -0.751864  0  2.320284  0
O  O53  1  0.44617093  0.56526494  0.88222338  1  0  -0.866452  0  2.010714  0  0  -0.772595  0  2.304701  0  0  -0.802021  0  2.281396  0  0  -0.376419  -0.751738  0  2.320123  0
O  O54  1  0.55385478  0.43478173  0.38221948  1  0  -0.866385  0  2.010943  0  0  -0.772578  0  2.304906  0  0  -0.802015  0  2.281601  0  0  -0.376477  -0.751761  0  2.320406  0
O  O55  1  0.05371496  0.06522127  0.61777253  1  0  -0.866658  0  2.01064  0  0  -0.772822  0  2.304696  0  0  -0.802294  0  2.281418  0  0  -0.376449  -0.751989  0  2.320172  0
O  O56  1  0.05375320  0.06521961  0.88223335  1  0  -0.866744  0  2.010207  0  0  -0.773006  0  2.304313  0  0  -0.802465  0  2.281014  0  0  -0.37658  -0.752154  0  2.319769  0
O  O57  1  0.55373759  0.43472716  0.11778460  1  0  -0.866407  0  2.009946  0  0  -0.772721  0  2.304088  0  0  -0.802184  0  2.280806  0  0  -0.376445  -0.751854  0  2.319489  0
O  O58  1  0.44619848  0.56522951  0.61776944  1  0  -0.866594  0  2.010599  0  0  -0.772793  0  2.304723  0  0  -0.802246  0  2.281433  0  0  -0.37658  -0.751933  0  2.320151  0
O  O59  1  0.94628755  0.93476246  0.38221639  1  0  -0.866437  0  2.009969  0  0  -0.772707  0  2.30404  0  0  -0.802175  0  2.280773  0  0  -0.376404  -0.751851  0  2.319456  0
O  O60  1  0.91915846  0.18894541  0.04226028  1  0  -0.926997  0  2.125883  0  0  -0.813837  0  2.46114  0  0  -0.843336  0  2.426832  0  0  -0.378743  -0.793098  0  2.484454  0
O  O61  1  0.41915943  0.31107995  0.95774884  1  0  -0.926902  0  2.125961  0  0  -0.813731  0  2.461202  0  0  -0.843221  0  2.426897  0  0  -0.378711  -0.792999  0  2.484517  0
O  O62  1  0.58085377  0.68895552  0.45773813  1  0  -0.926907  0  2.125643  0  0  -0.813763  0  2.460862  0  0  -0.843272  0  2.426583  0  0  -0.378764  -0.792998  0  2.484149  0
O  O63  1  0.08078073  0.81108107  0.54225177  1  0  -0.927081  0  2.125822  0  0  -0.814012  0  2.461359  0  0  -0.843413  0  2.426841  0  0  -0.378715  -0.793289  0  2.484723  0
O  O64  1  0.08076698  0.81108138  0.95775299  1  0  -0.926907  0  2.126193  0  0  -0.813836  0  2.461589  0  0  -0.843304  0  2.42726  0  0  -0.378691  -0.793102  0  2.484908  0
O  O65  1  0.58083932  0.68891694  0.04225544  1  0  -0.92705  0  2.126293  0  0  -0.813749  0  2.461408  0  0  -0.843246  0  2.427104  0  0  -0.378727  -0.793015  0  2.484728  0
O  O66  1  0.41920513  0.31105453  0.54225608  1  0  -0.927109  0  2.125991  0  0  -0.813961  0  2.461285  0  0  -0.843459  0  2.426977  0  0  -0.378726  -0.793219  0  2.484603  0
O  O67  1  0.91920674  0.18893495  0.45774457  1  0  -0.92692  0  2.125959  0  0  -0.813824  0  2.461314  0  0  -0.843341  0  2.42703  0  0  -0.378706  -0.793077  0  2.484622  0
O  O68  1  0.34256155  0.08742678  0.08505092  1  0  -0.865085  0  1.981006  0  0  -0.772711  0  2.276503  0  0  -0.80069  0  2.250365  0  0  -0.378563  -0.752872  0  2.294024  0
O  O69  1  0.84257758  0.41255705  0.91493429  1  0  -0.865065  0  1.981329  0  0  -0.772666  0  2.276858  0  0  -0.800643  0  2.250721  0  0  -0.37859  -0.752831  0  2.294389  0
O  O70  1  0.15740511  0.58744346  0.41494843  1  0  -0.864915  0  1.981328  0  0  -0.772595  0  2.276969  0  0  -0.800575  0  2.250825  0  0  -0.378444  -0.75275  0  2.294493  0
O  O71  1  0.65749272  0.91255214  0.58506697  1  0  -0.865263  0  1.981216  0  0  -0.772737  0  2.276633  0  0  -0.800727  0  2.250505  0  0  -0.378596  -0.75289  0  2.294149  0
O  O72  1  0.65749735  0.91257609  0.91494753  1  0  -0.865296  0  1.980924  0  0  -0.772749  0  2.27626  0  0  -0.800735  0  2.250133  0  0  -0.378535  -0.752908  0  2.293782  0
O  O73  1  0.15733282  0.58746974  0.08506417  1  0  -0.864967  0  1.981801  0  0  -0.772618  0  2.277517  0  0  -0.800598  0  2.251371  0  0  -0.378446  -0.75278  0  2.295045  0
O  O74  1  0.84257483  0.41254386  0.58505743  1  0  -0.865237  0  1.981402  0  0  -0.772739  0  2.276897  0  0  -0.80072  0  2.25075  0  0  -0.378587  -0.752894  0  2.294422  0
O  O75  1  0.34263384  0.08746030  0.41493466  1  0  -0.864913  0  1.981697  0  0  -0.772394  0  2.27718  0  0  -0.800378  0  2.251042  0  0  -0.37834  -0.752547  0  2.294696  0
