# generated using pymatgen
data_Cu2H12C16S4Br3N8
_symmetry_space_group_name_H-M   'P 1'
_cell_length_a   10.26310860
_cell_length_b   11.06419441
_cell_length_c   12.86886783
_cell_angle_alpha   115.12569307
_cell_angle_beta   108.47833047
_cell_angle_gamma   93.72003657
_symmetry_Int_Tables_number   1
_chemical_formula_structural   Cu2H12C16S4Br3N8
_chemical_formula_sum   'Cu4 H24 C32 S8 Br6 N16'
_cell_volume   1220.49765717
_cell_formula_units_Z   2
loop_
 _symmetry_equiv_pos_site_id
 _symmetry_equiv_pos_as_xyz
  1  'x, y, z'
loop_
 _atom_site_type_symbol
 _atom_site_label
 _atom_site_symmetry_multiplicity
 _atom_site_fract_x
 _atom_site_fract_y
 _atom_site_fract_z
 _atom_site_occupancy
 _atom_site_hle17_ddec_charge
 _atom_site_hle17_ddec_spin_density
 _atom_site_hle17_ddec_sum_bond_order
 _atom_site_hle17_magmom
 _atom_site_hse06_10hf_ddec_charge
 _atom_site_hse06_10hf_ddec_spin_density
 _atom_site_hse06_10hf_ddec_sum_bond_order
 _atom_site_hse06_10hf_magmom
 _atom_site_hse06_ddec_charge
 _atom_site_hse06_ddec_spin_density
 _atom_site_hse06_ddec_sum_bond_order
 _atom_site_hse06_magmom
 _atom_site_pbe_cm5_charge
 _atom_site_pbe_ddec_charge
 _atom_site_pbe_ddec_spin_density
 _atom_site_pbe_ddec_sum_bond_order
 _atom_site_pbe_magmom
Cu  Cu0  1  0.95312201  0.06001307  0.10897586  1  0.421474  -0.048531  2.005557  -0.036  0.305568  -0.009371  2.489194  -0.007  0.299459  -0.00187  2.448431  -0.002  0.410189  0.322546  -0.034841  2.505673  -0.027
Cu  Cu1  1  0.04687639  0.93999502  0.89103696  1  0.421605  0.048503  2.005574  0.036  0.305505  0.009369  2.489335  0.007  0.29949  0.00187  2.448472  0.002  0.410189  0.322522  0.034763  2.505817  0.027
Cu  Cu2  1  0.35895558  0.23644947  0.62192875  1  0.581826  -0.518791  2.066092  -0.363  0.563638  -0.655682  2.471767  -0.49  0.646681  -0.754845  2.404871  -0.581  0.538013  0.519305  -0.578163  2.512836  -0.429
Cu  Cu3  1  0.64104082  0.76355043  0.37807589  1  0.581734  0.518801  2.066137  0.363  0.563525  0.655683  2.471851  0.49  0.646613  0.754852  2.404948  0.581  0.53795  0.519237  0.578217  2.512895  0.43
H  H4  1  0.30155874  0.94545455  0.50143340  1  0.084726  -0.00068  0.947222  -0.001  0.088919  -0.00065  1.019798  -0.001  0.091721  -0.000445  1.01507  -0.001  0.108871  0.087251  -0.000717  1.022387  -0.001
H  H5  1  0.69843684  0.05455048  0.49857370  1  0.084723  0.000679  0.947278  0.001  0.088918  0.000649  1.019837  0.001  0.091719  0.000444  1.01511  0.001  0.108879  0.087248  0.000717  1.022422  0.001
H  H6  1  0.15779219  0.74769690  0.29095757  1  0.119091  -0.000157  0.960975  0.0  0.128354  -0.000314  1.020929  0.0  0.131195  -0.000296  1.021438  0.0  0.106525  0.126441  -0.000258  1.020418  0.0
H  H7  1  0.84221290  0.25230504  0.70904610  1  0.118983  0.000157  0.961072  0.0  0.128277  0.000314  1.020996  0.0  0.131116  0.000296  1.021508  0.0  0.106507  0.126372  0.000258  1.020489  0.0
H  H8  1  0.00217031  0.80565933  0.12735806  1  0.085489  -0.000306  0.961975  -0.001  0.092694  2e-06  1.026799  0.0  0.095989  9.3e-05  1.022701  0.0  0.10457  0.090368  -0.000108  1.029259  0.0
H  H9  1  0.99783398  0.19434365  0.87264191  1  0.085448  0.000315  0.961989  0.001  0.092632  -2e-06  1.026841  0.0  0.095923  -9.3e-05  1.022746  0.0  0.104548  0.09031  0.000108  1.029308  0.0
H  H10  1  0.09761002  0.62790411  0.87680375  1  0.073794  4.2e-05  0.968703  0.0  0.072596  5.3e-05  1.049297  0.0  0.076708  3.1e-05  1.044322  0.0  0.104774  0.069401  5.4e-05  1.052987  0.0
H  H11  1  0.90237121  0.37209683  0.12319439  1  0.073782  -4.3e-05  0.968785  0.0  0.072598  -5.3e-05  1.049332  0.0  0.076713  -3.1e-05  1.044355  0.0  0.104793  0.069403  -5.3e-05  1.053019  0.0
H  H12  1  0.83783546  0.50756952  0.74855464  1  0.124431  1.4e-05  0.944215  0.0  0.131876  2.8e-05  1.003003  0.0  0.13625  2.9e-05  1.001635  0.0  0.102117  0.12839  -4e-06  1.004966  0.0
H  H13  1  0.16214756  0.49242631  0.25143274  1  0.124431  -8e-06  0.944255  0.0  0.131893  -2.7e-05  1.00301  0.0  0.136262  -3e-05  1.001657  0.0  0.102103  0.128375  4e-06  1.005002  0.0
H  H14  1  0.77329626  0.33659829  0.52472681  1  0.070647  -0.002148  0.980267  0.0  0.081572  -0.00217  1.043372  -0.001  0.084618  -0.00176  1.040195  0.0  0.096142  0.079909  -0.002404  1.045008  -0.001
H  H15  1  0.22671120  0.66339237  0.47526555  1  0.070638  0.002156  0.980283  0.0  0.081549  0.00217  1.04341  0.001  0.084599  0.00176  1.040229  0.0  0.096161  0.079883  0.002404  1.045048  0.001
H  H16  1  0.80157899  0.59378774  0.10293808  1  0.076579  -0.000516  0.949823  -0.001  0.08557  -0.000266  1.012712  0.0  0.088734  -0.000134  1.008698  0.0  0.106345  0.083331  -0.00038  1.01575  -0.001
H  H17  1  0.19843356  0.40620703  0.89705550  1  0.076678  0.000518  0.949721  0.001  0.085596  0.000266  1.012702  0.0  0.088714  0.000134  1.008739  0.0  0.106341  0.083363  0.00038  1.015752  0.001
H  H18  1  0.62572400  0.69881752  0.00101312  1  0.132371  -0.000179  0.95534  0.0  0.136329  -0.000264  1.023688  0.0  0.14153  -0.000223  1.020453  0.0  0.107336  0.131933  -0.000272  1.027095  0.0
H  H19  1  0.37428443  0.30117726  0.99897555  1  0.132328  0.000175  0.955427  0.0  0.13629  0.000264  1.023757  0.0  0.141486  0.000223  1.020528  0.0  0.107305  0.131896  0.000272  1.027171  0.0
H  H20  1  0.43204909  0.53583269  0.79381289  1  0.080025  -0.000776  0.964513  -0.001  0.083426  -0.000937  1.042563  -0.001  0.085848  -0.00074  1.038838  -0.001  0.112347  0.081079  -0.001066  1.04572  -0.002
H  H21  1  0.56795095  0.46415696  0.20617802  1  0.080066  0.00077  0.964338  0.001  0.083445  0.000936  1.042422  0.001  0.085874  0.00074  1.038685  0.001  0.11232  0.081093  0.001066  1.045578  0.002
H  H22  1  0.43472885  0.20953616  0.15805569  1  0.079636  -8e-06  0.940106  0.0  0.085972  3e-06  1.007349  0.0  0.089178  8e-06  1.004526  0.0  0.106093  0.08441  2.6e-05  1.007965  0.0
H  H23  1  0.56526794  0.79046991  0.84193889  1  0.079604  -3e-06  0.940183  0.0  0.085953  -3e-06  1.007409  0.0  0.089158  -8e-06  1.004586  0.0  0.106082  0.084403  -2.6e-05  1.008026  0.0
H  H24  1  0.61240188  0.18468274  0.33147115  1  0.115246  -0.001283  0.974138  0.0  0.125463  -0.001357  1.034016  0.0  0.129402  -0.001094  1.032478  0.0  0.095906  0.122931  -0.00147  1.035208  0.0
H  H25  1  0.38758801  0.81532436  0.66852907  1  0.115282  0.001298  0.974118  0.0  0.125452  0.001357  1.034022  0.0  0.129392  0.001095  1.032485  0.0  0.095903  0.122935  0.001469  1.0352  0.0
H  H26  1  0.83942384  0.12671525  0.30636277  1  0.085968  0.000309  0.938981  0.0  0.090112  0.00034  1.0105  0.0  0.093636  0.000258  1.005514  0.0  0.112123  0.087558  0.000348  1.01414  0.0
H  H27  1  0.16056885  0.87329493  0.69364084  1  0.086042  -0.000314  0.938915  0.0  0.090033  -0.00034  1.010576  0.0  0.093556  -0.000259  1.00559  0.0  0.112124  0.087483  -0.000349  1.014218  0.0
C  C28  1  0.15383313  0.11477073  0.35812951  1  0.356142  0.004649  3.712998  0.005  0.334442  0.000295  3.988146  0.001  0.353417  0.001125  4.000154  0.002  0.242357  0.322622  -0.000198  3.980452  0.0
C  C29  1  0.84617014  0.88523225  0.64187176  1  0.356079  -0.004644  3.712707  -0.005  0.33434  -0.0003  3.987845  -0.001  0.353317  -0.001123  3.999858  -0.002  0.242302  0.322534  0.000198  3.980149  0.0
C  C30  1  0.23415576  0.96134340  0.42607793  1  0.201538  0.005734  3.640297  0.006  0.161123  0.002196  3.900407  0.003  0.176835  0.002946  3.913079  0.004  0.062895  0.152381  0.001674  3.889859  0.002
C  C31  1  0.76584309  0.03866676  0.57392721  1  0.201363  -0.005729  3.640254  -0.006  0.160977  -0.002198  3.900305  -0.003  0.176687  -0.002941  3.91298  -0.004  0.062817  0.152246  -0.001671  3.889765  -0.002
C  C32  1  0.15476227  0.85274101  0.31002443  1  -0.160977  -0.004166  3.703712  -0.005  -0.175982  -0.001582  3.957985  -0.002  -0.18679  -0.001852  3.97502  -0.002  -0.087544  -0.168917  -0.001142  3.945524  -0.002
C  C33  1  0.84524044  0.14726812  0.68998207  1  -0.160718  0.004166  3.703631  0.005  -0.175769  0.001594  3.9579  0.002  -0.186576  0.001846  3.974936  0.002  -0.087499  -0.168712  0.001142  3.945457  0.002
C  C34  1  0.07049015  0.88370968  0.22085730  1  0.199128  0.006407  3.655825  0.005  0.16703  0.003307  3.903024  0.002  0.182128  0.003443  3.909845  0.002  0.057568  0.157479  0.002812  3.89895  0.001
C  C35  1  0.92951285  0.11629637  0.77914892  1  0.199053  -0.006443  3.655941  -0.005  0.166936  -0.003313  3.903182  -0.002  0.182035  -0.003439  3.910014  -0.002  0.057555  0.157381  -0.002812  3.899132  -0.001
C  C36  1  0.11071999  0.43565290  0.60860398  1  0.34394  0.0002  3.819857  0.0  0.330646  0.000371  4.107886  0.0  0.344851  0.000447  4.123374  0.0  0.236586  0.321428  0.000228  4.097018  0.0
C  C37  1  0.88928794  0.56434801  0.39140236  1  0.343962  -0.000101  3.820095  0.0  0.330716  -0.000383  4.108045  0.0  0.34492  -0.00045  4.12353  0.0  0.236622  0.321498  -0.000228  4.09717  0.0
C  C38  1  0.06001612  0.55327068  0.77858232  1  0.18431  2.3e-05  3.67771  0.0  0.156233  0.000141  3.937643  0.0  0.167287  0.000105  3.94951  0.0  0.059511  0.149392  6.4e-05  3.930167  0.0
C  C39  1  0.93997668  0.44672718  0.22141679  1  0.184202  4.9e-05  3.677928  0.0  0.156119  -0.000137  3.937861  0.0  0.167176  -0.000113  3.949715  0.0  0.059423  0.149271  -6.4e-05  3.930378  0.0
C  C40  1  0.91805063  0.48605868  0.70868156  1  -0.195764  0.000348  3.727142  0.0  -0.201383  1.7e-05  3.969184  0.0  -0.210592  4.6e-05  3.986854  0.0  -0.096902  -0.197092  -1.6e-05  3.958905  0.0
C  C41  1  0.08194191  0.51393815  0.29131323  1  -0.195772  -0.000409  3.727278  0.0  -0.201393  -3.4e-05  3.969301  0.0  -0.210604  -3e-05  3.986968  0.0  -0.096917  -0.197078  1.5e-05  3.959023  0.0
C  C42  1  0.88272777  0.39204463  0.58434096  1  0.173953  -0.002652  3.707862  -0.003  0.145655  -0.002525  3.962623  -0.003  0.154955  -0.002005  3.976008  -0.003  0.053381  0.140309  -0.003002  3.951848  -0.004
C  C43  1  0.11727708  0.60795219  0.41565534  1  0.174  0.002675  3.707894  0.003  0.145693  0.002532  3.962679  0.003  0.154993  0.001994  3.976061  0.003  0.053386  0.14035  0.003002  3.951895  0.004
C  C44  1  0.58950186  0.31476512  0.86114118  1  0.345962  0.005149  3.765264  0.005  0.331809  0.001268  4.043225  0.002  0.351145  0.002123  4.055957  0.003  0.23968  0.318884  0.000444  4.035343  0.001
C  C45  1  0.41049947  0.68522555  0.13885353  1  0.346057  -0.005156  3.76526  -0.005  0.331876  -0.001266  4.043287  -0.002  0.351214  -0.002124  4.056023  -0.003  0.239683  0.318949  -0.000444  4.035392  -0.001
C  C46  1  0.71306372  0.52967812  0.01494035  1  0.196605  0.00619  3.668  0.006  0.168567  0.002683  3.92082  0.003  0.181781  0.003132  3.931066  0.003  0.066154  0.159507  0.002071  3.9145  0.002
C  C47  1  0.28694733  0.47031458  0.98505599  1  0.196518  -0.006211  3.66799  -0.006  0.168515  -0.002679  3.920846  -0.003  0.181763  -0.003132  3.931101  -0.003  0.066098  0.159444  -0.00207  3.914548  -0.002
C  C48  1  0.61778434  0.58863776  0.95853900  1  -0.165317  -0.007375  3.680858  -0.008  -0.17987  -0.004213  3.932691  -0.005  -0.189682  -0.004002  3.950433  -0.005  -0.088028  -0.174272  -0.004044  3.922823  -0.005
C  C49  1  0.38222387  0.41135598  0.04145467  1  -0.165358  0.00739  3.681091  0.008  -0.179911  0.00421  3.932939  0.005  -0.189719  0.003996  3.950663  0.005  -0.088018  -0.174324  0.004043  3.923087  0.005
C  C50  1  0.51087509  0.49925822  0.84536932  1  0.189147  0.004529  3.637061  0.005  0.154126  0.000821  3.892959  0.002  0.166667  0.001975  3.908718  0.003  0.062467  0.14566  0.000113  3.884172  0.001
C  C51  1  0.48911628  0.50072937  0.15462567  1  0.189183  -0.00451  3.637079  -0.005  0.154222  -0.00082  3.892948  -0.002  0.166763  -0.001972  3.908701  -0.003  0.062511  0.145754  -0.000112  3.884152  -0.001
C  C52  1  0.67821993  0.13465957  0.04566715  1  0.351191  0.000195  3.756722  0.0  0.335875  3.5e-05  4.032961  0.0  0.350919  4.9e-05  4.046048  0.0  0.241185  0.326342  2.7e-05  4.024402  0.0
C  C53  1  0.32177929  0.86533930  0.95433471  1  0.351311  -0.000184  3.756326  0.0  0.335963  -3.5e-05  4.03262  0.0  0.351001  -4.8e-05  4.04571  0.0  0.241204  0.326423  -2.6e-05  4.024072  0.0
C  C54  1  0.53525263  0.18501570  0.15415354  1  0.182523  0.000345  3.67729  0.0  0.150365  0.000122  3.943805  0.0  0.161929  0.000102  3.956592  0.0  0.061277  0.14319  0.000238  3.933243  0.0
C  C55  1  0.46474601  0.81498524  0.84584117  1  0.182461  -0.000257  3.677082  0.0  0.150272  -0.000127  3.943597  0.0  0.161835  -9.5e-05  3.956388  0.0  0.06119  0.143075  -0.000238  3.93305  0.0
C  C56  1  0.63303729  0.17100511  0.24958248  1  -0.174822  -0.00083  3.699342  -0.001  -0.187967  -0.001002  3.954124  -0.001  -0.199885  -0.000832  3.974891  -0.001  -0.091009  -0.179847  -0.001198  3.939354  -0.001
C  C57  1  0.36695024  0.82900508  0.75041518  1  -0.174867  0.000691  3.699159  0.001  -0.187929  0.00102  3.953853  0.001  -0.199849  0.000813  3.97462  0.001  -0.090948  -0.179833  0.001197  3.939118  0.001
C  C58  1  0.75693959  0.13819570  0.23557281  1  0.205118  0.000499  3.627676  0.0  0.164366  0.000354  3.892109  0.0  0.177093  0.000281  3.903105  0.0  0.063141  0.156636  0.000483  3.884521  0.0
C  C59  1  0.24305055  0.86181243  0.76442863  1  0.205089  -0.000408  3.627824  0.0  0.16448  -0.000365  3.892153  0.0  0.177199  -0.000266  3.90316  0.0  0.06309  0.15675  -0.000483  3.884579  0.0
S  S60  1  0.15221672  0.27864585  0.36894196  1  0.044573  0.001323  2.549019  0.001  0.033128  -9e-05  2.942249  0.0  0.038444  -6.4e-05  2.932938  0.0  0.065789  0.027659  4e-05  2.948337  0.0
S  S61  1  0.84779855  0.72136429  0.63106571  1  0.0446  -0.001335  2.54897  -0.001  0.033169  9.4e-05  2.942205  0.0  0.038474  6.2e-05  2.9329  0.0  0.065792  0.027686  -3.9e-05  2.948304  0.0
S  S62  1  0.25201889  0.41173184  0.55439261  1  -0.004461  0.002381  2.582256  0.001  -0.019823  0.001498  2.984636  0.0  -0.022943  0.001561  2.972769  0.0  0.047714  -0.017276  0.001396  2.993192  0.0
S  S63  1  0.74798899  0.58827318  0.44561212  1  -0.004522  -0.002369  2.582215  -0.001  -0.019902  -0.001507  2.984588  0.0  -0.023026  -0.001561  2.972723  0.0  0.047657  -0.017366  -0.001396  2.993142  0.0
S  S64  1  0.72162798  0.10387028  0.91485549  1  0.003441  -0.00145  2.533452  -0.001  -0.008444  -0.000555  2.930426  0.0  -0.002691  6.8e-05  2.920593  0.0  0.051573  -0.014791  -0.000892  2.937488  -0.001
S  S65  1  0.27836955  0.89611730  0.08514025  1  0.003363  0.001458  2.533416  0.001  -0.008506  0.00056  2.930405  0.0  -0.002762  -7e-05  2.920578  0.0  0.051532  -0.01486  0.000892  2.937464  0.001
S  S66  1  0.55201776  0.13432598  0.79977779  1  0.004372  0.001145  2.483381  -0.001  -0.019512  0.000879  2.876204  -0.001  -0.023461  0.001218  2.870517  -0.001  0.050728  -0.01642  0.000685  2.880933  -0.001
S  S67  1  0.44798535  0.86566776  0.20022083  1  0.004356  -0.001149  2.483227  0.001  -0.019501  -0.000875  2.876053  0.001  -0.023453  -0.001218  2.870372  0.001  0.050685  -0.016425  -0.000685  2.880772  0.001
Br  Br68  1  0.13030962  0.18168625  0.07356751  1  -0.525998  -0.001539  1.304682  -0.001  -0.476274  -0.00025  1.674269  0.0  -0.500685  -3.4e-05  1.648772  0.0  -0.265654  -0.454283  -0.000383  1.685806  0.0
Br  Br69  1  0.86969425  0.81831464  0.92644714  1  -0.525982  0.001519  1.304697  0.001  -0.476255  0.000258  1.674296  0.0  -0.50067  2.7e-05  1.648801  0.0  -0.265629  -0.454264  0.000369  1.685841  0.0
Br  Br70  1  0.19747746  0.16244529  0.69981631  1  -0.466483  -0.169214  0.925919  -0.161  -0.457023  -0.127197  1.208736  -0.125  -0.490192  -0.108375  1.192031  -0.11  -0.281671  -0.445055  -0.128634  1.224075  -0.124
Br  Br71  1  0.80252994  0.83754019  0.30019900  1  -0.466478  0.169208  0.925943  0.161  -0.457017  0.12719  1.208757  0.125  -0.490199  0.10837  1.192064  0.11  -0.281702  -0.445081  0.12865  1.224092  0.124
Br  Br72  1  0.53960180  0.25868198  0.53772997  1  -0.517687  -0.137457  0.935827  -0.131  -0.50301  -0.1082  1.210766  -0.106  -0.533513  -0.091141  1.190689  -0.092  -0.298368  -0.490503  -0.11236  1.226229  -0.109
Br  Br73  1  0.46039941  0.74132100  0.46227001  1  -0.51766  0.137459  0.935869  0.131  -0.502957  0.108195  1.210789  0.106  -0.533467  0.091137  1.190713  0.092  -0.298367  -0.490474  0.112366  1.226252  0.109
N  N74  1  0.07003403  0.01435871  0.24413467  1  -0.349431  -0.01441  3.284488  -0.019  -0.277302  -0.004644  3.565798  -0.007  -0.290607  -0.002964  3.567697  -0.005  -0.34891  -0.270182  -0.007761  3.564114  -0.011
N  N75  1  0.92997691  0.98565041  0.75587466  1  -0.349388  0.014433  3.284208  0.019  -0.277153  0.004642  3.565427  0.007  -0.290471  0.002962  3.567342  0.005  -0.34883  -0.270042  0.007756  3.563768  0.011
N  N76  1  0.23348645  0.09227681  0.45008800  1  -0.348978  -0.06463  3.366344  -0.081  -0.285806  -0.0546  3.63974  -0.071  -0.320231  -0.049276  3.662896  -0.067  -0.34917  -0.265876  -0.052947  3.625466  -0.067
N  N77  1  0.76650810  0.90772822  0.54991652  1  -0.348889  0.064647  3.366211  0.081  -0.285697  0.054614  3.639558  0.071  -0.320138  0.049283  3.662749  0.067  -0.349132  -0.26579  0.052957  3.625308  0.067
N  N78  1  0.15826894  0.52861592  0.72849283  1  -0.367301  7.1e-05  3.021547  0.0  -0.330746  -0.000135  3.293769  0.0  -0.347315  -0.000103  3.309166  0.0  -0.316072  -0.319899  -0.000293  3.283561  0.0
N  N79  1  0.84172922  0.47138706  0.27151105  1  -0.367236  -0.000159  3.021724  0.0  -0.330694  0.000149  3.293923  0.0  -0.347266  0.000104  3.309329  0.0  -0.316029  -0.319853  0.000293  3.283713  0.0
N  N80  1  0.97934991  0.36495119  0.53266777  1  -0.378523  0.000114  3.073934  0.0  -0.342147  -0.000306  3.34049  0.0  -0.357919  -9.6e-05  3.35637  0.0  -0.319389  -0.330359  -0.000723  3.32835  -0.001
N  N81  1  0.02065806  0.63504561  0.46733474  1  -0.378478  -0.000176  3.074119  0.0  -0.342101  0.000314  3.340623  0.0  -0.357875  0.000101  3.35651  0.0  -0.319379  -0.33031  0.000723  3.328461  0.001
N  N82  1  0.49777632  0.36231719  0.79439188  1  -0.364908  -0.063243  3.344567  -0.079  -0.300035  -0.054835  3.618974  -0.071  -0.333231  -0.0494  3.639464  -0.067  -0.352286  -0.282105  -0.05241  3.60827  -0.066
N  N83  1  0.50221730  0.63767553  0.20560478  1  -0.364939  0.063249  3.344537  0.079  -0.300097  0.054835  3.618973  0.071  -0.333311  0.049403  3.639495  0.067  -0.352235  -0.28217  0.052419  3.608256  0.067
N  N84  1  0.69797919  0.39358043  0.96745710  1  -0.365978  -0.010556  3.084328  -0.013  -0.322444  -0.007144  3.342027  -0.009  -0.341062  -0.005511  3.356422  -0.007  -0.308678  -0.310326  -0.008483  3.332782  -0.01
N  N85  1  0.30201982  0.60640921  0.03253355  1  -0.365983  0.010568  3.084309  0.013  -0.322412  0.00714  3.341989  0.009  -0.341027  0.005513  3.356367  0.007  -0.308608  -0.310299  0.008484  3.332745  0.01
N  N86  1  0.78102807  0.11923318  0.13303428  1  -0.361994  0.000442  3.308548  0.001  -0.289256  -8.5e-05  3.607562  0.0  -0.302457  -5.4e-05  3.611104  0.0  -0.356079  -0.282509  0.000281  3.603881  0.0
N  N87  1  0.21896392  0.88076981  0.86696807  1  -0.362034  -0.000465  3.308525  -0.001  -0.289247  7.9e-05  3.6074  0.0  -0.302443  4.9e-05  3.610953  0.0  -0.356003  -0.282501  -0.000284  3.603744  0.0
N  N88  1  0.55791417  0.16736592  0.05187845  1  -0.364634  -9.6e-05  3.066703  0.0  -0.328405  -0.000112  3.337545  0.0  -0.345133  -0.0001  3.35326  0.0  -0.313527  -0.316558  -0.000184  3.325847  0.0
N  N89  1  0.44208622  0.83263810  0.94811471  1  -0.364624  7.4e-05  3.066562  0.0  -0.328424  0.000109  3.337505  0.0  -0.345147  0.000101  3.353213  0.0  -0.313522  -0.316572  0.000184  3.325822  0.0
