# generated using pymatgen
data_NaH9C9S(NO4)2
_symmetry_space_group_name_H-M   'P 1'
_cell_length_a   7.87049001
_cell_length_b   11.63584453
_cell_length_c   14.53400000
_cell_angle_alpha   90.00000000
_cell_angle_beta   91.06831051
_cell_angle_gamma   90.00000000
_symmetry_Int_Tables_number   1
_chemical_formula_structural   NaH9C9S(NO4)2
_chemical_formula_sum   'Na4 H36 C36 S4 N8 O32'
_cell_volume   1330.78942461
_cell_formula_units_Z   4
loop_
 _symmetry_equiv_pos_site_id
 _symmetry_equiv_pos_as_xyz
  1  'x, y, z'
loop_
 _atom_site_type_symbol
 _atom_site_label
 _atom_site_symmetry_multiplicity
 _atom_site_fract_x
 _atom_site_fract_y
 _atom_site_fract_z
 _atom_site_occupancy
 _atom_site_hle17_bader_spin_density
 _atom_site_hle17_ddec_charge
 _atom_site_hle17_ddec_spin_density
 _atom_site_hle17_ddec_sum_bond_order
 _atom_site_hle17_magmom
 _atom_site_hse06_10hf_bader_spin_density
 _atom_site_hse06_10hf_ddec_charge
 _atom_site_hse06_10hf_ddec_spin_density
 _atom_site_hse06_10hf_ddec_sum_bond_order
 _atom_site_hse06_10hf_magmom
 _atom_site_hse06_bader_spin_density
 _atom_site_hse06_ddec_charge
 _atom_site_hse06_ddec_spin_density
 _atom_site_hse06_ddec_sum_bond_order
 _atom_site_hse06_magmom
 _atom_site_pbe_bader_charge
 _atom_site_pbe_bader_spin_density
 _atom_site_pbe_cm5_charge
 _atom_site_pbe_ddec_charge
 _atom_site_pbe_ddec_spin_density
 _atom_site_pbe_ddec_sum_bond_order
 _atom_site_pbe_magmom
Na  Na0  1  0.56278960  0.14489365  0.34100759  1  0  0.901627  0  0.376206  0  0  0.851221  0  0.535679  0  0  0.862189  0  0.513862  0  0.888391  0  0.676954  0.843041  0  0.551336  0
Na  Na1  1  0.06278845  0.35510787  0.84100548  1  0  0.901638  0  0.376189  0  0  0.85121  0  0.535705  0  0  0.862177  0  0.51389  0  0.888407  0  0.676985  0.843032  0  0.551364  0
Na  Na2  1  0.43720761  0.85510596  0.65899452  1  0  0.901638  0  0.3762  0  0  0.851225  0  0.535692  0  0  0.862195  0  0.513874  0  0.888374  0  0.676969  0.843046  0  0.551351  0
Na  Na3  1  0.93721003  0.64489260  0.15899457  1  0  0.901627  0  0.376217  0  0  0.851224  0  0.535687  0  0  0.862193  0  0.51387  0  0.888396  0  0.676968  0.843047  0  0.551347  0
H  H4  1  0.54270350  0.20450170  0.54229647  1  0  0.40171  0  0.896412  0  0  0.370157  0  0.975455  0  0  0.383063  0  0.959514  0  0.659488  0  0.30195  0.36111  0  0.984825  0
H  H5  1  0.04270997  0.29549810  0.04229168  1  0  0.401673  0  0.89645  0  0  0.370117  0  0.975498  0  0  0.383018  0  0.959575  0  0.659446  0  0.301916  0.361071  0  0.984866  0
H  H6  1  0.45729753  0.79549963  0.45770774  1  0  0.401643  0  0.896478  0  0  0.370137  0  0.975446  0  0  0.383044  0  0.959533  0  0.659354  0  0.301928  0.361088  0  0.984817  0
H  H7  1  0.95729232  0.70449979  0.95770428  1  0  0.401682  0  0.896415  0  0  0.370141  0  0.975445  0  0  0.383049  0  0.959526  0  0.65947  0  0.301946  0.361093  0  0.984815  0
H  H8  1  0.91088816  0.77296839  0.34033264  1  0  0.410775  0  0.870128  0  0  0.382018  0  0.944785  0  0  0.394002  0  0.931728  0  0.667556  0  0.312028  0.373581  0  0.953894  0
H  H9  1  0.41089082  0.72703017  0.84033332  1  0  0.41087  0  0.869943  0  0  0.382075  0  0.944676  0  0  0.394061  0  0.931614  0  0.667562  0  0.312044  0.373638  0  0.953787  0
H  H10  1  0.08911286  0.22703208  0.65966744  1  0  0.410766  0  0.870137  0  0  0.381998  0  0.944807  0  0  0.393981  0  0.931753  0  0.667599  0  0.312044  0.373562  0  0.953916  0
H  H11  1  0.58910766  0.27296944  0.15966811  1  0  0.410874  0  0.869955  0  0  0.382086  0  0.94468  0  0  0.394071  0  0.931618  0  0.667554  0  0.312035  0.373649  0  0.953791  0
H  H12  1  0.25046124  0.46656261  0.37103777  1  0  0.124023  0  0.93124  0  0  0.131612  0  0.992686  0  0  0.136231  0  0.988378  0  0.132612  0  0.117661  0.128239  0  0.995868  0
H  H13  1  0.75045730  0.03343891  0.87103570  1  0  0.124011  0  0.931225  0  0  0.131597  0  0.992672  0  0  0.136214  0  0.98837  0  0.132583  0  0.117657  0.128226  0  0.995851  0
H  H14  1  0.74954741  0.53343786  0.62896583  1  0  0.123938  0  0.931256  0  0  0.131553  0  0.992675  0  0  0.136169  0  0.988374  0  0.132577  0  0.117642  0.128179  0  0.995856  0
H  H15  1  0.24954245  0.96655812  0.12896230  1  0  0.124002  0  0.931256  0  0  0.131592  0  0.992695  0  0  0.13621  0  0.988391  0  0.132614  0  0.117648  0.128219  0  0.995873  0
H  H16  1  0.05702288  0.71396107  0.56336986  1  0  0.113329  0  0.929377  0  0  0.122141  0  0.992291  0  0  0.126394  0  0.988089  0  0.097709  0  0.117692  0.119021  0  0.99539  0
H  H17  1  0.55702911  0.78604007  0.06337065  1  0  0.11332  0  0.929412  0  0  0.122129  0  0.992349  0  0  0.126384  0  0.98814  0  0.09775  0  0.117669  0.119009  0  0.995447  0
H  H18  1  0.94297306  0.28604284  0.43662810  1  0  0.113313  0  0.929427  0  0  0.122112  0  0.992369  0  0  0.126364  0  0.988164  0  0.097769  0  0.117665  0.118992  0  0.995468  0
H  H19  1  0.44297573  0.21395525  0.93662878  1  0  0.113358  0  0.929398  0  0  0.122132  0  0.992363  0  0  0.126385  0  0.988155  0  0.097788  0  0.11769  0.119014  0  0.995461  0
H  H20  1  0.34666892  0.42253658  0.66152130  1  0  0.129951  0  0.927323  0  0  0.137193  0  0.989247  0  0  0.141762  0  0.984989  0  0.146524  0  0.121147  0.133775  0  0.992484  0
H  H21  1  0.84667007  0.07746580  0.16151928  1  0  0.129957  0  0.927306  0  0  0.137203  0  0.989212  0  0  0.141795  0  0.984923  0  0.146517  0  0.121152  0.133779  0  0.992458  0
H  H22  1  0.65332829  0.57746904  0.33848218  1  0  0.129968  0  0.927291  0  0  0.137216  0  0.989201  0  0  0.141808  0  0.984911  0  0.146486  0  0.121194  0.133792  0  0.992445  0
H  H23  1  0.15332206  0.92253639  0.83847865  1  0  0.129946  0  0.927279  0  0  0.137217  0  0.989154  0  0  0.14179  0  0.984891  0  0.146482  0  0.121148  0.133792  0  0.992401  0
H  H24  1  0.79238193  0.95213544  0.42471549  1  0  0.355726  0  0.9023  0  0  0.336646  0  0.966528  0  0  0.344631  0  0.959221  0  0.491816  0  0.307365  0.330962  0  0.971793  0
H  H25  1  0.29238332  0.54786483  0.92471065  1  0  0.355786  0  0.90231  0  0  0.336709  0  0.966523  0  0  0.344695  0  0.959214  0  0.491751  0  0.3074  0.331027  0  0.971785  0
H  H26  1  0.20761529  0.04786503  0.57528662  1  0  0.355677  0  0.902373  0  0  0.336608  0  0.966581  0  0  0.344593  0  0.959274  0  0.491787  0  0.30735  0.330927  0  0.97184  0
H  H27  1  0.70761897  0.45213392  0.07528600  1  0  0.35569  0  0.902312  0  0  0.336611  0  0.966541  0  0  0.344596  0  0.959232  0  0.491797  0  0.307351  0.330928  0  0.971805  0
H  H28  1  0.84584659  0.87543968  0.52410695  1  0  0.345518  0  0.871253  0  0  0.333588  0  0.923791  0  0  0.339998  0  0.918927  0  0.479022  0  0.320117  0.329056  0  0.927301  0
H  H29  1  0.34584799  0.62455888  0.02410349  1  0  0.345524  0  0.871302  0  0  0.333591  0  0.923846  0  0  0.340001  0  0.918979  0  0.478545  0  0.320111  0.329059  0  0.927356  0
H  H30  1  0.15415697  0.12456165  0.47589591  1  0  0.34554  0  0.871282  0  0  0.333609  0  0.923828  0  0  0.34002  0  0.918959  0  0.478703  0  0.320111  0.329077  0  0.927339  0
H  H31  1  0.65415939  0.37543730  0.97589390  1  0  0.345492  0  0.871284  0  0  0.333563  0  0.923824  0  0  0.339972  0  0.918962  0  0.479045  0  0.320104  0.329031  0  0.927333  0
H  H32  1  0.64050094  0.07564556  0.67307058  1  0  0.366238  0  0.896695  0  0  0.34668  0  0.959301  0  0  0.354855  0  0.951973  0  0.528732  0  0.310471  0.340883  0  0.964537  0
H  H33  1  0.14050360  0.42434909  0.17306506  1  0  0.366179  0  0.896819  0  0  0.346637  0  0.959415  0  0  0.354814  0  0.952084  0  0.528782  0  0.3104  0.340839  0  0.964655  0
H  H34  1  0.35949881  0.92435233  0.32693293  1  0  0.366234  0  0.896756  0  0  0.346684  0  0.959355  0  0  0.35486  0  0.952025  0  0.528763  0  0.31042  0.340884  0  0.9646  0
H  H35  1  0.85949742  0.57564966  0.82693157  1  0  0.366281  0  0.896739  0  0  0.346791  0  0.95926  0  0  0.354968  0  0.951928  0  0.528734  0  0.310456  0.34099  0  0.964509  0
H  H36  1  0.76873126  0.95438453  0.66951248  1  0  0.35406  0  0.857174  0  0  0.346942  0  0.899048  0  0  0.353561  0  0.893937  0  0.466444  0  0.329654  0.34224  0  0.902797  0
H  H37  1  0.26873138  0.54561145  0.16950832  1  0  0.354071  0  0.85714  0  0  0.346956  0  0.89901  0  0  0.353575  0  0.893898  0  0.466578  0  0.329653  0.342255  0  0.90276  0
H  H38  1  0.23126850  0.04561336  0.33049034  1  0  0.354078  0  0.857155  0  0  0.346958  0  0.899034  0  0  0.353576  0  0.893921  0  0.466547  0  0.329633  0.342255  0  0.902784  0
H  H39  1  0.73126964  0.45438730  0.83048901  1  0  0.354068  0  0.857182  0  0  0.346957  0  0.899046  0  0  0.353576  0  0.893933  0  0.466505  0  0.329645  0.342254  0  0.902798  0
C  C40  1  0.39781694  0.32456174  0.49220903  1  0  0.65737  0  3.845069  0  0  0.608945  0  4.143577  0  0  0.641708  0  4.136386  0  1.553588  0  0.228294  0.586699  0  4.14809  0
C  C41  1  0.89781046  0.17544236  0.99220694  1  0  0.657373  0  3.844955  0  0  0.608952  0  4.143465  0  0  0.641742  0  4.136217  0  1.553696  0  0.228308  0.586705  0  4.147981  0
C  C42  1  0.60218790  0.67543959  0.50779109  1  0  0.657488  0  3.845068  0  0  0.609141  0  4.143469  0  0  0.641907  0  4.136266  0  1.553551  0  0.228379  0.586894  0  4.147986  0
C  C43  1  0.10218294  0.82455983  0.00779100  1  0  0.657438  0  3.844972  0  0  0.609013  0  4.143499  0  0  0.641783  0  4.136291  0  1.553597  0  0.228332  0.586768  0  4.148016  0
C  C44  1  0.07559039  0.66113207  0.37770966  1  0  0.669746  0  3.802937  0  0  0.62328  0  4.094936  0  0  0.656157  0  4.087118  0  1.518731  0  0.238352  0.600915  0  4.099918  0
C  C45  1  0.57559154  0.83886820  0.87770764  1  0  0.669589  0  3.803031  0  0  0.623044  0  4.095141  0  0  0.655918  0  4.087329  0  1.518745  0  0.238261  0.60068  0  4.100121  0
C  C46  1  0.92441190  0.33886840  0.62229181  1  0  0.669588  0  3.803073  0  0  0.623066  0  4.095164  0  0  0.655941  0  4.087348  0  1.518742  0  0.238285  0.600701  0  4.100145  0
C  C47  1  0.42440822  0.16112711  0.12229242  1  0  0.669806  0  3.802957  0  0  0.623288  0  4.095024  0  0  0.656166  0  4.0872  0  1.518734  0  0.238356  0.600923  0  4.100008  0
C  C48  1  0.30893409  0.43416445  0.51385945  1  0  -0.080617  0  3.761469  0  0  -0.054963  0  4.00139  0  0  -0.066763  0  4.026513  0  0.036423  0  -0.014531  -0.047565  0  3.984707  0
C  C49  1  0.80893523  0.06583622  0.01385881  1  0  -0.080615  0  3.76165  0  0  -0.054977  0  4.001594  0  0  -0.066778  0  4.026702  0  0.037244  0  -0.014541  -0.047578  0  3.984908  0
C  C50  1  0.69106694  0.56583774  0.48614200  1  0  -0.080727  0  3.761799  0  0  -0.055094  0  4.001718  0  0  -0.066895  0  4.026846  0  0.037345  0  -0.014567  -0.047696  0  3.985034  0
C  C51  1  0.19106325  0.93416253  0.98613987  1  0  -0.08065  0  3.761468  0  0  -0.055053  0  4.001478  0  0  -0.066843  0  4.026572  0  0.036378  0  -0.014581  -0.047656  0  3.984793  0
C  C52  1  0.23921856  0.49784697  0.44123869  1  0  -0.032009  0  3.658093  0  0  -0.07353  0  3.907893  0  0  -0.068418  0  3.924891  0  -0.044997  0  -0.059079  -0.076462  0  3.896297  0
C  C53  1  0.73921843  0.00215369  0.94123804  1  0  -0.032021  0  3.658069  0  0  -0.073531  0  3.907861  0  0  -0.068422  0  3.924858  0  -0.045012  0  -0.059095  -0.076461  0  3.896265  0
C  C54  1  0.76078628  0.50215350  0.55876142  1  0  -0.031909  0  3.658071  0  0  -0.073427  0  3.907858  0  0  -0.068316  0  3.924857  0  -0.044957  0  -0.059075  -0.076361  0  3.896272  0
C  C55  1  0.26078259  0.99784334  0.05875998  1  0  -0.031986  0  3.658077  0  0  -0.073467  0  3.907843  0  0  -0.06836  0  3.924838  0  -0.044975  0  -0.059066  -0.076403  0  3.896261  0
C  C56  1  0.15162174  0.59996419  0.45828740  1  0  -0.07766  0  3.757078  0  0  -0.053026  0  3.995922  0  0  -0.064294  0  4.020175  0  -0.026622  0  -0.011536  -0.045963  0  3.979771  0
C  C57  1  0.65162416  0.90003523  0.95828677  1  0  -0.077643  0  3.757042  0  0  -0.052994  0  3.995899  0  0  -0.064262  0  4.02015  0  -0.026606  0  -0.011532  -0.045933  0  3.979748  0
C  C58  1  0.84838055  0.40003542  0.54171269  1  0  -0.077635  0  3.756973  0  0  -0.05301  0  3.995864  0  0  -0.064279  0  4.020116  0  -0.02662  0  -0.011546  -0.045949  0  3.979711  0
C  C59  1  0.34838067  0.09996180  0.04171197  1  0  -0.077635  0  3.757187  0  0  -0.053012  0  3.996059  0  0  -0.064282  0  4.020314  0  -0.026595  0  -0.011506  -0.045951  0  3.979907  0
C  C60  1  0.13047199  0.63701951  0.54898346  1  0  -0.032392  0  3.675995  0  0  -0.077875  0  3.935642  0  0  -0.071738  0  3.951589  0  0.079344  0  -0.060472  -0.08145  0  3.924718  0
C  C61  1  0.63047568  0.86298076  0.04898284  1  0  -0.032378  0  3.676091  0  0  -0.077917  0  3.935708  0  0  -0.071756  0  3.951669  0  0.07934  0  -0.060452  -0.08149  0  3.924782  0
C  C62  1  0.86952649  0.36298182  0.45101591  1  0  -0.032419  0  3.676085  0  0  -0.077924  0  3.935685  0  0  -0.071769  0  3.951644  0  0.079312  0  -0.060448  -0.081497  0  3.924761  0
C  C63  1  0.36952789  0.13701713  0.95101726  1  0  -0.032411  0  3.676097  0  0  -0.077903  0  3.935727  0  0  -0.071759  0  3.951686  0  0.079302  0  -0.060467  -0.081477  0  3.924803  0
C  C64  1  0.20155997  0.57276375  0.62138345  1  0  -0.131918  0  3.732631  0  0  -0.10124  0  3.986388  0  0  -0.111637  0  4.009498  0  -0.159753  0  -0.011757  -0.09482  0  3.971151  0
C  C65  1  0.70156366  0.92723738  0.12138146  1  0  -0.131892  0  3.73269  0  0  -0.101091  0  3.9863  0  0  -0.111563  0  4.009514  0  -0.159693  0  -0.011773  -0.094672  0  3.971062  0
C  C66  1  0.79843724  0.42723843  0.37861865  1  0  -0.131903  0  3.732617  0  0  -0.101122  0  3.986245  0  0  -0.111576  0  4.009435  0  -0.159683  0  -0.0118  -0.094704  0  3.971009  0
C  C67  1  0.29843609  0.07276309  0.87861861  1  0  -0.131895  0  3.73266  0  0  -0.101138  0  3.986297  0  0  -0.111561  0  4.009438  0  -0.159687  0  -0.011781  -0.094719  0  3.971059  0
C  C68  1  0.29261587  0.47241436  0.60474671  1  0  -0.032324  0  3.661647  0  0  -0.076769  0  3.915889  0  0  -0.071285  0  3.932592  0  -0.067096  0  -0.062577  -0.079887  0  3.904562  0
C  C69  1  0.79261829  0.02758803  0.10474540  1  0  -0.032341  0  3.661759  0  0  -0.076814  0  3.915948  0  0  -0.07132  0  3.932651  0  -0.068023  0  -0.062541  -0.079928  0  3.904623  0
C  C70  1  0.70738261  0.52758869  0.39525540  1  0  -0.032279  0  3.661642  0  0  -0.076751  0  3.915834  0  0  -0.071262  0  3.932536  0  -0.068038  0  -0.06254  -0.079864  0  3.904513  0
C  C71  1  0.20737892  0.97241330  0.89525327  1  0  -0.032323  0  3.66154  0  0  -0.076778  0  3.915734  0  0  -0.071292  0  3.932436  0  -0.067104  0  -0.062524  -0.079891  0  3.90441  0
C  C72  1  0.71269705  0.02672260  0.54231264  1  0  0.874155  0  3.888525  0  0  0.806928  0  4.191736  0  0  0.841745  0  4.184602  0  1.897928  0  0.338122  0.783282  0  4.195861  0
C  C73  1  0.21270099  0.47327549  0.04230783  1  0  0.874143  0  3.888204  0  0  0.806983  0  4.191342  0  0  0.841796  0  4.184202  0  1.898095  0  0.338196  0.783337  0  4.195468  0
C  C74  1  0.28730016  0.97327701  0.45769016  1  0  0.87408  0  3.888368  0  0  0.806871  0  4.191566  0  0  0.841686  0  4.184432  0  1.897885  0  0.338116  0.783225  0  4.19569  0
C  C75  1  0.78730131  0.52672326  0.95768882  1  0  0.874162  0  3.888267  0  0  0.806955  0  4.191455  0  0  0.841772  0  4.184317  0  1.897926  0  0.338157  0.783309  0  4.195579  0
S  S76  1  0.17148419  0.62064683  0.73669559  1  0  1.326909  0  5.629117  0  0  1.227868  0  6.154969  0  0  1.275256  0  6.131604  0  3.177124  0  0.523109  1.195135  0  6.170232  0
S  S77  1  0.67148661  0.87935431  0.23669428  1  0  1.326941  0  5.628916  0  0  1.227814  0  6.154809  0  0  1.275222  0  6.131455  0  3.176745  0  0.523153  1.195081  0  6.170072  0
S  S78  1  0.82851175  0.37935364  0.26330512  1  0  1.32687  0  5.629014  0  0  1.22777  0  6.154895  0  0  1.275173  0  6.131535  0  3.176383  0  0.523102  1.195038  0  6.170158  0
S  S79  1  0.32850933  0.12064616  0.76330438  1  0  1.32681  0  5.629042  0  0  1.227734  0  6.154909  0  0  1.275128  0  6.131553  0  3.176639  0  0.523077  1.195003  0  6.170171  0
N  N80  1  0.80178577  0.94869263  0.49483864  1  0  -0.745571  0  3.064003  0  0  -0.71151  0  3.300343  0  0  -0.732325  0  3.292359  0  -1.281691  0  -0.58263  -0.697238  0  3.305703  0
N  N81  1  0.30178844  0.55130678  0.99483520  1  0  -0.74565  0  3.063996  0  0  -0.711607  0  3.300317  0  0  -0.732422  0  3.292333  0  -1.281325  0  -0.582675  -0.697336  0  3.305678  0
N  N82  1  0.19821144  0.05130698  0.50516346  1  0  -0.745572  0  3.06407  0  0  -0.71152  0  3.300396  0  0  -0.732335  0  3.292415  0  -1.281498  0  -0.582629  -0.697249  0  3.305755  0
N  N83  1  0.69821386  0.44869283  0.00516214  1  0  -0.745501  0  3.064019  0  0  -0.711436  0  3.300337  0  0  -0.73225  0  3.292352  0  -1.281712  0  -0.582617  -0.697166  0  3.305695  0
N  N84  1  0.70001076  0.01430579  0.63449706  1  0  -0.779109  0  3.044443  0  0  -0.739487  0  3.272278  0  0  -0.759815  0  3.261983  0  -1.309724  0  -0.599602  -0.725499  0  3.279176  0
N  N85  1  0.20001215  0.48569057  0.13449222  1  0  -0.779027  0  3.044398  0  0  -0.739472  0  3.272197  0  0  -0.759797  0  3.261895  0  -1.309832  0  -0.599545  -0.725482  0  3.279097  0
N  N86  1  0.29999027  0.98569296  0.36550646  1  0  -0.779032  0  3.044454  0  0  -0.739447  0  3.27226  0  0  -0.759776  0  3.261962  0  -1.309759  0  -0.599481  -0.725457  0  3.279158  0
N  N87  1  0.79999014  0.51430904  0.86550512  1  0  -0.779142  0  3.044455  0  0  -0.739612  0  3.272192  0  0  -0.759941  0  3.261891  0  -1.309733  0  -0.599568  -0.725621  0  3.279095  0
O  O88  1  0.47693885  0.27733097  0.56375784  1  0  -0.545855  0  2.107303  0  0  -0.49883  0  2.330257  0  0  -0.521926  0  2.31599  0  -1.17965  0  -0.326488  -0.482728  0  2.338235  0
O  O89  1  0.97694381  0.22266884  0.06375449  1  0  -0.545869  0  2.107291  0  0  -0.498835  0  2.3302  0  0  -0.52197  0  2.315996  0  -1.179531  0  -0.326466  -0.482731  0  2.338176  0
O  O90  1  0.52306725  0.72267208  0.43624573  1  0  -0.545861  0  2.107447  0  0  -0.498903  0  2.330327  0  0  -0.522017  0  2.316116  0  -1.179424  0  -0.326492  -0.482798  0  2.338307  0
O  O91  1  0.02306102  0.77732819  0.93624219  1  0  -0.545851  0  2.107256  0  0  -0.498845  0  2.330207  0  0  -0.521948  0  2.315962  0  -1.179655  0  -0.326515  -0.482741  0  2.338186  0
O  O92  1  0.39499579  0.28336147  0.41345755  1  0  -0.6199  0  1.914585  0  0  -0.582647  0  2.139035  0  0  -0.601815  0  2.12874  0  -1.175342  0  -0.361307  -0.569488  0  2.145917  0
O  O93  1  0.89497660  0.21664779  0.91345877  1  0  -0.619867  0  1.914524  0  0  -0.582615  0  2.138983  0  0  -0.601787  0  2.128667  0  -1.175442  0  -0.361303  -0.569458  0  2.14587  0
O  O94  1  0.60500651  0.71663986  0.58654598  1  0  -0.619958  0  1.914408  0  0  -0.582755  0  2.138858  0  0  -0.601924  0  2.128561  0  -1.17539  0  -0.361377  -0.569595  0  2.145741  0
O  O95  1  0.10500155  0.78336042  0.08654245  1  0  -0.619939  0  1.914541  0  0  -0.582687  0  2.139009  0  0  -0.601859  0  2.128712  0  -1.17536  0  -0.36131  -0.569528  0  2.145893  0
O  O96  1  0.97526764  0.74964133  0.39887586  1  0  -0.55318  0  2.075094  0  0  -0.499352  0  2.286856  0  0  -0.522018  0  2.273763  0  -1.18038  0  -0.328709  -0.483524  0  2.295481  0
O  O97  1  0.47526904  0.75035894  0.89887653  1  0  -0.553226  0  2.075003  0  0  -0.49933  0  2.286771  0  0  -0.521997  0  2.27368  0  -1.180369  0  -0.328698  -0.483502  0  2.295396  0
O  O98  1  0.02473592  0.25035914  0.60112218  1  0  -0.553143  0  2.075128  0  0  -0.499269  0  2.286898  0  0  -0.521937  0  2.27381  0  -1.180397  0  -0.328705  -0.48344  0  2.295521  0
O  O99  1  0.52473326  0.24963895  0.10112425  1  0  -0.553363  0  2.074942  0  0  -0.499478  0  2.286686  0  0  -0.522143  0  2.273585  0  -1.180291  0  -0.32875  -0.48365  0  2.295315  0
O  O100  1  0.09938339  0.62981419  0.29782053  1  0  -0.599023  0  1.938263  0  0  -0.560717  0  2.162358  0  0  -0.580204  0  2.151933  0  -1.162199  0  -0.340265  -0.547396  0  2.169389  0
O  O101  1  0.59938708  0.87018523  0.79781923  1  0  -0.598919  0  1.938262  0  0  -0.560586  0  2.162387  0  0  -0.580072  0  2.151964  0  -1.162266  0  -0.340204  -0.547265  0  2.169417  0
O  O102  1  0.90061637  0.37018370  0.70218022  1  0  -0.598889  0  1.938327  0  0  -0.56058  0  2.16248  0  0  -0.580066  0  2.152054  0  -1.162231  0  -0.340203  -0.547258  0  2.169511  0
O  O103  1  0.40061522  0.12981267  0.20218086  1  0  -0.599032  0  1.938348  0  0  -0.560699  0  2.162456  0  0  -0.580184  0  2.152027  0  -1.162288  0  -0.340254  -0.547377  0  2.169488  0
O  O104  1  0.21835727  0.52381071  0.79742342  1  0  -0.718727  0  1.951479  0  0  -0.669289  0  2.200749  0  0  -0.688375  0  2.184031  0  -1.36051  0  -0.389778  -0.655771  0  2.211872  0
O  O105  1  0.71836350  0.97619042  0.29742214  1  0  -0.718719  0  1.951377  0  0  -0.669309  0  2.200699  0  0  -0.68839  0  2.18397  0  -1.360034  0  -0.389801  -0.655789  0  2.211821  0
O  O106  1  0.78163740  0.47619062  0.20257728  1  0  -0.718698  0  1.95138  0  0  -0.669283  0  2.20068  0  0  -0.688372  0  2.183968  0  -1.360034  0  -0.389803  -0.655765  0  2.211804  0
O  O107  1  0.28163371  0.02380833  0.70257790  1  0  -0.718637  0  1.951458  0  0  -0.669231  0  2.200768  0  0  -0.688309  0  2.184037  0  -1.360079  0  -0.389738  -0.655712  0  2.211887  0
O  O108  1  0.99433457  0.65667000  0.74161137  1  0  -0.634803  0  1.922099  0  0  -0.587172  0  2.154113  0  0  -0.60758  0  2.140271  0  -1.318436  0  -0.327447  -0.572754  0  2.163189  0
O  O109  1  0.49433597  0.84333286  0.24161135  1  0  -0.634881  0  1.922086  0  0  -0.587142  0  2.154039  0  0  -0.607551  0  2.140197  0  -1.318523  0  -0.32748  -0.572725  0  2.163113  0
O  O110  1  0.00566391  0.34333047  0.25838868  1  0  -0.634829  0  1.922067  0  0  -0.587129  0  2.15404  0  0  -0.607534  0  2.140197  0  -1.31836  0  -0.327424  -0.572712  0  2.163115  0
O  O111  1  0.50565870  0.15667019  0.75838523  1  0  -0.634804  0  1.922014  0  0  -0.587126  0  2.153992  0  0  -0.607535  0  2.140154  0  -1.318554  0  -0.327453  -0.572712  0  2.163067  0
O  O112  1  0.29280141  0.71772014  0.74869038  1  0  -0.733824  0  1.999843  0  0  -0.680457  0  2.25436  0  0  -0.701226  0  2.236738  0  -1.338264  0  -0.395356  -0.665627  0  2.265956  0
O  O113  1  0.79280129  0.78228013  0.24868835  1  0  -0.733788  0  1.999794  0  0  -0.680447  0  2.254338  0  0  -0.701213  0  2.236709  0  -1.338297  0  -0.395365  -0.665619  0  2.265936  0
O  O114  1  0.70719580  0.28228033  0.25131104  1  0  -0.733809  0  1.999871  0  0  -0.680454  0  2.254415  0  0  -0.701219  0  2.236786  0  -1.338117  0  -0.395367  -0.665625  0  2.266012  0
O  O115  1  0.20719338  0.21771862  0.75131029  1  0  -0.733782  0  1.999893  0  0  -0.680427  0  2.254423  0  0  -0.701195  0  2.236797  0  -1.338184  0  -0.395364  -0.665599  0  2.266021  0
O  O116  1  0.64138414  0.10969208  0.49941361  1  0  -0.714219  0  1.956611  0  0  -0.658345  0  2.190274  0  0  -0.682119  0  2.177551  0  -1.216689  0  -0.371378  -0.641754  0  2.198152  0
O  O117  1  0.14139189  0.39030515  0.99940815  1  0  -0.714227  0  1.956576  0  0  -0.658352  0  2.190204  0  0  -0.682116  0  2.177482  0  -1.216883  0  -0.371426  -0.641763  0  2.198085  0
O  O118  1  0.35861053  0.89030667  0.50059054  1  0  -0.714204  0  1.956587  0  0  -0.65833  0  2.190208  0  0  -0.682102  0  2.17749  0  -1.21671  0  -0.371401  -0.641739  0  2.198088  0
O  O119  1  0.85861295  0.60969361  0.00058991  1  0  -0.714258  0  1.956508  0  0  -0.658372  0  2.19015  0  0  -0.682146  0  2.177429  0  -1.216731  0  -0.371409  -0.641782  0  2.19803  0
