# generated using pymatgen
data_CuH3C2O3
_symmetry_space_group_name_H-M   'P 1'
_cell_length_a   9.62471958
_cell_length_b   10.41235810
_cell_length_c   12.31416557
_cell_angle_alpha   111.49838188
_cell_angle_beta   106.39406456
_cell_angle_gamma   93.15012283
_symmetry_Int_Tables_number   1
_chemical_formula_structural   CuH3C2O3
_chemical_formula_sum   'Cu8 H24 C16 O24'
_cell_volume   1084.05604323
_cell_formula_units_Z   8
loop_
 _symmetry_equiv_pos_site_id
 _symmetry_equiv_pos_as_xyz
  1  'x, y, z'
loop_
 _atom_site_type_symbol
 _atom_site_label
 _atom_site_symmetry_multiplicity
 _atom_site_fract_x
 _atom_site_fract_y
 _atom_site_fract_z
 _atom_site_occupancy
 _atom_site_pbe_bader_charge
 _atom_site_pbe_bader_spin_density
 _atom_site_pbe_cm5_charge
 _atom_site_pbe_ddec_charge
 _atom_site_pbe_ddec_spin_density
 _atom_site_pbe_ddec_sum_bond_order
 _atom_site_pbe_magmom
Cu  Cu0  1  0.64306636  0.99257181  0.60171510  1  1.098239  0.599784  0.671563  0.988403  0.746516  2.187324  0.598
Cu  Cu1  1  0.93388913  0.11249617  0.59071779  1  1.097837  0.59949  0.670627  0.987058  0.746097  2.181846  0.598
Cu  Cu2  1  0.76140257  0.79538963  0.41638790  1  1.119228  0.600827  0.68112  0.980593  0.749406  2.157927  0.599
Cu  Cu3  1  0.33765495  0.89763127  0.60682125  1  1.117547  0.600872  0.684021  0.979238  0.750325  2.16999  0.599
Cu  Cu4  1  0.35693782  0.00744046  0.39828083  1  1.098363  0.599801  0.671562  0.988451  0.746526  2.187266  0.598
Cu  Cu5  1  0.06611478  0.88750979  0.40927858  1  1.097812  0.599482  0.670618  0.986981  0.746093  2.181813  0.598
Cu  Cu6  1  0.23861139  0.20461716  0.58362877  1  1.11928  0.600853  0.68109  0.980636  0.749441  2.158037  0.599
Cu  Cu7  1  0.66234167  0.10236117  0.39316612  1  1.117479  0.60087  0.684043  0.979408  0.750319  2.169653  0.599
H  H8  1  0.66127825  0.48051311  0.04346959  1  0.07894  0.000294  0.101478  0.121444  0.00013  0.975529  0.0
H  H9  1  0.60252692  0.60907987  0.98741294  1  0.061625  0.001826  0.105131  0.120714  0.000745  0.962682  0.001
H  H10  1  0.12767725  0.42112051  0.48267942  1  0.088661  0.002032  0.101299  0.122469  0.000956  1.012182  0.001
H  H11  1  0.96557082  0.41301488  0.36109243  1  0.052749  0.002719  0.110282  0.134415  0.001263  0.947924  0.001
H  H12  1  0.35536791  0.01358285  0.03164234  1  0.055733  0.001806  0.10535  0.125709  0.000869  0.96262  0.001
H  H13  1  0.47605923  0.15367621  0.04305618  1  0.040399  0.001206  0.107009  0.125662  0.000478  0.959969  0.0
H  H14  1  0.37425168  0.58476370  0.51495830  1  0.096046  0.000595  0.105205  0.12544  0.000203  0.993066  0.0
H  H15  1  0.51890444  0.58745207  0.63749157  1  0.077303  6.6e-05  0.116006  0.145147  -0.000131  0.935062  0.0
H  H16  1  0.89027093  0.90822593  0.65932080  1  0.607814  0.003464  0.323088  0.421956  0.003363  0.856145  0.003
H  H17  1  0.17278963  0.06952325  0.70400143  1  0.638375  -0.000665  0.262682  0.36068  0.000581  1.007447  0.0
H  H18  1  0.72541325  0.25078877  0.63196248  1  0.619938  0.003648  0.323386  0.421568  0.003532  0.858552  0.003
H  H19  1  0.48435302  0.14513973  0.69777144  1  0.640638  -0.000662  0.263112  0.358893  0.000514  1.010395  0.0
H  H20  1  0.33872638  0.51950124  0.95652465  1  0.078804  0.000294  0.101485  0.121415  0.00013  0.975499  0.0
H  H21  1  0.39747716  0.39093665  0.01259159  1  0.061224  0.001825  0.105115  0.120683  0.000744  0.962791  0.001
H  H22  1  0.87233678  0.57886720  0.51731434  1  0.088503  0.002031  0.101313  0.122394  0.000955  1.012277  0.001
H  H23  1  0.03443157  0.58697422  0.63889516  1  0.052396  0.002718  0.110239  0.134336  0.001262  0.948105  0.001
H  H24  1  0.64459825  0.98636934  0.96832439  1  0.056588  0.001804  0.105266  0.12567  0.000869  0.962506  0.001
H  H25  1  0.52391162  0.84627700  0.95693381  1  0.040195  0.001207  0.107004  0.125581  0.000479  0.960066  0.0
H  H26  1  0.62575191  0.41526026  0.48505735  1  0.095809  0.000596  0.105245  0.125455  0.000203  0.993106  0.0
H  H27  1  0.48109320  0.41257421  0.36253081  1  0.07747  6.6e-05  0.116031  0.145175  -0.000131  0.935082  0.0
H  H28  1  0.10974148  0.09178402  0.34068513  1  0.607575  0.003466  0.323051  0.421904  0.003363  0.856125  0.003
H  H29  1  0.82720831  0.93047023  0.29599060  1  0.638303  -0.000665  0.262725  0.360705  0.00058  1.007396  0.0
H  H30  1  0.27459688  0.74921594  0.36803404  1  0.619892  0.00365  0.323391  0.421527  0.003532  0.858585  0.003
H  H31  1  0.51564765  0.85486109  0.30223076  1  0.640678  -0.000662  0.263147  0.358939  0.000514  1.010339  0.0
C  C32  1  0.58713643  0.64963937  0.16410457  1  1.562978  0.000952  0.211801  0.635  -0.000501  4.12525  -0.002
C  C33  1  0.57614785  0.54543223  0.03590059  1  -0.03241  0.019218  -0.159847  -0.265865  0.013449  3.923534  0.015
C  C34  1  0.92766917  0.31288959  0.47622446  1  1.545757  0.002359  0.221389  0.657637  0.002217  4.087071  0.0
C  C35  1  0.01019207  0.42775482  0.45816108  1  -0.026256  0.015702  -0.156709  -0.265276  0.011047  3.861602  0.012
C  C36  1  0.35518261  0.01615526  0.85919503  1  1.557169  -0.00026  0.211759  0.630819  -0.001755  4.135275  -0.003
C  C37  1  0.43627136  0.03995608  0.99216858  1  0.010777  0.017577  -0.159386  -0.264364  0.012441  3.924612  0.013
C  C38  1  0.57841807  0.69227956  0.53326232  1  1.50868  0.002563  0.219793  0.646215  0.002278  4.096317  0.001
C  C39  1  0.49028125  0.57197197  0.54003863  1  -0.024285  0.018225  -0.160886  -0.268156  0.012835  3.91579  0.014
C  C40  1  0.41287813  0.35036528  0.83590832  1  1.563024  0.000947  0.211792  0.634795  -0.000507  4.124575  -0.002
C  C41  1  0.42387310  0.45460178  0.96412355  1  -0.055098  0.019276  -0.159857  -0.265864  0.013448  3.923351  0.015
C  C42  1  0.07233252  0.68709636  0.52375957  1  1.546076  0.002359  0.221253  0.657411  0.002216  4.087329  0.0
C  C43  1  0.98980881  0.57224703  0.54183824  1  -0.008088  0.015697  -0.156645  -0.264873  0.011047  3.861613  0.012
C  C44  1  0.64480741  0.98382158  0.14079423  1  1.55807  -0.00026  0.211742  0.630747  -0.001755  4.135374  -0.003
C  C45  1  0.56369970  0.96000339  0.00781121  1  0.033927  0.017561  -0.159255  -0.264231  0.012447  3.924383  0.013
C  C46  1  0.42159307  0.30774943  0.46675002  1  1.508212  0.00257  0.219919  0.646407  0.002285  4.096129  0.001
C  C47  1  0.50971597  0.42803745  0.45997928  1  -0.047772  0.018274  -0.160948  -0.26818  0.01282  3.916371  0.014
O  O48  1  0.70794963  0.66011273  0.24823862  1  -1.085043  0.148229  -0.328029  -0.533669  0.091543  2.302282  0.133
O  O49  1  0.48548387  0.71827665  0.17998622  1  -1.179286  0.011504  -0.325234  -0.546575  0.006188  2.137982  0.01
O  O50  1  0.00056609  0.27446410  0.56031609  1  -1.129454  0.086278  -0.330458  -0.59354  0.053439  2.451339  0.079
O  O51  1  0.79409614  0.26627019  0.40939205  1  -1.140801  0.067376  -0.315497  -0.547575  0.042435  2.342758  0.061
O  O52  1  0.23872642  0.06495761  0.83433103  1  -1.189384  0.013789  -0.334221  -0.560037  0.007691  2.142081  0.012
O  O53  1  0.41654289  0.94666103  0.78104553  1  -1.08901  0.144213  -0.321462  -0.52163  0.088996  2.345365  0.13
O  O54  1  0.65259663  0.66453061  0.45969454  1  -1.111886  0.06392  -0.312643  -0.542047  0.040272  2.368034  0.058
O  O55  1  0.56800182  0.81497916  0.60401942  1  -1.132697  0.088999  -0.334048  -0.594524  0.055115  2.464213  0.081
O  O56  1  0.83773151  0.94037170  0.59680572  1  -1.126318  0.20379  -0.588082  -0.876342  0.131859  2.377097  0.178
O  O57  1  0.12921087  0.06666966  0.61640989  1  -1.129431  0.240881  -0.589364  -0.912773  0.149126  2.346763  0.211
O  O58  1  0.73261949  0.15668138  0.57997043  1  -1.141699  0.198723  -0.590302  -0.881293  0.12858  2.385404  0.174
O  O59  1  0.46278708  0.05919262  0.61637575  1  -1.135874  0.238587  -0.589924  -0.915483  0.147883  2.350042  0.209
O  O60  1  0.29202930  0.33988768  0.75175955  1  -1.084816  0.148283  -0.328055  -0.533748  0.091575  2.301673  0.133
O  O61  1  0.51453459  0.28172580  0.82003415  1  -1.17935  0.011484  -0.325164  -0.546383  0.006176  2.138026  0.01
O  O62  1  0.99943645  0.72553032  0.43968454  1  -1.129485  0.086247  -0.33037  -0.593385  0.05342  2.45159  0.079
O  O63  1  0.20590233  0.73373066  0.59060319  1  -1.141167  0.067394  -0.315441  -0.547497  0.042447  2.342735  0.061
O  O64  1  0.76126763  0.93503283  0.16566166  1  -1.189996  0.013789  -0.33425  -0.560015  0.007691  2.142372  0.012
O  O65  1  0.58345132  0.05333042  0.21893858  1  -1.089073  0.144222  -0.321394  -0.521591  0.089  2.34525  0.13
O  O66  1  0.34740865  0.33547117  0.54032033  1  -1.112053  0.063906  -0.312769  -0.542216  0.040262  2.367934  0.058
O  O67  1  0.43199323  0.18503555  0.39598909  1  -1.132378  0.08901  -0.334171  -0.594703  0.055121  2.463775  0.081
O  O68  1  0.16227370  0.05963003  0.40319775  1  -1.126138  0.203801  -0.588065  -0.876294  0.131866  2.377003  0.178
O  O69  1  0.87078744  0.93333542  0.38358742  1  -1.12937  0.240877  -0.58943  -0.912823  0.149124  2.346641  0.211
O  O70  1  0.26738614  0.84332242  0.42002808  1  -1.141673  0.198723  -0.59025  -0.881129  0.12858  2.385364  0.174
O  O71  1  0.53721385  0.94081450  0.38362276  1  -1.135824  0.238576  -0.589976  -0.915598  0.147876  2.35014  0.209
