# generated using pymatgen
data_KYH8(CO3)4
_symmetry_space_group_name_H-M   'P 1'
_cell_length_a   8.76533949
_cell_length_b   9.27143457
_cell_length_c   9.27141364
_cell_angle_alpha   77.08787807
_cell_angle_beta   61.78982349
_cell_angle_gamma   61.78985396
_symmetry_Int_Tables_number   1
_chemical_formula_structural   KYH8(CO3)4
_chemical_formula_sum   'K2 Y2 H16 C8 O24'
_cell_volume   585.09982045
_cell_formula_units_Z   2
loop_
 _symmetry_equiv_pos_site_id
 _symmetry_equiv_pos_as_xyz
  1  'x, y, z'
loop_
 _atom_site_type_symbol
 _atom_site_label
 _atom_site_symmetry_multiplicity
 _atom_site_fract_x
 _atom_site_fract_y
 _atom_site_fract_z
 _atom_site_occupancy
 _atom_site_hle17_bader_spin_density
 _atom_site_hle17_ddec_charge
 _atom_site_hle17_ddec_spin_density
 _atom_site_hle17_ddec_sum_bond_order
 _atom_site_hle17_magmom
 _atom_site_hse06_10hf_bader_spin_density
 _atom_site_hse06_10hf_ddec_charge
 _atom_site_hse06_10hf_ddec_spin_density
 _atom_site_hse06_10hf_ddec_sum_bond_order
 _atom_site_hse06_10hf_magmom
 _atom_site_hse06_bader_spin_density
 _atom_site_hse06_ddec_charge
 _atom_site_hse06_ddec_spin_density
 _atom_site_hse06_ddec_sum_bond_order
 _atom_site_hse06_magmom
 _atom_site_pbe_bader_spin_density
 _atom_site_pbe_cm5_charge
 _atom_site_pbe_ddec_charge
 _atom_site_pbe_ddec_spin_density
 _atom_site_pbe_ddec_sum_bond_order
 _atom_site_pbe_magmom
K  K0  1  0.12500434  0.75000288  0.74999198  1  0  0.925053  0  0.438934  0  0  0.873026  0  0.616169  0  0  0.889356  0  0.591246  0  0  0.751915  0.860437  0  0.634596  0
K  K1  1  0.87499827  0.24999203  0.25000741  1  0  0.925041  0  0.43892  0  0  0.87301  0  0.616221  0  0  0.889328  0  0.591308  0  0  0.751909  0.860416  0  0.634654  0
Y  Y2  1  0.37499994  0.25000014  0.24999989  1  0  1.936928  0  1.962866  0  0  1.731536  0  2.464459  0  0  1.802691  0  2.404758  0  0  1.295497  1.681723  0  2.502817  0
Y  Y3  1  0.62499912  0.75000023  0.75000072  1  0  1.936761  0  1.96329  0  0  1.731398  0  2.464874  0  0  1.802542  0  2.405197  0  0  1.295446  1.681528  0  2.50332  0
H  H4  1  0.05084686  0.59291194  0.09855745  1  0  0.408776  0  0.895466  0  0  0.379138  0  0.9582  0  0  0.389836  0  0.942319  0  0  0.295463  0.371565  0  0.969435  0
H  H5  1  0.14940435  0.90143846  0.09291429  1  0  0.408771  0  0.895479  0  0  0.37913  0  0.958223  0  0  0.389831  0  0.942338  0  0  0.29545  0.371553  0  0.969463  0
H  H6  1  0.24232488  0.90708427  0.40143499  1  0  0.408732  0  0.895511  0  0  0.37908  0  0.958275  0  0  0.389781  0  0.942388  0  0  0.295449  0.371501  0  0.969519  0
H  H7  1  0.64376076  0.59855833  0.40708322  1  0  0.408719  0  0.895529  0  0  0.379069  0  0.95829  0  0  0.38977  0  0.942406  0  0  0.295401  0.371492  0  0.969532  0
H  H8  1  0.94915866  0.40708592  0.90144316  1  0  0.408739  0  0.895519  0  0  0.379094  0  0.958269  0  0  0.389796  0  0.942384  0  0  0.295444  0.371516  0  0.969511  0
H  H9  1  0.85059301  0.09856299  0.90708755  1  0  0.40877  0  0.895464  0  0  0.379126  0  0.958213  0  0  0.389827  0  0.942329  0  0  0.295458  0.371549  0  0.969455  0
H  H10  1  0.75767992  0.09291738  0.59856195  1  0  0.40876  0  0.895476  0  0  0.379119  0  0.958219  0  0  0.389821  0  0.942332  0  0  0.295465  0.371542  0  0.969461  0
H  H11  1  0.35623943  0.40144146  0.59291372  1  0  0.408725  0  0.895495  0  0  0.379075  0  0.958256  0  0  0.389772  0  0.942376  0  0  0.295412  0.371499  0  0.969495  0
H  H12  1  0.82442735  0.67439538  0.17108007  1  0  0.424787  0  0.87051  0  0  0.396414  0  0.930182  0  0  0.406504  0  0.915319  0  0  0.287592  0.389253  0  0.940723  0
H  H13  1  0.99550709  0.82891641  0.17439918  1  0  0.424766  0  0.870511  0  0  0.396399  0  0.930177  0  0  0.40649  0  0.915312  0  0  0.287593  0.389239  0  0.940716  0
H  H14  1  0.16990721  0.82560269  0.32891505  1  0  0.424774  0  0.870488  0  0  0.396402  0  0.930163  0  0  0.406492  0  0.915298  0  0  0.287596  0.389242  0  0.940701  0
H  H15  1  0.49882711  0.67107854  0.32559857  1  0  0.424835  0  0.87043  0  0  0.396435  0  0.930155  0  0  0.40653  0  0.915283  0  0  0.287609  0.389275  0  0.940691  0
H  H16  1  0.17557515  0.32560296  0.82892298  1  0  0.424793  0  0.870494  0  0  0.396388  0  0.930228  0  0  0.406483  0  0.915357  0  0  0.287576  0.389227  0  0.940766  0
H  H17  1  0.00449023  0.17108456  0.82560633  1  0  0.42472  0  0.870582  0  0  0.396345  0  0.930261  0  0  0.406436  0  0.915397  0  0  0.287567  0.389184  0  0.940802  0
H  H18  1  0.83009231  0.17440101  0.67108311  1  0  0.424819  0  0.870418  0  0  0.396422  0  0.93014  0  0  0.406517  0  0.915268  0  0  0.287603  0.389261  0  0.940677  0
H  H19  1  0.50117728  0.32892028  0.67439715  1  0  0.424779  0  0.870505  0  0  0.396377  0  0.930233  0  0  0.406471  0  0.915362  0  0  0.287576  0.389215  0  0.940772  0
C  C20  1  0.41257801  0.52858649  0.98210830  1  0  0.56726  0  3.9044  0  0  0.5198  0  4.198212  0  0  0.550393  0  4.190375  0  0  0.233756  0.498921  0  4.203176  0
C  C21  1  0.39467612  0.01789117  0.02857607  1  0  0.567417  0  3.904447  0  0  0.52005  0  4.198164  0  0  0.550642  0  4.190326  0  0  0.233666  0.499173  0  4.203121  0
C  C22  1  0.42327479  0.97140850  0.51789422  1  0  0.567317  0  3.904239  0  0  0.519799  0  4.19815  0  0  0.55039  0  4.190313  0  0  0.233745  0.498917  0  4.203114  0
C  C23  1  0.94114383  0.48210873  0.47142513  1  0  0.567403  0  3.9045  0  0  0.520006  0  4.198252  0  0  0.550592  0  4.190417  0  0  0.233749  0.499137  0  4.203198  0
C  C24  1  0.58743146  0.47141275  0.01789721  1  0  0.567376  0  3.904774  0  0  0.519971  0  4.198502  0  0  0.550559  0  4.19067  0  0  0.2338  0.499093  0  4.20346  0
C  C25  1  0.60530668  0.98211286  0.97141842  1  0  0.567216  0  3.904415  0  0  0.519686  0  4.198335  0  0  0.550275  0  4.190506  0  0  0.233549  0.498813  0  4.203283  0
C  C26  1  0.57674167  0.02858361  0.48210394  1  0  0.567391  0  3.904553  0  0  0.520009  0  4.19829  0  0  0.550594  0  4.190457  0  0  0.23383  0.499133  0  4.203246  0
C  C27  1  0.05884233  0.51788790  0.52858282  1  0  0.56735  0  3.904483  0  0  0.519836  0  4.198368  0  0  0.550429  0  4.190529  0  0  0.233726  0.498956  0  4.20333  0
O  O28  1  0.30249626  0.45781649  0.06215826  1  0  -0.631735  0  2.073655  0  0  -0.565883  0  2.306806  0  0  -0.594292  0  2.298838  0  0  -0.333746  -0.546187  0  2.311744  0
O  O29  1  0.36464470  0.93783325  0.95781648  1  0  -0.631822  0  2.07368  0  0  -0.566029  0  2.306818  0  0  -0.594439  0  2.298852  0  0  -0.333889  -0.54632  0  2.311753  0
O  O30  1  0.32247004  0.04218339  0.43783902  1  0  -0.631832  0  2.073364  0  0  -0.565961  0  2.306546  0  0  -0.59437  0  2.298577  0  0  -0.333791  -0.546263  0  2.311487  0
O  O31  1  0.76029348  0.56216800  0.54218614  1  0  -0.631873  0  2.07368  0  0  -0.566068  0  2.306829  0  0  -0.594472  0  2.298861  0  0  -0.334049  -0.546363  0  2.311762  0
O  O32  1  0.69752512  0.54218452  0.93782766  1  0  -0.631873  0  2.073384  0  0  -0.566063  0  2.306527  0  0  -0.594479  0  2.29857  0  0  -0.333839  -0.546345  0  2.311455  0
O  O33  1  0.63534269  0.06215935  0.04218413  1  0  -0.631701  0  2.073667  0  0  -0.565857  0  2.306883  0  0  -0.594263  0  2.298914  0  0  -0.333842  -0.546163  0  2.311821  0
O  O34  1  0.67753750  0.95781527  0.56216893  1  0  -0.631861  0  2.073389  0  0  -0.566069  0  2.306539  0  0  -0.594479  0  2.298577  0  0  -0.333859  -0.546359  0  2.311471  0
O  O35  1  0.23968314  0.43784434  0.45781692  1  0  -0.631756  0  2.073908  0  0  -0.565876  0  2.307072  0  0  -0.594279  0  2.299101  0  0  -0.333954  -0.546181  0  2.312014  0
O  O36  1  0.39283824  0.64076244  0.87769868  1  0  -0.62515  0  2.075809  0  0  -0.570744  0  2.323134  0  0  -0.597219  0  2.31507  0  0  -0.3785  -0.552313  0  2.328163  0
O  O37  1  0.27053774  0.12230520  0.14074143  1  0  -0.625213  0  2.075833  0  0  -0.570835  0  2.323153  0  0  -0.59731  0  2.315083  0  0  -0.378566  -0.552411  0  2.32818  0
O  O38  1  0.41130091  0.85923686  0.62230016  1  0  -0.62514  0  2.076032  0  0  -0.570686  0  2.323328  0  0  -0.597158  0  2.315263  0  0  -0.378476  -0.552256  0  2.328357  0
O  O39  1  0.03358076  0.37769816  0.35926309  1  0  -0.625154  0  2.075938  0  0  -0.570772  0  2.32327  0  0  -0.597241  0  2.315203  0  0  -0.378476  -0.552351  0  2.328294  0
O  O40  1  0.60716016  0.35925954  0.12229336  1  0  -0.625117  0  2.076445  0  0  -0.57076  0  2.323838  0  0  -0.597228  0  2.315773  0  0  -0.378473  -0.55234  0  2.328867  0
O  O41  1  0.72946376  0.87769593  0.85923715  1  0  -0.625154  0  2.075771  0  0  -0.57069  0  2.323068  0  0  -0.597167  0  2.315006  0  0  -0.378481  -0.552258  0  2.328091  0
O  O42  1  0.58871332  0.14073960  0.37770290  1  0  -0.625146  0  2.076281  0  0  -0.570767  0  2.323631  0  0  -0.597236  0  2.315564  0  0  -0.378482  -0.552346  0  2.328657  0
O  O43  1  0.96639752  0.62230747  0.64076322  1  0  -0.625256  0  2.07576  0  0  -0.570813  0  2.323072  0  0  -0.597289  0  2.315008  0  0  -0.378551  -0.55238  0  2.328102  0
O  O44  1  0.93880164  0.69780870  0.10851572  1  0  -0.859403  0  1.795727  0  0  -0.809832  0  1.94573  0  0  -0.8282  0  1.914762  0  0  -0.616216  -0.796743  0  1.967408  0
O  O45  1  0.04731826  0.89148030  0.19781199  1  0  -0.859379  0  1.795708  0  0  -0.809806  0  1.945708  0  0  -0.828172  0  1.914735  0  0  -0.616275  -0.796715  0  1.96739  0
O  O46  1  0.24513211  0.80218725  0.39147825  1  0  -0.859351  0  1.795649  0  0  -0.809757  0  1.94567  0  0  -0.82813  0  1.914696  0  0  -0.616237  -0.796668  0  1.967354  0
O  O47  1  0.63661395  0.60851380  0.30218548  1  0  -0.85939  0  1.795642  0  0  -0.809794  0  1.945656  0  0  -0.828164  0  1.914679  0  0  -0.616231  -0.796698  0  1.967346  0
O  O48  1  0.06120016  0.30218904  0.89148734  1  0  -0.859371  0  1.795745  0  0  -0.809775  0  1.945758  0  0  -0.828145  0  1.914784  0  0  -0.616201  -0.79668  0  1.967449  0
O  O49  1  0.95268231  0.10852184  0.80218984  1  0  -0.859338  0  1.795733  0  0  -0.80975  0  1.945735  0  0  -0.82812  0  1.914763  0  0  -0.616241  -0.796657  0  1.967421  0
O  O50  1  0.75486878  0.19781312  0.60851869  1  0  -0.859417  0  1.795586  0  0  -0.809813  0  1.945619  0  0  -0.828185  0  1.914639  0  0  -0.616261  -0.79672  0  1.96731  0
O  O51  1  0.36339053  0.39148561  0.69781146  1  0  -0.859346  0  1.795657  0  0  -0.809737  0  1.94568  0  0  -0.828109  0  1.914708  0  0  -0.616205  -0.796643  0  1.967367  0
