# generated using pymatgen
data_CoH8(C4O3)2
_symmetry_space_group_name_H-M   'P 1'
_cell_length_a   6.46600406
_cell_length_b   7.47362200
_cell_length_c   9.48882495
_cell_angle_alpha   98.51352126
_cell_angle_beta   110.37331521
_cell_angle_gamma   91.58452789
_symmetry_Int_Tables_number   1
_chemical_formula_structural   CoH8(C4O3)2
_chemical_formula_sum   'Co2 H16 C16 O12'
_cell_volume   423.56767023
_cell_formula_units_Z   2
loop_
 _symmetry_equiv_pos_site_id
 _symmetry_equiv_pos_as_xyz
  1  'x, y, z'
loop_
 _atom_site_type_symbol
 _atom_site_label
 _atom_site_symmetry_multiplicity
 _atom_site_fract_x
 _atom_site_fract_y
 _atom_site_fract_z
 _atom_site_occupancy
 _atom_site_hse06_10hf_ddec_charge
 _atom_site_hse06_10hf_ddec_spin_density
 _atom_site_hse06_10hf_ddec_sum_bond_order
 _atom_site_hse06_10hf_magmom
 _atom_site_hse06_ddec_charge
 _atom_site_hse06_ddec_spin_density
 _atom_site_hse06_ddec_sum_bond_order
 _atom_site_hse06_magmom
 _atom_site_pbe_cm5_charge
 _atom_site_pbe_ddec_charge
 _atom_site_pbe_ddec_spin_density
 _atom_site_pbe_ddec_sum_bond_order
 _atom_site_pbe_magmom
Co  Co0  1  0.49999790  0.00000610  0.49999823  1  0.938869  1.022814  2.596495  0.949  1.034954  1.041569  2.49645  0.954  0.593636  0.891935  1.006155  2.65388  0.925
Co  Co1  1  0.99999727  0.49999234  0.49999754  1  1.117689  -2.881131  2.227094  -2.678  1.188479  -2.932489  2.156802  -2.744  0.651908  1.060706  -2.839329  2.280447  -2.609
H  H2  1  0.40295150  0.08359142  0.14233717  1  0.115587  -8.2e-05  1.012139  0.0  0.119176  -8.6e-05  1.009583  0.0  0.106925  0.112666  -8.6e-05  1.014478  0.0
H  H3  1  0.74287664  0.55839146  0.14223738  1  0.114121  0.000118  1.015651  0.0  0.117675  0.000119  1.013106  0.0  0.10548  0.111144  0.000115  1.018183  0.0
H  H4  1  0.59705494  0.91643243  0.85764270  1  0.11562  -8.2e-05  1.012131  0.0  0.119207  -8.6e-05  1.009581  0.0  0.106932  0.112707  -8.6e-05  1.014456  0.0
H  H5  1  0.25712834  0.44158803  0.85777832  1  0.114232  0.000118  1.015515  0.0  0.117758  0.000119  1.012997  0.0  0.105483  0.111245  0.000115  1.018042  0.0
H  H6  1  0.72967676  0.10630902  0.11969243  1  0.114533  -0.000102  1.013121  0.0  0.11818  -8.1e-05  1.010727  0.0  0.105246  0.111699  -0.000151  1.01503  0.0
H  H7  1  0.39017543  0.63248370  0.11739654  1  0.115711  -8.3e-05  1.007581  0.0  0.119349  -4.7e-05  1.005132  0.0  0.10624  0.112792  -0.000128  1.009861  0.0
H  H8  1  0.27031512  0.89369579  0.88029775  1  0.114575  -0.000102  1.013197  0.0  0.118226  -8.1e-05  1.0108  0.0  0.105266  0.111739  -0.000151  1.015105  0.0
H  H9  1  0.60982559  0.36750920  0.88261130  1  0.115709  -8.3e-05  1.007578  0.0  0.119345  -4.7e-05  1.005124  0.0  0.106278  0.112794  -0.000128  1.009856  0.0
H  H10  1  0.83299669  0.10467902  0.46869149  1  0.380194  0.000186  0.968654  0.0  0.39182  0.000257  0.95216  0.0  0.296887  0.371851  0.000174  0.980351  0.0
H  H11  1  0.62567983  0.60219751  0.46025803  1  0.376854  -0.000381  0.974024  -0.001  0.388708  -0.000209  0.956833  0.0  0.291834  0.368235  -0.000549  0.986439  -0.001
H  H12  1  0.16700162  0.89532065  0.53131963  1  0.38019  0.000186  0.96866  0.0  0.391815  0.000257  0.952168  0.0  0.296855  0.371849  0.000174  0.980374  0.0
H  H13  1  0.37432016  0.39780348  0.53974730  1  0.376895  -0.00038  0.973961  -0.001  0.388746  -0.000209  0.956775  0.0  0.291872  0.368277  -0.000548  0.986375  -0.001
H  H14  1  0.79081415  0.89463670  0.38586931  1  0.412595  0.000251  0.884836  0.0  0.422029  0.000734  0.875796  0.001  0.31655  0.406081  -1.1e-05  0.891298  0.0
H  H15  1  0.55983993  0.39445956  0.37727454  1  0.410681  -0.000441  0.909649  -0.001  0.421203  -0.000307  0.894653  0.0  0.30265  0.403047  -0.000553  0.920391  -0.001
H  H16  1  0.20917630  0.10536825  0.61413741  1  0.412729  0.000251  0.884705  0.0  0.422166  0.000734  0.875654  0.001  0.316627  0.406216  -1.1e-05  0.891169  0.0
H  H17  1  0.44014343  0.60553982  0.62272675  1  0.410675  -0.00044  0.909643  -0.001  0.4212  -0.000307  0.894641  0.0  0.302676  0.403041  -0.000553  0.920386  -0.001
C  C18  1  0.07283880  0.10656591  0.14449510  1  -0.039662  -0.00134  3.986668  -0.002  -0.04731  -0.0012  4.008747  -0.002  -0.016222  -0.034852  -0.001221  3.973008  -0.003
C  C19  1  0.07429361  0.60856773  0.14485049  1  -0.041384  -0.001057  3.98142  -0.001  -0.049078  -0.000465  4.002658  -0.001  -0.014847  -0.037088  -0.001545  3.969467  -0.001
C  C20  1  0.92716135  0.89344029  0.85548871  1  -0.039479  -0.00134  3.986424  -0.002  -0.047123  -0.0012  4.008499  -0.002  -0.01621  -0.034682  -0.00122  3.972787  -0.003
C  C21  1  0.92571265  0.39142928  0.85515480  1  -0.04132  -0.001057  3.981245  -0.001  -0.049015  -0.000465  4.002466  -0.001  -0.014827  -0.037026  -0.001545  3.969288  -0.001
C  C22  1  0.22722538  0.04778590  0.07836273  1  -0.085343  0.000103  3.968704  0.0  -0.08546  -0.000116  3.988093  0.0  -0.079275  -0.085594  0.000798  3.956123  0.001
C  C23  1  0.85368945  0.53379938  0.07867324  1  -0.085498  -0.000848  3.963817  -0.001  -0.085946  -0.000351  3.983587  -0.001  -0.080799  -0.08571  -0.001297  3.95228  -0.002
C  C24  1  0.77276484  0.95221887  0.92162600  1  -0.08553  0.000102  3.968798  0.0  -0.08565  -0.000116  3.988186  0.0  -0.079346  -0.08577  0.000798  3.956209  0.001
C  C25  1  0.14630951  0.46618809  0.92133562  1  -0.085679  -0.000848  3.963945  -0.001  -0.086103  -0.000352  3.983722  -0.001  -0.080814  -0.085871  -0.001297  3.952388  -0.002
C  C26  1  0.84577285  0.05816498  0.06561327  1  -0.086458  0.000631  3.95803  0.001  -0.086711  0.000352  3.977106  0.0  -0.080313  -0.085544  0.000846  3.945064  0.001
C  C27  1  0.21970225  0.57346652  0.06494455  1  -0.083174  -0.000711  3.956264  -0.001  -0.082758  -0.000316  3.974646  0.0  -0.07987  -0.084305  -0.001217  3.945639  -0.001
C  C28  1  0.15423518  0.94183725  0.93436878  1  -0.0866  0.000632  3.957898  0.001  -0.086847  0.000353  3.976959  0.0  -0.080386  -0.085681  0.000847  3.944936  0.001
C  C29  1  0.78030225  0.42652783  0.93506847  1  -0.083256  -0.000711  3.956058  -0.001  -0.082838  -0.000316  3.974448  0.0  -0.079941  -0.084391  -0.001217  3.945444  -0.001
C  C30  1  0.14585879  0.22412851  0.29642024  1  0.607095  0.006444  4.148368  0.008  0.646643  0.004083  4.137579  0.005  0.220033  0.577999  0.009563  4.156022  0.012
C  C31  1  0.15315761  0.72820149  0.29629484  1  0.600431  -0.006622  4.114655  -0.008  0.642653  -0.004347  4.1041  -0.006  0.221117  0.569061  -0.009394  4.12493  -0.011
C  C32  1  0.85414641  0.77587784  0.70357214  1  0.607069  0.006443  4.148429  0.008  0.646613  0.004082  4.137634  0.005  0.220061  0.57798  0.009561  4.156079  0.012
C  C33  1  0.84683996  0.27178997  0.70370888  1  0.600515  -0.006622  4.11451  -0.008  0.642755  -0.004346  4.103932  -0.006  0.221225  0.569146  -0.009394  4.124786  -0.011
O  O34  1  0.35209766  0.24128126  0.38373967  1  -0.617798  0.013458  2.350502  0.016  -0.649423  0.012207  2.33454  0.014  -0.308598  -0.595849  0.015609  2.360873  0.019
O  O35  1  0.03608614  0.73713561  0.38304730  1  -0.628695  -0.015886  2.333505  -0.023  -0.657173  -0.012564  2.316532  -0.017  -0.31228  -0.60863  -0.018216  2.34752  -0.026
O  O36  1  0.64790322  0.75873314  0.61625050  1  -0.617804  0.013461  2.350447  0.016  -0.649427  0.01221  2.334481  0.014  -0.308617  -0.595856  0.015613  2.360816  0.019
O  O37  1  0.96393899  0.26284825  0.61697250  1  -0.62876  -0.01588  2.333294  -0.023  -0.657241  -0.012559  2.316304  -0.017  -0.312359  -0.608695  -0.018209  2.347303  -0.026
O  O38  1  0.99657157  0.30311810  0.33383396  1  -0.581926  -0.024763  2.438548  -0.037  -0.618001  -0.019922  2.42733  -0.029  -0.307459  -0.552498  -0.029554  2.444469  -0.045
O  O39  1  0.33881924  0.82037976  0.33200516  1  -0.525867  -0.006169  2.498657  -0.011  -0.573231  -0.004029  2.490405  -0.007  -0.293228  -0.496489  -0.008647  2.504744  -0.015
O  O40  1  0.00343114  0.69687613  0.66616809  1  -0.581933  -0.024758  2.438443  -0.037  -0.618026  -0.019918  2.427269  -0.029  -0.307473  -0.55251  -0.029547  2.444364  -0.045
O  O41  1  0.66117031  0.17963592  0.66799200  1  -0.525848  -0.006167  2.498811  -0.011  -0.573215  -0.004026  2.490544  -0.007  -0.293207  -0.496474  -0.008644  2.504901  -0.015
O  O42  1  0.71703228  0.00606655  0.39922960  1  -0.718911  -0.003533  2.237243  -0.008  -0.75548  -0.003862  2.205721  -0.009  -0.548708  -0.695355  -0.002363  2.257419  -0.005
O  O43  1  0.66264059  0.50234889  0.39226646  1  -0.7813  -0.030023  2.150556  -0.044  -0.808513  -0.024399  2.114413  -0.035  -0.574096  -0.758925  -0.035597  2.175783  -0.052
O  O44  1  0.28296293  0.99393705  0.60077175  1  -0.719086  -0.003533  2.237205  -0.008  -0.755661  -0.00386  2.205701  -0.009  -0.548775  -0.69553  -0.002364  2.25739  -0.005
O  O45  1  0.33735714  0.49764397  0.60774167  1  -0.781256  -0.030022  2.150429  -0.044  -0.808469  -0.024399  2.11429  -0.035  -0.574128  -0.758883  -0.035595  2.175656  -0.052
