# generated using pymatgen
data_CuH20C17S2Br2O
_symmetry_space_group_name_H-M   'P 1'
_cell_length_a   7.31504181
_cell_length_b   11.82698961
_cell_length_c   11.62224971
_cell_angle_alpha   62.16308524
_cell_angle_beta   81.26380418
_cell_angle_gamma   87.91286586
_symmetry_Int_Tables_number   1
_chemical_formula_structural   CuH20C17S2Br2O
_chemical_formula_sum   'Cu2 H40 C34 S4 Br4 O2'
_cell_volume   878.14131514
_cell_formula_units_Z   2
loop_
 _symmetry_equiv_pos_site_id
 _symmetry_equiv_pos_as_xyz
  1  'x, y, z'
loop_
 _atom_site_type_symbol
 _atom_site_label
 _atom_site_symmetry_multiplicity
 _atom_site_fract_x
 _atom_site_fract_y
 _atom_site_fract_z
 _atom_site_occupancy
 _atom_site_hle17_ddec_charge
 _atom_site_hle17_ddec_spin_density
 _atom_site_hle17_ddec_sum_bond_order
 _atom_site_hle17_magmom
 _atom_site_hse06_10hf_ddec_charge
 _atom_site_hse06_10hf_ddec_spin_density
 _atom_site_hse06_10hf_ddec_sum_bond_order
 _atom_site_hse06_10hf_magmom
 _atom_site_hse06_ddec_charge
 _atom_site_hse06_ddec_spin_density
 _atom_site_hse06_ddec_sum_bond_order
 _atom_site_hse06_magmom
 _atom_site_pbe_cm5_charge
 _atom_site_pbe_ddec_charge
 _atom_site_pbe_ddec_spin_density
 _atom_site_pbe_ddec_sum_bond_order
 _atom_site_pbe_magmom
Cu  Cu0  1  0.22757956  0.00862237  0.25656431  1  0.478139  0.470072  2.052691  0.32  0.453224  0.591977  2.473583  0.435  0.527602  0.68349  2.409213  0.518  0.4242  0.416115  0.536958  2.513376  0.389
Cu  Cu1  1  0.77242521  0.99138136  0.74343234  1  0.478071  -0.470059  2.052758  -0.32  0.453145  -0.591976  2.473664  -0.435  0.527559  -0.683487  2.409293  -0.518  0.424166  0.416043  -0.536964  2.513449  -0.389
H  H2  1  0.43167943  0.73529642  0.40206242  1  0.106563  -0.000309  0.974544  0.0  0.118033  -0.000251  1.041983  0.0  0.118804  -0.000216  1.042704  0.0  0.091009  0.117332  -0.000259  1.041566  0.0
H  H3  1  0.56831536  0.26470151  0.59793959  1  0.106529  0.000319  0.974542  0.0  0.11805  0.000251  1.041953  0.0  0.118823  0.000216  1.042672  0.0  0.091022  0.117349  0.000259  1.041534  0.0
H  H4  1  0.52308516  0.77384412  0.23545666  1  0.107717  -0.000935  0.955112  0.001  0.123081  -0.001225  1.016102  0.001  0.12437  -0.00117  1.015361  0.001  0.092653  0.122071  -0.001201  1.016788  0.001
H  H5  1  0.47691672  0.22615763  0.76454548  1  0.107741  0.000934  0.955058  -0.001  0.123097  0.001226  1.01609  -0.001  0.124386  0.001171  1.015345  -0.001  0.092645  0.122087  0.001201  1.016776  -0.001
H  H6  1  0.61983100  0.59975088  0.20024874  1  0.08722  -0.00057  0.974466  0.0  0.096617  -0.000475  1.041934  0.0  0.099615  -0.000408  1.040538  0.0  0.092024  0.094558  -0.0005  1.042874  0.0
H  H7  1  0.38017368  0.40025093  0.79974881  1  0.087252  0.000571  0.9745  0.0  0.096582  0.000475  1.042029  0.0  0.099579  0.000408  1.040636  0.0  0.092024  0.094524  0.0005  1.042966  0.0
H  H8  1  0.57285475  0.37932316  0.23508379  1  0.084836  0.000382  0.96759  0.0  0.094649  0.000283  1.033925  0.0  0.097186  0.000204  1.032822  0.0  0.093155  0.092816  0.000333  1.034796  0.0
H  H9  1  0.42715131  0.62067868  0.76491190  1  0.084813  -0.000384  0.967669  0.0  0.094627  -0.000283  1.033994  0.0  0.097164  -0.000204  1.032889  0.0  0.093142  0.092795  -0.000333  1.034864  0.0
H  H10  1  0.11171669  0.31788233  0.53840817  1  0.078976  -0.000311  0.997259  0.0  0.081703  -0.000302  1.075808  0.0  0.084484  -0.000181  1.075202  0.0  0.08661  0.07976  -0.000387  1.076235  0.0
H  H11  1  0.88829185  0.68211376  0.46159082  1  0.079015  0.000307  0.997203  0.0  0.08177  0.000302  1.075718  0.0  0.084545  0.000181  1.075116  0.0  0.08663  0.079827  0.000388  1.076147  0.0
H  H12  1  0.16711518  0.53540873  0.50964042  1  0.09017  0.000293  0.961319  0.0  0.102323  0.000293  1.024476  0.0  0.104622  0.000229  1.023905  0.0  0.097686  0.100699  0.000328  1.024897  0.0
H  H13  1  0.83288781  0.46458732  0.49036083  1  0.090164  -0.000287  0.961328  0.0  0.102314  -0.000293  1.024484  0.0  0.104612  -0.000229  1.023914  0.0  0.097659  0.100689  -0.000328  1.024905  0.0
H  H14  1  0.38591608  0.13544893  0.44097179  1  0.10079  -0.000371  0.978893  0.0  0.112007  -0.000368  1.047594  0.0  0.113262  -0.000331  1.046884  0.0  0.082564  0.11102  -0.000371  1.048047  0.0
H  H15  1  0.61409548  0.86455200  0.55902122  1  0.100852  0.00036  0.97881  0.0  0.112082  0.000369  1.047482  0.0  0.113338  0.000331  1.046772  0.0  0.082594  0.111097  0.000371  1.047932  0.0
H  H16  1  0.14725653  0.17211708  0.45210693  1  0.106986  0.000439  0.964102  0.001  0.116177  0.000254  1.033268  0.0  0.117813  0.000141  1.032282  0.0  0.091067  0.11479  0.000344  1.034127  0.001
H  H17  1  0.85275220  0.82788285  0.54788939  1  0.107032  -0.000449  0.964171  -0.001  0.116255  -0.000254  1.033294  0.0  0.117891  -0.00014  1.032309  0.0  0.09109  0.114867  -0.000343  1.034151  -0.001
H  H18  1  0.07498849  0.87895063  0.07448925  1  0.10284  -8.4e-05  0.959022  0.0  0.114416  -8.3e-05  1.028427  0.0  0.115701  -8.6e-05  1.02723  0.0  0.090036  0.11334  -6.2e-05  1.029348  0.0
H  H19  1  0.92499803  0.12104819  0.92551656  1  0.102928  7.9e-05  0.958949  0.0  0.114505  8.3e-05  1.028355  0.0  0.115771  8.7e-05  1.02717  0.0  0.090059  0.113429  6.2e-05  1.029278  0.0
H  H20  1  0.31776562  0.86026245  0.04667898  1  0.103688  0.000479  0.976144  0.001  0.115305  0.000222  1.042645  0.001  0.116526  9.8e-05  1.042402  0.0  0.087094  0.114442  0.000322  1.042682  0.001
H  H21  1  0.68222102  0.13973836  0.95331987  1  0.10367  -0.00048  0.976185  -0.001  0.115284  -0.000221  1.042667  -0.001  0.116501  -9.8e-05  1.042427  0.0  0.087122  0.11442  -0.000322  1.042705  -0.001
H  H22  1  0.90632854  0.63607563  0.26424232  1  0.088761  0.000243  0.961711  0.0  0.100868  0.000174  1.024462  0.0  0.103274  0.000117  1.023608  0.0  0.09667  0.099139  0.000213  1.025149  0.0
H  H23  1  0.09366351  0.36392320  0.73576296  1  0.088771  -0.000237  0.961725  0.0  0.100896  -0.000174  1.024449  0.0  0.103304  -0.000117  1.023591  0.0  0.096684  0.099167  -0.000213  1.025135  0.0
H  H24  1  0.38406448  0.70765742  0.96962713  1  0.074785  -8e-06  1.004865  0.0  0.077127  -5.6e-05  1.085748  0.0  0.079869  -4e-06  1.084764  0.0  0.084855  0.075165  -9.9e-05  1.086471  0.0
H  H25  1  0.61592359  0.29234433  0.03037287  1  0.074755  3e-06  1.004914  0.0  0.077137  5.6e-05  1.085773  0.0  0.079847  5e-06  1.084811  0.0  0.084858  0.075172  9.9e-05  1.086496  0.0
H  H26  1  0.86974246  0.41729974  0.29176173  1  0.088049  -0.000203  0.968824  0.0  0.096621  -0.000158  1.037561  0.0  0.09944  -0.000142  1.036359  0.0  0.094177  0.094603  -0.000162  1.03846  0.0
H  H27  1  0.13025498  0.58269622  0.70824697  1  0.08817  0.000199  0.968727  0.0  0.096738  0.000158  1.037458  0.0  0.099558  0.000143  1.036254  0.0  0.094205  0.094723  0.000161  1.03836  0.0
H  H28  1  0.33855960  0.49203630  0.99043238  1  0.090676  0.000224  0.957215  0.0  0.103949  0.000221  1.01807  0.0  0.106221  0.000173  1.017543  0.0  0.09826  0.102323  0.000249  1.018495  0.0
H  H29  1  0.66143252  0.50796352  0.00956986  1  0.090676  -0.000209  0.957207  0.0  0.103943  -0.000221  1.018085  0.0  0.106213  -0.000173  1.01756  0.0  0.098255  0.102326  -0.000249  1.018496  0.0
H  H30  1  0.96750927  0.25136890  0.24464025  1  0.104176  0.000607  0.956696  0.002  0.116083  0.000166  1.020919  0.001  0.11747  2.8e-05  1.020037  0.001  0.093113  0.114933  0.000282  1.021735  0.001
H  H31  1  0.03249232  0.74862710  0.75536545  1  0.104178  -0.000609  0.956621  -0.002  0.116078  -0.000166  1.020863  -0.001  0.117463  -2.8e-05  1.019984  -0.001  0.093123  0.114933  -0.000283  1.021682  -0.001
H  H32  1  0.08521050  0.29159967  0.08352519  1  0.114118  -0.000331  0.957519  0.0  0.12606  -0.000234  1.022268  0.0  0.127106  -0.000198  1.023085  0.0  0.095432  0.125262  -0.000241  1.021785  0.0
H  H33  1  0.91478028  0.70840111  0.91647673  1  0.114085  0.00034  0.957533  0.0  0.126021  0.000233  1.022286  0.0  0.127068  0.000198  1.023102  0.0  0.095435  0.125224  0.000241  1.021806  0.0
H  H34  1  0.86842493  0.03201958  0.37530103  1  0.335955  -8.7e-05  0.942994  0.0  0.317095  -0.00034  1.015203  0.0  0.327681  -0.000317  1.003341  0.0  0.263611  0.310034  -0.000335  1.023161  0.0
H  H35  1  0.13157687  0.96798030  0.62469855  1  0.335912  8.9e-05  0.943021  0.0  0.317046  0.00034  1.015242  0.0  0.327632  0.000316  1.003385  0.0  0.263584  0.309986  0.000335  1.023199  0.0
H  H36  1  0.69869440  0.09264886  0.19874479  1  0.065856  -0.000322  0.95499  0.0  0.081577  -0.000405  1.027033  0.0  0.082734  -0.000342  1.025995  0.0  0.084059  0.080637  -0.000449  1.027978  0.0
H  H37  1  0.30130755  0.90735389  0.80125345  1  0.065817  0.000315  0.955029  0.0  0.081535  0.000405  1.027097  0.0  0.082692  0.000342  1.026055  0.0  0.084031  0.080593  0.000449  1.028042  0.0
H  H38  1  0.82750217  0.97905380  0.16246111  1  0.079887  -0.000293  0.96016  0.0  0.097262  -0.00035  1.027709  0.0  0.098393  -0.000305  1.027109  0.0  0.087562  0.096503  -0.000366  1.028061  0.0
H  H39  1  0.17249703  0.02094898  0.83753479  1  0.079875  0.000284  0.96019  0.0  0.097279  0.00035  1.027722  0.0  0.098384  0.000305  1.027147  0.0  0.087543  0.096522  0.000366  1.028073  0.0
H  H40  1  0.66578578  0.92507554  0.31113717  1  0.066137  -0.000168  0.959539  0.0  0.080269  -0.000195  1.034449  0.0  0.081254  -0.000188  1.033676  0.0  0.082811  0.079382  -0.000193  1.035276  0.0
H  H41  1  0.33421070  0.07492817  0.68885940  1  0.066075  0.000156  0.959582  0.0  0.080241  0.000194  1.034476  0.0  0.081208  0.000188  1.033718  0.0  0.082809  0.079352  0.000193  1.035302  0.0
C  C42  1  0.41087860  0.72234287  0.31723550  1  -0.196512  -0.004887  3.625611  -0.007  -0.233899  -0.001678  3.868921  -0.004  -0.231474  -0.001709  3.879171  -0.004  -0.145746  -0.234966  -0.001556  3.862086  -0.004
C  C43  1  0.58912443  0.27765412  0.68276703  1  -0.196445  0.004866  3.625652  0.007  -0.233972  0.001678  3.86902  0.004  -0.231547  0.001709  3.87927  0.004  -0.145757  -0.235044  0.001556  3.862179  0.004
C  C44  1  0.39506755  0.58367330  0.35086533  1  0.098845  0.003108  3.763207  0.003  0.12139  0.002931  3.991876  0.003  0.120625  0.002244  4.016813  0.002  -0.018461  0.121873  0.003356  3.974809  0.003
C  C45  1  0.60493416  0.41632466  0.64913514  1  0.098676  -0.003059  3.763384  -0.003  0.1214  -0.002934  3.991807  -0.003  0.120636  -0.002244  4.016743  -0.002  -0.018484  0.121888  -0.003356  3.974732  -0.003
C  C46  1  0.51200568  0.53652152  0.27768080  1  -0.107563  0.0032  3.740496  0.003  -0.125319  0.00228  3.98414  0.002  -0.128369  0.00187  4.006433  0.002  -0.091475  -0.123147  0.002608  3.968944  0.002
C  C47  1  0.48799903  0.46348122  0.72231890  1  -0.107545  -0.003245  3.740624  -0.003  -0.125295  -0.002279  3.9842  -0.002  -0.128344  -0.00187  4.006494  -0.002  -0.091448  -0.123123  -0.002608  3.968997  -0.002
C  C48  1  0.48471646  0.41258778  0.29680920  1  -0.120326  -0.000925  3.761801  -0.001  -0.14125  0.000152  4.011185  0.0  -0.143377  3.1e-05  4.032409  0.0  -0.098748  -0.139672  0.00021  3.996694  0.0
C  C49  1  0.51528831  0.58741595  0.70318658  1  -0.12028  0.000974  3.7618  0.001  -0.141187  -0.000151  4.011159  0.0  -0.143314  -3.1e-05  4.03238  0.0  -0.098716  -0.13961  -0.00021  3.996667  0.0
C  C50  1  0.33556709  0.33460864  0.38619892  1  0.103199  0.005458  3.749197  0.005  0.124797  0.004253  3.977062  0.004  0.12413  0.003546  4.00208  0.004  -0.018507  0.125132  0.00469  3.960051  0.005
C  C51  1  0.66444437  0.66539036  0.61379672  1  0.103329  -0.005506  3.749048  -0.005  0.124913  -0.004253  3.976947  -0.004  0.124247  -0.003545  4.001963  -0.004  -0.018469  0.125245  -0.004689  3.959942  -0.005
C  C52  1  0.22726525  0.37830400  0.46667234  1  -0.117855  0.000557  3.736806  0.001  -0.133153  0.001207  3.98361  0.001  -0.136809  0.000916  4.00611  0.001  -0.097029  -0.130722  0.001398  3.968558  0.001
C  C53  1  0.77274324  0.62169114  0.53332710  1  -0.118007  -0.000498  3.736585  0.0  -0.133339  -0.001208  3.983446  -0.001  -0.13699  -0.000916  4.005946  -0.001  -0.097112  -0.13091  -0.001398  3.9684  -0.001
C  C54  1  0.25810749  0.50089780  0.45021406  1  -0.111668  0.000934  3.742099  0.0  -0.133334  0.00078  3.989261  0.0  -0.135468  0.000693  4.011486  0.0  -0.095471  -0.13179  0.000805  3.974199  0.0
C  C55  1  0.74189547  0.49909731  0.54978677  1  -0.111594  -0.001  3.742064  0.0  -0.1333  -0.000776  3.989186  0.0  -0.135433  -0.000692  4.011409  0.0  -0.09542  -0.131755  -0.000805  3.974123  0.0
C  C56  1  0.28513673  0.20814540  0.39488646  1  -0.201215  -0.001236  3.629331  -0.004  -0.23235  0.0017  3.864556  -0.001  -0.230538  0.001331  3.875801  -0.001  -0.154086  -0.232946  0.001927  3.857047  0.0
C  C57  1  0.71487340  0.79185457  0.60510713  1  -0.201341  0.001277  3.629397  0.004  -0.232522  -0.0017  3.864685  0.001  -0.23071  -0.001331  3.875928  0.001  -0.154087  -0.23311  -0.001927  3.857169  0.0
C  C58  1  0.18782181  0.81352388  0.11081671  1  -0.202091  -0.002165  3.639466  -0.005  -0.23423  0.00113  3.872543  -0.001  -0.231998  0.0008  3.88415  -0.001  -0.150371  -0.235011  0.001377  3.8644  -0.001
C  C59  1  0.81216615  0.18647593  0.88918592  1  -0.202131  0.00218  3.639487  0.005  -0.234239  -0.001131  3.872468  0.001  -0.231981  -0.0008  3.884066  0.001  -0.150397  -0.235025  -0.001377  3.864326  0.001
C  C60  1  0.14999946  0.68636575  0.11696951  1  0.1036  0.004967  3.749042  0.005  0.125989  0.003931  3.975497  0.004  0.125249  0.003185  4.000301  0.003  -0.016168  0.126389  0.004411  3.958577  0.004
C  C61  1  0.84999265  0.31363406  0.88303446  1  0.103654  -0.005008  3.749104  -0.005  0.126102  -0.00393  3.975493  -0.004  0.125364  -0.003185  4.000283  -0.003  -0.0162  0.126505  -0.004412  3.958563  -0.004
C  C62  1  0.26695320  0.64575498  0.03724009  1  -0.114008  0.000705  3.737938  0.001  -0.13042  0.001311  3.98471  0.001  -0.133761  0.00102  4.007331  0.001  -0.095327  -0.128158  0.001509  3.969539  0.001
C  C63  1  0.73303349  0.35424677  0.96276004  1  -0.11399  -0.000639  3.738098  -0.001  -0.130463  -0.001311  3.984847  -0.001  -0.133774  -0.00102  4.007491  -0.001  -0.095294  -0.128199  -0.001509  3.969669  -0.001
C  C64  1  0.24221209  0.52401066  0.04970520  1  -0.110802  0.000525  3.73633  0.0  -0.132888  0.000586  3.983631  0.0  -0.135231  0.000469  4.005682  0.0  -0.094902  -0.131195  0.000677  3.968626  0.0
C  C65  1  0.75777859  0.47598820  0.95029848  1  -0.110848  -0.000619  3.736429  0.0  -0.132926  -0.000586  3.983777  0.0  -0.13527  -0.000468  4.005824  0.0  -0.094908  -0.131244  -0.000677  3.968771  0.0
C  C66  1  0.10328850  0.43883563  0.14447485  1  0.09671  0.002701  3.76817  0.003  0.119622  0.002637  3.996572  0.002  0.118908  0.002047  4.021869  0.002  -0.019161  0.120115  0.003008  3.979288  0.003
C  C67  1  0.89670217  0.56116320  0.85553057  1  0.097003  -0.002647  3.768352  -0.002  0.119858  -0.002635  3.996819  -0.002  0.119143  -0.002047  4.022116  -0.002  -0.019069  0.120355  -0.003008  3.979538  -0.003
C  C68  1  0.97978558  0.48229581  0.21821371  1  -0.109045  0.002716  3.732732  0.002  -0.127693  0.001943  3.978465  0.002  -0.130871  0.001532  4.000804  0.001  -0.091338  -0.125472  0.002245  3.963316  0.002
C  C69  1  0.02020790  0.51770398  0.78179186  1  -0.109439  -0.002738  3.733074  -0.002  -0.128072  -0.001944  3.97883  -0.002  -0.131252  -0.001533  4.001171  -0.001  -0.091521  -0.125857  -0.002245  3.963684  -0.002
C  C70  1  0.00111137  0.60528724  0.20317861  1  -0.117564  -0.000503  3.755007  -0.001  -0.138847  0.000411  4.003789  0.0  -0.140286  0.000282  4.024258  0.0  -0.09661  -0.13771  0.000468  3.98979  0.0
C  C71  1  0.99888083  0.39471448  0.79682446  1  -0.117539  0.000523  3.755025  0.001  -0.138853  -0.000412  4.003783  0.0  -0.140292  -0.000281  4.024254  0.0  -0.096578  -0.137717  -0.000467  3.989779  0.0
C  C72  1  0.08954156  0.30185936  0.17232425  1  -0.188379  -0.003752  3.619007  -0.006  -0.224364  -0.000618  3.861114  -0.003  -0.22198  -0.000984  3.871437  -0.003  -0.144679  -0.225658  -0.000311  3.854539  -0.002
C  C73  1  0.91045333  0.69814048  0.82767772  1  -0.188373  0.003732  3.618802  0.006  -0.224305  0.000618  3.860873  0.003  -0.221919  0.000985  3.871197  0.003  -0.144677  -0.225613  0.000311  3.854323  0.002
C  C74  1  0.76838888  0.00121900  0.24177037  1  -0.014018  -0.000579  3.643655  0.0  -0.101937  -0.000837  3.905287  0.0  -0.094923  -0.000771  3.907957  0.0  -0.157618  -0.106403  -0.000844  3.903507  0.0
C  C75  1  0.23161164  0.99878280  0.75822758  1  -0.013879  0.000628  3.643675  0.0  -0.101862  0.000837  3.905322  0.0  -0.094812  0.000771  3.908019  0.0  -0.157566  -0.106327  0.000845  3.903546  0.0
S  S76  1  0.19598193  0.80453331  0.27140571  1  0.108717  0.122012  2.639132  0.122  0.11381  0.088658  3.037892  0.094  0.095142  0.076069  3.03471  0.085  0.026436  0.122676  0.093192  3.041481  0.096
S  S77  1  0.80401848  0.19546654  0.72859573  1  0.108679  -0.121994  2.639276  -0.122  0.113784  -0.088653  3.038081  -0.094  0.095104  -0.07606  3.034898  -0.085  0.026405  0.122647  -0.09319  3.041662  -0.096
S  S78  1  0.29321508  0.21169947  0.23531669  1  0.082754  0.115079  2.644846  0.115  0.088397  0.084577  3.048145  0.089  0.071405  0.073274  3.043832  0.081  0.016419  0.096241  0.08873  3.052808  0.091
S  S79  1  0.70678417  0.78830428  0.76467703  1  0.082702  -0.115081  2.644656  -0.115  0.08836  -0.08458  3.047942  -0.089  0.071356  -0.073272  3.043645  -0.081  0.016375  0.096204  -0.088731  3.05261  -0.091
Br  Br80  1  0.25770798  0.88764830  0.49207707  1  -0.461765  0.119166  1.081316  0.109  -0.428966  0.091239  1.387216  0.085  -0.454105  0.080215  1.362686  0.077  -0.207713  -0.414271  0.094169  1.404504  0.086
Br  Br81  1  0.74233560  0.11235743  0.50791759  1  -0.461734  -0.119207  1.081372  -0.109  -0.428927  -0.091241  1.387258  -0.085  -0.454076  -0.080238  1.362734  -0.077  -0.207703  -0.414232  -0.094171  1.404536  -0.086
Br  Br82  1  0.28445819  0.11995440  0.01821808  1  -0.45179  0.159332  1.044222  0.147  -0.4327  0.11715  1.35647  0.111  -0.460331  0.102902  1.334301  0.101  -0.22774  -0.417638  0.119977  1.372601  0.112
Br  Br83  1  0.71553356  0.88003784  0.98178255  1  -0.451759  -0.159329  1.044142  -0.147  -0.432699  -0.117151  1.356422  -0.111  -0.460341  -0.102896  1.334265  -0.101  -0.227743  -0.417638  -0.119971  1.372551  -0.112
O  O84  1  0.91703686  0.00850273  0.30541511  1  -0.525559  -0.002376  2.297442  -0.002  -0.467111  -0.002  2.553829  -0.002  -0.489378  -0.001709  2.542331  -0.001  -0.43035  -0.452602  -0.00224  2.56158  -0.002
O  O85  1  0.08296490  0.99149621  0.69458319  1  -0.525505  0.002365  2.297432  0.002  -0.467066  0.001999  2.553878  0.002  -0.48932  0.001709  2.542329  0.001  -0.430312  -0.452558  0.002239  2.561621  0.002
