# generated using pymatgen
data_MnH18C21(NO2)2
_symmetry_space_group_name_H-M   'P 1'
_cell_length_a   9.49981525
_cell_length_b   10.20613245
_cell_length_c   11.07907568
_cell_angle_alpha   77.80797383
_cell_angle_beta   83.43097042
_cell_angle_gamma   65.47832464
_symmetry_Int_Tables_number   1
_chemical_formula_structural   MnH18C21(NO2)2
_chemical_formula_sum   'Mn2 H36 C42 N4 O8'
_cell_volume   954.82502045
_cell_formula_units_Z   2
loop_
 _symmetry_equiv_pos_site_id
 _symmetry_equiv_pos_as_xyz
  1  'x, y, z'
loop_
 _atom_site_type_symbol
 _atom_site_label
 _atom_site_symmetry_multiplicity
 _atom_site_fract_x
 _atom_site_fract_y
 _atom_site_fract_z
 _atom_site_occupancy
 _atom_site_hle17_ddec_charge
 _atom_site_hle17_ddec_spin_density
 _atom_site_hle17_ddec_sum_bond_order
 _atom_site_hle17_magmom
 _atom_site_hse06_10hf_ddec_charge
 _atom_site_hse06_10hf_ddec_spin_density
 _atom_site_hse06_10hf_ddec_sum_bond_order
 _atom_site_hse06_10hf_magmom
 _atom_site_hse06_ddec_charge
 _atom_site_hse06_ddec_spin_density
 _atom_site_hse06_ddec_sum_bond_order
 _atom_site_hse06_magmom
 _atom_site_pbe_cm5_charge
 _atom_site_pbe_ddec_charge
 _atom_site_pbe_ddec_spin_density
 _atom_site_pbe_ddec_sum_bond_order
 _atom_site_pbe_magmom
Mn  Mn0  1  0.46745197  0.86060298  0.38262289  1  1.094269  -4.786903  1.863958  -4.66  0.920822  -4.698309  2.379419  -4.505  0.980585  -4.755533  2.307415  -4.58  0.60685  0.874529  -4.633551  2.433934  -4.426
Mn  Mn1  1  0.53255082  0.13939754  0.61737705  1  1.094277  4.786904  1.863917  4.66  0.920818  4.698316  2.379395  4.505  0.980581  4.755539  2.307394  4.58  0.606846  0.874556  4.633561  2.433841  4.426
H  H2  1  0.41159211  0.42585135  0.41656100  1  0.115543  -0.00015  0.963657  0.0  0.12066  -9.5e-05  1.035892  0.0  0.125002  -0.000109  1.031825  0.0  0.110683  0.117357  -4e-05  1.039085  0.0
H  H3  1  0.58840952  0.57414697  0.58344491  1  0.115526  0.000155  0.963718  0.0  0.12065  9.6e-05  1.035942  0.0  0.124992  0.000109  1.031876  0.0  0.110697  0.117346  4e-05  1.039145  0.0
H  H4  1  0.31081885  0.25844174  0.12728256  1  0.096545  0.000247  0.972403  0.0  0.105335  0.000193  1.04076  0.0  0.108798  0.000201  1.03826  0.0  0.101072  0.102837  0.000154  1.042368  0.0
H  H5  1  0.68917585  0.74156327  0.87272192  1  0.096571  -0.000238  0.972443  0.0  0.105366  -0.000193  1.040764  0.0  0.108841  -0.000201  1.038248  0.0  0.101125  0.102875  -0.000154  1.042367  0.0
H  H6  1  0.33552952  0.68028946  0.04899877  1  0.097902  0.000124  0.948838  0.0  0.108323  -2.5e-05  1.012435  0.0  0.112019  1.4e-05  1.009732  0.0  0.102375  0.105465  -5.2e-05  1.014586  0.0
H  H7  1  0.66447596  0.31970984  0.95100653  1  0.097914  -0.000121  0.948797  0.0  0.108306  2.5e-05  1.012428  0.0  0.112001  -1.4e-05  1.009728  0.0  0.102365  0.105446  5.3e-05  1.014578  0.0
H  H8  1  0.33806883  0.38511768  0.90564611  1  0.115289  -0.000128  0.946254  0.0  0.137435  -0.00017  1.004447  0.0  0.138408  -0.000173  1.005543  0.0  0.092957  0.136538  -0.000166  1.004008  0.0
H  H9  1  0.66193117  0.61488723  0.09435510  1  0.115301  0.000119  0.94618  0.0  0.137447  0.00017  1.004389  0.0  0.138413  0.000172  1.005493  0.0  0.092928  0.136548  0.000166  1.003953  0.0
H  H10  1  0.30727892  0.57259966  0.87858354  1  0.110475  3.4e-05  0.958446  0.0  0.130271  2.6e-05  1.021061  0.0  0.131215  2.3e-05  1.022613  0.0  0.090777  0.129532  2e-05  1.020168  0.0
H  H11  1  0.69272264  0.42740409  0.12142044  1  0.110438  -3.8e-05  0.958558  0.0  0.130274  -2.6e-05  1.021089  0.0  0.131207  -2.3e-05  1.02267  0.0  0.090762  0.129535  -2e-05  1.020191  0.0
H  H12  1  0.15264489  0.51849962  0.93334853  1  0.099646  4e-05  0.948897  0.0  0.121605  -6e-06  1.012668  0.0  0.122743  1.1e-05  1.012751  0.0  0.087629  0.121389  -2.9e-05  1.01127  0.0
H  H13  1  0.84735517  0.48150525  0.06665539  1  0.099648  -3.7e-05  0.948863  0.0  0.121593  6e-06  1.01265  0.0  0.122733  -1.2e-05  1.01273  0.0  0.087632  0.121375  2.9e-05  1.011251  0.0
H  H14  1  0.20433324  0.07582117  0.53393495  1  0.082206  -0.000545  0.970206  0.0  0.087871  -0.000959  1.038113  0.0  0.090538  -0.000825  1.035832  0.0  0.11555  0.086105  -0.001065  1.039351  0.0
H  H15  1  0.79566756  0.92418159  0.46606208  1  0.082195  0.000525  0.970272  0.0  0.087895  0.000959  1.038142  0.0  0.090563  0.000825  1.035862  0.0  0.115558  0.086124  0.001065  1.039386  0.0
H  H16  1  0.00048963  0.07609623  0.69738613  1  0.109564  -0.000354  0.945753  0.0  0.120415  -0.000405  1.004754  0.0  0.123368  -0.000347  1.004762  0.0  0.106992  0.118475  -0.000438  1.004559  0.0
H  H17  1  0.99951526  0.92390427  0.30261089  1  0.109571  0.000354  0.945753  0.0  0.120431  0.000405  1.00474  0.0  0.123385  0.000348  1.004739  0.0  0.107004  0.118492  0.000438  1.004541  0.0
H  H18  1  0.13610311  0.61832222  0.68958143  1  0.10405  -0.000246  0.947476  0.0  0.117061  -0.000265  1.002883  0.0  0.119839  -0.000214  1.00266  0.0  0.106917  0.114907  -0.000314  1.003498  0.0
H  H19  1  0.86389396  0.38168176  0.31041215  1  0.104037  0.000223  0.947688  0.0  0.117028  0.000265  1.003096  0.0  0.119808  0.000214  1.002873  0.0  0.106907  0.114875  0.000314  1.003709  0.0
H  H20  1  0.33145228  0.63677267  0.52652521  1  0.085497  -1e-05  0.969191  0.0  0.091199  -0.000241  1.037313  0.0  0.093751  -0.000177  1.034868  0.0  0.116889  0.089425  -0.00034  1.03894  -0.001
H  H21  1  0.66854656  0.36323232  0.47347160  1  0.085475  1e-05  0.969082  0.0  0.091172  0.000241  1.037221  0.0  0.093727  0.000177  1.03477  0.0  0.116869  0.089396  0.00034  1.03885  0.001
H  H22  1  0.82326592  0.92116686  0.78869855  1  0.110805  -0.00044  0.946826  0.0  0.126553  -0.000421  1.008548  0.0  0.128286  -0.000445  1.007662  0.0  0.10581  0.125099  -0.000421  1.00966  0.0
H  H23  1  0.17673336  0.07883164  0.21129675  1  0.110829  0.000429  0.946776  0.0  0.126515  0.000421  1.008557  0.0  0.128257  0.000445  1.007666  0.0  0.1058  0.125063  0.000421  1.009666  0.0
H  H24  1  0.93163534  0.73017292  0.82915379  1  0.070021  -9e-06  0.947132  0.0  0.087051  -6e-06  1.009932  0.0  0.087876  -3e-06  1.009919  0.0  0.090018  0.086609  -1.3e-05  1.009462  0.0
H  H25  1  0.06836500  0.26982557  0.17084050  1  0.070035  2e-06  0.947182  0.0  0.087051  6e-06  1.009949  0.0  0.087883  3e-06  1.009939  0.0  0.090034  0.086609  1.3e-05  1.009478  0.0
H  H26  1  0.99118318  0.96902766  0.91412249  1  0.084479  -4.1e-05  0.950267  0.0  0.102232  -8.6e-05  1.011954  0.0  0.102994  -7.8e-05  1.012549  0.0  0.098482  0.101765  -0.00012  1.011211  0.0
H  H27  1  0.00880931  0.03097206  0.08587692  1  0.084469  7.1e-05  0.950305  0.0  0.102194  8.6e-05  1.012  0.0  0.102961  7.8e-05  1.012595  0.0  0.098482  0.101725  0.00012  1.011256  0.0
H  H28  1  0.10047115  0.77948402  0.96043489  1  0.075012  2e-06  0.958817  0.0  0.09319  -1.6e-05  1.020939  0.0  0.09385  -1.4e-05  1.021334  0.0  0.092775  0.092581  -2.2e-05  1.020844  0.0
H  H29  1  0.89952729  0.22051665  0.03956189  1  0.075055  2.7e-05  0.958764  0.0  0.093191  1.6e-05  1.020898  0.0  0.093858  1.4e-05  1.021291  0.0  0.092794  0.09258  2.2e-05  1.020801  0.0
H  H30  1  0.49728800  0.04793450  0.13035320  1  0.072136  6.8e-05  0.975179  0.0  0.078193  -0.000198  1.045482  0.0  0.080408  -0.00011  1.043633  0.0  0.113892  0.076839  -0.000294  1.046281  -0.001
H  H31  1  0.50270923  0.95205861  0.86964515  1  0.072023  -7.3e-05  0.975259  0.0  0.078084  0.000198  1.045566  0.0  0.080298  0.00011  1.043713  0.0  0.113852  0.076724  0.000294  1.046374  0.001
H  H32  1  0.68428066  0.05656378  0.95283235  1  0.1267  -0.000429  0.978399  0.0  0.134758  -0.000439  1.040834  0.0  0.138917  -0.000439  1.038944  0.0  0.107554  0.131654  -0.000447  1.042518  0.0
H  H33  1  0.31571617  0.94343041  0.04716764  1  0.126687  0.00043  0.97843  0.0  0.134765  0.000439  1.040821  0.0  0.138877  0.00044  1.039005  0.0  0.107547  0.131661  0.000447  1.0425  0.0
H  H34  1  0.02350669  0.66300554  0.15602011  1  0.104529  -0.000211  0.970955  0.0  0.113944  -0.000251  1.032598  0.0  0.115991  -0.000196  1.034061  0.0  0.102432  0.112942  -0.000316  1.030768  0.0
H  H35  1  0.97649249  0.33699074  0.84398014  1  0.104492  0.000206  0.970909  0.0  0.113898  0.000251  1.032581  0.0  0.115945  0.000196  1.034044  0.0  0.102401  0.112893  0.000316  1.030749  0.0
H  H36  1  0.82093530  0.67199380  0.32415696  1  0.08259  -3.2e-05  0.917238  0.0  0.094497  -0.000407  0.97251  0.0  0.097306  -0.000258  0.969842  0.0  0.122268  0.09235  -0.000593  0.974663  0.0
H  H37  1  0.17906389  0.32800248  0.67584418  1  0.082614  2.2e-05  0.917245  0.0  0.094493  0.000407  0.972543  0.0  0.097301  0.000258  0.969878  0.0  0.122276  0.092349  0.000593  0.974702  0.0
C  C38  1  0.37760542  0.56414386  0.23629427  1  -0.055385  0.002236  3.781929  0.002  -0.029593  0.001764  4.018051  0.002  -0.03652  0.001921  4.038944  0.002  -0.018842  -0.026122  0.000788  4.005057  0.001
C  C39  1  0.62239534  0.43585665  0.76371132  1  -0.055321  -0.002177  3.781759  -0.002  -0.029538  -0.001763  4.017879  -0.002  -0.03647  -0.001926  4.038777  -0.002  -0.01882  -0.026058  -0.000788  4.00487  -0.001
C  C40  1  0.38504492  0.43866028  0.32059879  1  -0.082766  0.000724  3.700289  0.0  -0.121972  0.001148  3.949315  0.001  -0.119707  0.000503  3.967584  0.0  -0.080765  -0.124094  -0.001268  3.938817  -0.001
C  C41  1  0.61495469  0.56134029  0.67940329  1  -0.082749  -0.000801  3.700142  -0.001  -0.12196  -0.00115  3.949167  -0.001  -0.119695  -0.00049  3.967437  0.0  -0.080773  -0.124081  0.001268  3.938673  0.001
C  C42  1  0.35924270  0.32902385  0.28144452  1  -0.071268  7e-05  3.792468  0.0  -0.045229  0.000134  4.029146  0.0  -0.054434  0.000299  4.051568  0.0  -0.02311  -0.039674  -0.000753  4.015541  -0.001
C  C43  1  0.64075349  0.67098004  0.71855911  1  -0.071409  -7e-06  3.792506  0.0  -0.045374  -0.000131  4.029205  0.0  -0.054583  -0.000307  4.051627  0.0  -0.023206  -0.039831  0.000753  4.015622  0.001
C  C44  1  0.32801054  0.34566502  0.15721786  1  -0.12973  -0.002586  3.702051  -0.002  -0.163826  -0.003207  3.946359  -0.002  -0.162075  -0.00264  3.964071  -0.002  -0.089111  -0.164077  -0.000173  3.933499  0.0
C  C45  1  0.67199039  0.65433766  0.84278639  1  -0.129666  0.002511  3.702092  0.002  -0.163772  0.003207  3.946408  0.002  -0.162026  0.002646  3.964108  0.002  -0.08906  -0.164026  0.000173  3.933557  0.0
C  C46  1  0.31706423  0.47177592  0.07188296  1  0.125386  0.001034  3.781956  0.001  0.155576  0.000266  4.022877  0.001  0.154408  0.000539  4.046487  0.001  -0.014569  0.155943  -0.000197  4.006585  0.0
C  C47  1  0.68293497  0.52822574  0.92811987  1  0.125357  -0.000987  3.782072  -0.001  0.155587  -0.000267  4.022919  -0.001  0.154419  -0.000541  4.046529  -0.001  -0.014594  0.155951  0.000197  4.006625  0.0
C  C48  1  0.34121903  0.58122942  0.11322544  1  -0.124169  -0.003031  3.693109  -0.003  -0.157992  -0.003749  3.940735  -0.003  -0.156297  -0.003028  3.957498  -0.002  -0.084178  -0.158426  -0.000688  3.92946  -0.001
C  C49  1  0.65878232  0.41877218  0.88677807  1  -0.124211  0.002981  3.693148  0.003  -0.158013  0.003748  3.940741  0.003  -0.156318  0.00303  3.957506  0.002  -0.084174  -0.158444  0.000688  3.929459  0.001
C  C50  1  0.41100414  0.67806057  0.27837154  1  0.6205  -0.004055  3.933013  -0.002  0.573244  -0.007901  4.223354  -0.005  0.606756  -0.006405  4.218455  -0.004  0.200367  0.550626  -0.009703  4.224731  -0.006
C  C51  1  0.58899883  0.32194212  0.72162707  1  0.620548  0.004035  3.932644  0.002  0.573311  0.007902  4.222952  0.005  0.606821  0.006402  4.218055  0.004  0.200364  0.550694  0.009702  4.224331  0.006
C  C52  1  0.36677993  0.19447084  0.37125503  1  0.674176  0.004728  3.861691  0.004  0.618042  0.005584  4.1536  0.005  0.657114  0.00404  4.142795  0.004  0.225595  0.589506  0.008055  4.161244  0.007
C  C53  1  0.63322307  0.80552644  0.62874370  1  0.674351  -0.004748  3.861731  -0.004  0.618226  -0.005585  4.153634  -0.005  0.657299  -0.004043  4.142827  -0.004  0.225682  0.589678  -0.008056  4.161298  -0.007
C  C54  1  0.27743024  0.48821922  0.94046320  1  -0.339338  -0.000148  3.736337  0.0  -0.422324  -4.9e-05  3.976623  0.0  -0.424977  -5.3e-05  3.987635  0.0  -0.243263  -0.420384  7e-06  3.968904  0.0
C  C55  1  0.72257023  0.51178457  0.05953999  1  -0.33933  0.000169  3.736385  0.0  -0.422322  5e-05  3.976631  0.0  -0.424973  5.4e-05  3.987644  0.0  -0.243242  -0.420381  -7e-06  3.968908  0.0
C  C56  1  0.18391418  0.97705694  0.57025440  1  0.12769  -0.003197  3.710617  -0.003  0.097897  -0.005121  3.965913  -0.004  0.10487  -0.004449  3.985266  -0.004  0.045948  0.093423  -0.00579  3.952398  -0.005
C  C57  1  0.81609025  0.02294466  0.42974156  1  0.127668  0.003257  3.710572  0.003  0.097824  0.005122  3.965876  0.004  0.104797  0.004454  3.985231  0.004  0.045911  0.093346  0.005791  3.952366  0.005
C  C58  1  0.07217096  0.97571227  0.66258507  1  -0.171327  0.001303  3.699731  0.001  -0.188821  0.000724  3.94679  0.001  -0.197437  0.001137  3.969341  0.001  -0.085942  -0.183295  0.00047  3.931897  0.0
C  C59  1  0.92783094  0.02429045  0.33741365  1  -0.171391  -0.001292  3.699835  -0.001  -0.188905  -0.000723  3.946914  -0.001  -0.197522  -0.001142  3.969466  -0.001  -0.085982  -0.183381  -0.00047  3.93203  0.0
C  C60  1  0.05211223  0.84558790  0.70971491  1  0.162719  -0.002649  3.717068  -0.002  0.17852  -0.003817  3.953901  -0.003  0.183923  -0.003425  3.976124  -0.003  0.015184  0.174818  -0.004605  3.939046  -0.004
C  C61  1  0.94789243  0.15441045  0.29028073  1  0.162794  0.002584  3.71708  0.002  0.178624  0.003819  3.953808  0.003  0.184041  0.00343  3.976031  0.003  0.015217  0.174928  0.004605  3.938947  0.004
C  C62  1  0.14557819  0.72302497  0.65740565  1  -0.182945  0.001213  3.729804  0.001  -0.196608  0.000628  3.969511  0.0  -0.205543  0.001075  3.991843  0.001  -0.087667  -0.19082  0.000406  3.954783  0.0
C  C63  1  0.85441696  0.27698123  0.34258862  1  -0.183013  -0.001108  3.730005  -0.001  -0.196665  -0.000629  3.969667  0.0  -0.205599  -0.00108  3.991993  -0.001  -0.087688  -0.190881  -0.000406  3.95494  0.0
C  C64  1  0.25492844  0.73271532  0.56522536  1  0.128704  -0.002633  3.718141  -0.003  0.100259  -0.004258  3.967967  -0.004  0.107499  -0.003717  3.98748  -0.003  0.046318  0.095585  -0.005241  3.954433  -0.004
C  C65  1  0.74507362  0.26728420  0.43476944  1  0.12878  0.002584  3.718319  0.003  0.100316  0.004258  3.968135  0.004  0.107555  0.00372  3.987649  0.003  0.046359  0.095632  0.005241  3.954602  0.004
C  C66  1  0.93881172  0.83719224  0.81401999  1  -0.161144  -0.000144  3.677062  0.0  -0.204686  -0.000548  3.925308  0.0  -0.206295  -0.000448  3.936493  0.0  -0.15758  -0.203461  -0.000482  3.917866  0.0
C  C67  1  0.06118925  0.16280731  0.18597402  1  -0.161238  0.000205  3.677315  0.0  -0.204731  0.000547  3.925465  0.0  -0.20637  0.00045  3.936698  0.0  -0.157646  -0.203511  0.000482  3.918022  0.0
C  C68  1  0.98460265  0.86151770  0.93396058  1  -0.154391  -0.000168  3.684805  0.0  -0.198177  -0.000407  3.931994  0.0  -0.199301  -0.000312  3.943206  0.0  -0.156563  -0.197319  -0.000387  3.924339  0.0
C  C69  1  0.01539347  0.13848085  0.06603775  1  -0.15442  4.3e-05  3.684938  0.0  -0.198094  0.000409  3.931987  0.0  -0.199226  0.000311  3.943223  0.0  -0.156538  -0.197233  0.000388  3.924324  0.0
C  C70  1  0.61503394  0.96443721  0.13129502  1  0.128509  -0.002025  3.725226  -0.002  0.099728  -0.003636  3.975546  -0.003  0.106246  -0.003112  3.995699  -0.003  0.047031  0.095634  -0.004336  3.961124  -0.004
C  C71  1  0.38496098  0.03555917  0.86870657  1  0.128774  0.002054  3.725269  0.002  0.099975  0.003634  3.975569  0.003  0.106499  0.003111  3.99571  0.003  0.04715  0.095887  0.004335  3.961153  0.004
C  C72  1  0.71926008  0.96864040  0.03344648  1  -0.186595  0.000843  3.692909  0.001  -0.201975  0.000516  3.936084  0.0  -0.211115  0.00086  3.957794  0.001  -0.089037  -0.196476  0.000347  3.921985  0.0
C  C73  1  0.28073841  0.03135485  0.96655133  1  -0.186763  -0.000862  3.693112  -0.001  -0.202129  -0.000515  3.936302  0.0  -0.211248  -0.00086  3.95803  -0.001  -0.089082  -0.196633  -0.000347  3.922205  0.0
C  C74  1  0.87009680  0.85911926  0.03914547  1  0.154053  -0.001838  3.720347  -0.002  0.170838  -0.002829  3.957195  -0.002  0.175953  -0.002524  3.979523  -0.002  0.011667  0.167324  -0.003705  3.942423  -0.003
C  C75  1  0.12990260  0.14087916  0.96085615  1  0.154154  0.001842  3.720336  0.002  0.170859  0.002827  3.957222  0.002  0.175981  0.002524  3.979541  0.002  0.011646  0.167345  0.003705  3.942444  0.003
C  C76  1  0.90750691  0.75018334  0.14555023  1  -0.190774  0.000733  3.723193  0.001  -0.205617  0.000298  3.967186  0.0  -0.213971  0.000645  3.989298  0.0  -0.090197  -0.199754  0.000162  3.951555  0.0
C  C77  1  0.09249227  0.24981294  0.85445001  1  -0.190747  -0.00074  3.723019  -0.001  -0.205558  -0.000297  3.967025  0.0  -0.213909  -0.000645  3.989135  0.0  -0.090155  -0.199686  -0.000162  3.951387  0.0
C  C78  1  0.79571431  0.75452889  0.23969814  1  0.132216  -0.002204  3.72313  -0.002  0.102242  -0.003882  3.977271  -0.003  0.109758  -0.00323  3.994847  -0.003  0.052663  0.096993  -0.004857  3.965425  -0.004
C  C79  1  0.20428336  0.24546852  0.76030205  1  0.132183  0.002252  3.723085  0.002  0.102211  0.00388  3.977218  0.003  0.109729  0.003231  3.994794  0.003  0.052636  0.09695  0.004857  3.96539  0.004
N  N80  1  0.27569765  0.85737661  0.52198589  1  -0.346149  -0.025634  3.236318  -0.013  -0.275518  -0.029211  3.511339  -0.012  -0.297156  -0.026392  3.529209  -0.01  -0.321254  -0.259911  -0.031897  3.498966  -0.014
N  N81  1  0.72430272  0.14262724  0.47801188  1  -0.346088  0.025628  3.236235  0.013  -0.275415  0.029208  3.511216  0.012  -0.297053  0.026386  3.529087  0.01  -0.321216  -0.259806  0.031895  3.498834  0.014
N  N82  1  0.65121426  0.85953597  0.23333292  1  -0.329437  -0.025285  3.247192  -0.014  -0.26086  -0.028758  3.51959  -0.014  -0.280718  -0.026082  3.536523  -0.012  -0.318082  -0.246396  -0.031402  3.507621  -0.017
N  N83  1  0.34878448  0.14046141  0.76666716  1  -0.329486  0.025266  3.247116  0.014  -0.260865  0.028759  3.519474  0.014  -0.280724  0.026081  3.536408  0.012  -0.318072  -0.246412  0.031399  3.507525  0.017
O  O84  1  0.34216361  0.81257132  0.23033841  1  -0.635289  -0.021324  1.939325  -0.016  -0.581192  -0.029241  2.181158  -0.022  -0.608548  -0.025672  2.171604  -0.019  -0.314604  -0.560469  -0.032654  2.186573  -0.025
O  O85  1  0.65783953  0.18742588  0.76966755  1  -0.635366  0.021327  1.938937  0.016  -0.581273  0.02924  2.180754  0.022  -0.60864  0.025671  2.171204  0.019  -0.314621  -0.560554  0.032654  2.186173  0.025
O  O86  1  0.50826183  0.63574888  0.36445191  1  -0.63506  -0.029766  1.969909  -0.022  -0.573448  -0.034379  2.221274  -0.024  -0.604171  -0.030764  2.211183  -0.02  -0.315445  -0.550572  -0.038956  2.226643  -0.028
O  O87  1  0.49174918  0.36424708  0.63554982  1  -0.635033  0.029784  1.970056  0.022  -0.573401  0.034375  2.221376  0.024  -0.604122  0.030763  2.211286  0.02  -0.31542  -0.550533  0.038951  2.226748  0.028
O  O88  1  0.37000193  0.19309332  0.48643890  1  -0.6559  0.03085  2.093174  0.014  -0.591542  0.036216  2.380147  0.014  -0.621861  0.033099  2.361224  0.012  -0.319317  -0.568459  0.040014  2.392683  0.018
O  O89  1  0.63000050  0.80690286  0.51356282  1  -0.655978  -0.03085  2.093265  -0.014  -0.591601  -0.036214  2.380224  -0.014  -0.621921  -0.033103  2.361303  -0.012  -0.319359  -0.568509  -0.040013  2.392768  -0.018
O  O90  1  0.36644277  0.08831532  0.32790143  1  -0.639529  -0.026495  2.096464  -0.01  -0.568382  -0.028696  2.372574  -0.007  -0.59828  -0.027483  2.355931  -0.006  -0.307157  -0.546537  -0.029809  2.384779  -0.007
O  O91  1  0.63355811  0.91168201  0.67209843  1  -0.63957  0.02651  2.096327  0.01  -0.568485  0.028694  2.37251  0.007  -0.598386  0.027486  2.355873  0.006  -0.307206  -0.546626  0.02981  2.384709  0.007
