# generated using pymatgen
data_ZnH18C20(I2O3)4
_symmetry_space_group_name_H-M   'P 1'
_cell_length_a   9.61127437
_cell_length_b   10.59124432
_cell_length_c   10.05207297
_cell_angle_alpha   103.08721740
_cell_angle_beta   98.37697042
_cell_angle_gamma   112.71828205
_symmetry_Int_Tables_number   1
_chemical_formula_structural   ZnH18C20(I2O3)4
_chemical_formula_sum   'Zn1 H18 C20 I8 O12'
_cell_volume   887.85970044
_cell_formula_units_Z   1
loop_
 _symmetry_equiv_pos_site_id
 _symmetry_equiv_pos_as_xyz
  1  'x, y, z'
loop_
 _atom_site_type_symbol
 _atom_site_label
 _atom_site_symmetry_multiplicity
 _atom_site_fract_x
 _atom_site_fract_y
 _atom_site_fract_z
 _atom_site_occupancy
 _atom_site_hle17_bader_spin_density
 _atom_site_hle17_ddec_charge
 _atom_site_hle17_ddec_spin_density
 _atom_site_hle17_ddec_sum_bond_order
 _atom_site_hle17_magmom
 _atom_site_hse06_10hf_bader_spin_density
 _atom_site_hse06_10hf_ddec_charge
 _atom_site_hse06_10hf_ddec_spin_density
 _atom_site_hse06_10hf_ddec_sum_bond_order
 _atom_site_hse06_10hf_magmom
 _atom_site_hse06_bader_spin_density
 _atom_site_hse06_ddec_charge
 _atom_site_hse06_ddec_spin_density
 _atom_site_hse06_ddec_sum_bond_order
 _atom_site_hse06_magmom
 _atom_site_pbe_bader_spin_density
 _atom_site_pbe_cm5_charge
 _atom_site_pbe_ddec_charge
 _atom_site_pbe_ddec_spin_density
 _atom_site_pbe_ddec_sum_bond_order
 _atom_site_pbe_magmom
Zn  Zn0  1  0.49999548  0.50000089  0.49999652  1  0  1.163366  0  1.709663  0  0  0.998956  0  2.140771  0  0  1.046744  0  2.082547  0  0  0.691207  0.965432  0  2.180752  0
H  H1  1  0.85102609  0.50071212  0.56713293  1  0  0.069902  0  0.962323  0  0  0.082285  0  1.039128  0  0  0.082624  0  1.039332  0  0  0.083111  0.081887  0  1.039214  0
H  H2  1  0.14897124  0.49931431  0.43287030  1  0  0.069797  0  0.962371  0  0  0.08217  0  1.039172  0  0  0.08251  0  1.039376  0  0  0.083017  0.081774  0  1.039257  0
H  H3  1  0.82574362  0.34513969  0.43227114  1  0  0.055839  0  0.977026  0  0  0.063783  0  1.062331  0  0  0.064542  0  1.062103  0  0  0.073435  0.063326  0  1.06222  0
H  H4  1  0.17426174  0.65488822  0.56773542  1  0  0.05599  0  0.97724  0  0  0.063886  0  1.062556  0  0  0.064642  0  1.062335  0  0  0.073507  0.063431  0  1.062444  0
H  H5  1  0.75720988  0.32500567  0.58635229  1  0  0.075614  0  0.954292  0  0  0.090135  0  1.024558  0  0  0.091252  0  1.023783  0  0  0.083488  0.089179  0  1.025375  0
H  H6  1  0.24279840  0.67501921  0.41365397  1  0  0.075683  0  0.954447  0  0  0.090227  0  1.024643  0  0  0.091342  0  1.023873  0  0  0.083544  0.08927  0  1.025469  0
H  H7  1  0.27186530  0.53337852  0.19613066  1  0  0.072535  0  0.957457  0  0  0.087942  0  1.026649  0  0  0.08716  0  1.029149  0  0  0.086014  0.088358  0  1.025008  0
H  H8  1  0.72814871  0.46663855  0.80384972  1  0  0.072445  0  0.957755  0  0  0.087921  0  1.026866  0  0  0.087139  0  1.029365  0  0  0.086035  0.08834  0  1.025222  0
H  H9  1  0.35968807  0.45042939  0.07994841  1  0  0.073485  0  0.94461  0  0  0.087172  0  1.01576  0  0  0.088116  0  1.014895  0  0  0.085061  0.086358  0  1.016515  0
H  H10  1  0.64032958  0.54958599  0.92004102  1  0  0.073566  0  0.944731  0  0  0.087311  0  1.01582  0  0  0.088255  0  1.014955  0  0  0.085099  0.086484  0  1.016594  0
H  H11  1  0.47957084  0.60646964  0.22893792  1  0  0.076113  0  0.987005  0  0  0.086594  0  1.066988  0  0  0.087388  0  1.067086  0  0  0.083534  0.085804  0  1.067233  0
H  H12  1  0.52044065  0.39354121  0.77104874  1  0  0.076099  0  0.986944  0  0  0.086581  0  1.066992  0  0  0.087372  0  1.067094  0  0  0.083531  0.085793  0  1.067233  0
H  H13  1  0.54462477  0.27784131  0.40680832  1  0  0.370628  0  0.904846  0  0  0.346481  0  0.972177  0  0  0.357083  0  0.960675  0  0  0.29409  0.338946  0  0.98038  0
H  H14  1  0.45538405  0.72216995  0.59319700  1  0  0.37051  0  0.90489  0  0  0.346345  0  0.972258  0  0  0.356952  0  0.960749  0  0  0.29405  0.338807  0  0.980461  0
H  H15  1  0.27912814  0.33664657  0.25765124  1  0  0.333728  0  0.92323  0  0  0.308281  0  1.005263  0  0  0.31796  0  0.994016  0  0  0.282172  0.301358  0  1.013311  0
H  H16  1  0.72086599  0.66337521  0.74234062  1  0  0.333705  0  0.923122  0  0  0.308365  0  1.005135  0  0  0.318055  0  0.993881  0  0  0.282237  0.301442  0  1.013173  0
H  H17  1  0.28998522  0.96702410  0.30681578  1  0  0.403859  0  0.87502  0  0  0.372302  0  0.953537  0  0  0.384952  0  0.94036  0  0  0.294818  0.363461  0  0.962619  0
H  H18  1  0.71002265  0.03295544  0.69318046  1  0  0.403706  0  0.875236  0  0  0.372164  0  0.953735  0  0  0.384817  0  0.940555  0  0  0.294769  0.363316  0  0.962825  0
C  C19  1  0.28981125  0.18384007  0.45205745  1  0  0.660659  0  3.912893  0  0  0.601395  0  4.218549  0  0  0.635459  0  4.210866  0  0  0.206797  0.578297  0  4.22305  0
C  C20  1  0.71020304  0.81615677  0.54794838  1  0  0.660826  0  3.912676  0  0  0.60126  0  4.218805  0  0  0.635327  0  4.211121  0  0  0.20665  0.57816  0  4.223301  0
C  C21  1  0.13900886  0.08159000  0.47134021  1  0  -0.099456  0  3.767382  0  0  -0.090281  0  4.014871  0  0  -0.093971  0  4.033868  0  0  -0.034833  -0.08812  0  4.002451  0
C  C22  1  0.86101946  0.91838825  0.52865434  1  0  -0.099115  0  3.767418  0  0  -0.08974  0  4.014775  0  0  -0.093422  0  4.033762  0  0  -0.034663  -0.087572  0  4.002324  0
C  C23  1  0.14310246  0.01699187  0.57851111  1  0  -0.02451  0  3.672743  0  0  -0.013525  0  3.940402  0  0  -0.011048  0  3.96151  0  0  -0.061884  -0.015385  0  3.926249  0
C  C24  1  0.85691008  0.98297859  0.42149069  1  0  -0.024945  0  3.672441  0  0  -0.014034  0  3.940167  0  0  -0.011611  0  3.9614  0  0  -0.062049  -0.015888  0  3.926  0
C  C25  1  0.99635037  0.06436593  0.39193712  1  0  -0.024093  0  3.655765  0  0  -0.015687  0  3.926234  0  0  -0.013165  0  3.947499  0  0  -0.062241  -0.017527  0  3.912058  0
C  C26  1  0.00368844  0.93562448  0.60806441  1  0  -0.024443  0  3.65657  0  0  -0.015992  0  3.926785  0  0  -0.013474  0  3.948063  0  0  -0.062351  -0.017825  0  3.912597  0
C  C27  1  0.77304315  0.38699508  0.51102870  1  0  -0.019314  0  3.662335  0  0  -0.112419  0  3.930675  0  0  -0.10625  0  3.935238  0  0  -0.163452  -0.116522  0  3.927613  0
C  C28  1  0.22696081  0.61302957  0.48897597  1  0  -0.019486  0  3.662716  0  0  -0.112556  0  3.931036  0  0  -0.106392  0  3.935613  0  0  -0.163429  -0.11664  0  3.927923  0
C  C29  1  0.37104303  0.50692521  0.18997688  1  0  -0.02152  0  3.626164  0  0  -0.114931  0  3.89123  0  0  -0.10899  0  3.896243  0  0  -0.159722  -0.118716  0  3.887658  0
C  C30  1  0.62896564  0.49308651  0.81000762  1  0  -0.021583  0  3.626828  0  0  -0.115206  0  3.891906  0  0  -0.109257  0  3.89694  0  0  -0.159848  -0.118978  0  3.888304  0
C  C31  1  0.13646987  0.80753072  0.14657368  1  0  0.641272  0  3.883735  0  0  0.591101  0  4.191549  0  0  0.622784  0  4.183265  0  0  0.20817  0.569497  0  4.196454  0
C  C32  1  0.86350674  0.19246142  0.85343334  1  0  0.640955  0  3.883794  0  0  0.590745  0  4.191609  0  0  0.622427  0  4.183331  0  0  0.208124  0.569138  0  4.196513  0
C  C33  1  0.06995945  0.64731379  0.07582774  1  0  -0.086909  0  3.754129  0  0  -0.079886  0  4.00069  0  0  -0.082514  0  4.018912  0  0  -0.027813  -0.078103  0  3.9885  0
C  C34  1  0.93001690  0.35267809  0.92417023  1  0  -0.086687  0  3.753861  0  0  -0.079563  0  4.000231  0  0  -0.082188  0  4.018459  0  0  -0.027777  -0.077774  0  3.988028  0
C  C35  1  0.93834218  0.55288620  0.10689571  1  0  -0.04494  0  3.677253  0  0  -0.031781  0  3.939866  0  0  -0.029837  0  3.961518  0  0  -0.062859  -0.033373  0  3.92554  0
C  C36  1  0.06162884  0.44712024  0.89310679  1  0  -0.044977  0  3.677611  0  0  -0.031816  0  3.940128  0  0  -0.029876  0  3.961779  0  0  -0.062833  -0.033406  0  3.9258  0
C  C37  1  0.86810584  0.40544701  0.03007286  1  0  -0.025649  0  3.663466  0  0  -0.011448  0  3.924765  0  0  -0.009152  0  3.946372  0  0  -0.056444  -0.013114  0  3.910413  0
C  C38  1  0.13185010  0.59452402  0.96992195  1  0  -0.025553  0  3.664155  0  0  -0.011338  0  3.925463  0  0  -0.009046  0  3.94709  0  0  -0.056525  -0.013006  0  3.911111  0
I  I39  1  0.36227462  0.05377730  0.69706592  1  0  0.044846  0  1.487475  0  0  0.028581  0  1.806602  0  0  0.028561  0  1.794575  0  0  0.111249  0.028932  0  1.815425  0
I  I40  1  0.63773866  0.94623372  0.30296182  1  0  0.044996  0  1.487462  0  0  0.028733  0  1.806617  0  0  0.028722  0  1.794611  0  0  0.111312  0.029086  0  1.815436  0
I  I41  1  0.99109381  0.14930405  0.22193353  1  0  0.090358  0  1.588748  0  0  0.07769  0  1.928272  0  0  0.07745  0  1.912997  0  0  0.154248  0.077932  0  1.939271  0
I  I42  1  0.00891270  0.85069894  0.77807964  1  0  0.090316  0  1.588753  0  0  0.077628  0  1.928311  0  0  0.077381  0  1.913033  0  0  0.154179  0.077872  0  1.939306  0
I  I43  1  0.84941268  0.63328830  0.26761458  1  0  0.108924  0  1.542952  0  0  0.090943  0  1.869923  0  0  0.089398  0  1.862168  0  0  0.147516  0.092112  0  1.87562  0
I  I44  1  0.15055490  0.36669275  0.73238390  1  0  0.108867  0  1.54262  0  0  0.09084  0  1.869625  0  0  0.089288  0  1.861864  0  0  0.147459  0.092005  0  1.875316  0
I  I45  1  0.66370628  0.26152726  0.06595067  1  0  0.052363  0  1.448747  0  0  0.04201  0  1.753115  0  0  0.042024  0  1.74073  0  0  0.120356  0.041519  0  1.762229  0
I  I46  1  0.33625901  0.73845806  0.93405443  1  0  0.052225  0  1.448789  0  0  0.041901  0  1.753073  0  0  0.04193  0  1.740663  0  0  0.120313  0.041391  0  1.762221  0
O  O47  1  0.32884858  0.31561717  0.51673999  1  0  -0.622596  0  2.094765  0  0  -0.543  0  2.355231  0  0  -0.573423  0  2.345163  0  0  -0.302821  -0.521778  0  2.361813  0
O  O48  1  0.67115366  0.68435734  0.48323453  1  0  -0.622777  0  2.093819  0  0  -0.543254  0  2.35462  0  0  -0.573713  0  2.344586  0  0  -0.30291  -0.522026  0  2.361203  0
O  O49  1  0.36431545  0.13587210  0.37677750  1  0  -0.594218  0  2.027414  0  0  -0.534288  0  2.243457  0  0  -0.559574  0  2.233963  0  0  -0.29205  -0.516583  0  2.249408  0
O  O50  1  0.63572593  0.86410692  0.62322483  1  0  -0.594052  0  2.028242  0  0  -0.53395  0  2.244381  0  0  -0.559206  0  2.234846  0  0  -0.291753  -0.516251  0  2.250322  0
O  O51  1  0.62695480  0.37911532  0.44083716  1  0  -0.555315  0  2.25864  0  0  -0.479887  0  2.517933  0  0  -0.500104  0  2.504284  0  0  -0.412316  -0.465792  0  2.52721  0
O  O52  1  0.37304168  0.62089426  0.55916426  1  0  -0.555102  0  2.258502  0  0  -0.479684  0  2.517774  0  0  -0.499903  0  2.50413  0  0  -0.412302  -0.46559  0  2.527056  0
O  O53  1  0.38109349  0.41974816  0.27900180  1  0  -0.515112  0  2.243887  0  0  -0.438023  0  2.490791  0  0  -0.456518  0  2.476733  0  0  -0.401302  -0.425031  0  2.500283  0
O  O54  1  0.61890851  0.58026755  0.72098573  1  0  -0.514977  0  2.244328  0  0  -0.43797  0  2.490991  0  0  -0.456507  0  2.476951  0  0  -0.401281  -0.424971  0  2.500479  0
O  O55  1  0.08749202  0.88067041  0.09322868  1  0  -0.526583  0  1.992557  0  0  -0.487573  0  2.223113  0  0  -0.509101  0  2.217114  0  0  -0.286837  -0.472383  0  2.226914  0
O  O56  1  0.91248400  0.11932218  0.90679529  1  0  -0.526432  0  1.992366  0  0  -0.487478  0  2.22305  0  0  -0.50901  0  2.217053  0  0  -0.286839  -0.47229  0  2.226851  0
O  O57  1  0.24850228  0.85696512  0.26536854  1  0  -0.551526  0  2.119294  0  0  -0.503307  0  2.349583  0  0  -0.5263  0  2.336135  0  0  -0.335015  -0.487126  0  2.358306  0
O  O58  1  0.75148799  0.14301711  0.73463802  1  0  -0.551305  0  2.119633  0  0  -0.503109  0  2.349961  0  0  -0.526101  0  2.336511  0  0  -0.334943  -0.486935  0  2.358679  0
