# generated using pymatgen
data_H18PbC24(NO)4
_symmetry_space_group_name_H-M   'P 1'
_cell_length_a   8.60526943
_cell_length_b   9.88551700
_cell_length_c   13.13770948
_cell_angle_alpha   90.17799415
_cell_angle_beta   98.55835280
_cell_angle_gamma   112.43665446
_symmetry_Int_Tables_number   1
_chemical_formula_structural   H18PbC24(NO)4
_chemical_formula_sum   'H36 Pb2 C48 N8 O8'
_cell_volume   1019.29429984
_cell_formula_units_Z   2
loop_
 _symmetry_equiv_pos_site_id
 _symmetry_equiv_pos_as_xyz
  1  'x, y, z'
loop_
 _atom_site_type_symbol
 _atom_site_label
 _atom_site_symmetry_multiplicity
 _atom_site_fract_x
 _atom_site_fract_y
 _atom_site_fract_z
 _atom_site_occupancy
 _atom_site_pbe_bader_spin_density
 _atom_site_pbe_cm5_charge
 _atom_site_pbe_ddec_charge
 _atom_site_pbe_ddec_spin_density
 _atom_site_pbe_ddec_sum_bond_order
 _atom_site_pbe_magmom
H  H0  1  0.35072990  0.10552681  0.55681942  1  0  0.116618  0.090279  0  1.040613  0
H  H1  1  0.64913471  0.89442913  0.44318392  1  0  0.11677  0.090359  0  1.040555  0
H  H2  1  0.14757849  0.21727006  0.58445292  1  0  0.105238  0.110283  0  1.044722  0
H  H3  1  0.85231663  0.78265419  0.41555238  1  0  0.105199  0.110258  0  1.044921  0
H  H4  1  0.14549905  0.30121064  0.76797148  1  0  0.107514  0.105141  0  1.018412  0
H  H5  1  0.85446577  0.69871695  0.23205423  1  0  0.107393  0.104991  0  1.018381  0
H  H6  1  0.89125456  0.02446973  0.90881392  1  0  0.118918  0.100205  0  1.013976  0
H  H7  1  0.10871973  0.97551629  0.09116972  1  0  0.118885  0.100223  0  1.013752  0
H  H8  1  0.92446802  0.10140159  0.09740490  1  0  0.10683  0.120723  0  1.032517  0
H  H9  1  0.07556112  0.89850481  0.90255453  1  0  0.106792  0.120724  0  1.032745  0
H  H10  1  0.72431728  0.20734452  0.14980291  1  0  0.107668  0.106736  0  1.025863  0
H  H11  1  0.27564337  0.79265593  0.85015211  1  0  0.107696  0.106751  0  1.025617  0
H  H12  1  0.45055012  0.43524413  0.28841746  1  0  0.104166  0.105417  0  1.009925  0
H  H13  1  0.54948217  0.56479032  0.71156141  1  0  0.104128  0.1054  0  1.009972  0
H  H14  1  0.35230261  0.57015570  0.40492324  1  0  0.105279  0.104254  0  0.991224  0
H  H15  1  0.64770196  0.42985339  0.59506498  1  0  0.105252  0.104323  0  0.990989  0
H  H16  1  0.11096118  0.64359871  0.34190062  1  0  0.096061  0.076973  0  1.041765  0
H  H17  1  0.88900398  0.35640368  0.65808682  1  0  0.095874  0.076756  0  1.041996  0
H  H18  1  0.97488547  0.58978989  0.15454223  1  0  0.095394  0.08987  0  1.051686  0
H  H19  1  0.02518671  0.41026532  0.84545888  1  0  0.095389  0.089932  0  1.051343  0
H  H20  1  0.07885232  0.45708493  0.03804659  1  0  0.102512  0.103293  0  1.043776  0
H  H21  1  0.92120894  0.54301966  0.96194164  1  0  0.102658  0.103669  0  1.043328  0
H  H22  1  0.01977339  0.71629228  0.74589151  1  0  0.0942  0.107039  0  1.035846  0
H  H23  1  0.98027461  0.28371120  0.25412976  1  0  0.094278  0.107131  0  1.036006  0
H  H24  1  0.16392675  0.88503788  0.71312132  1  0  0.096827  0.113762  0  1.008182  0
H  H25  1  0.83609625  0.11496227  0.28689601  1  0  0.096826  0.113722  0  1.008211  0
H  H26  1  0.08171966  0.79734385  0.52550398  1  0  0.089132  0.072976  0  1.017625  0
H  H27  1  0.91838508  0.20267618  0.47452590  1  0  0.089198  0.073175  0  1.017576  0
H  H28  1  0.92872421  0.63163356  0.55742695  1  0  0.085818  0.074146  0  1.028306  0
H  H29  1  0.07127228  0.36842583  0.44257149  1  0  0.085822  0.074227  0  1.02826  0
H  H30  1  0.17581615  0.58542789  0.66906306  1  0  0.092357  0.107739  0  1.002652  0
H  H31  1  0.82416227  0.41452509  0.33094358  1  0  0.092438  0.107951  0  1.002392  0
H  H32  1  0.17823681  0.58353627  0.53393836  1  0  0.097941  0.112475  0  1.004129  0
H  H33  1  0.82165617  0.41635948  0.46606730  1  0  0.098002  0.112585  0  1.004113  0
H  H34  1  0.50066089  0.29173816  0.17843128  1  0  0.311901  0.292491  0  0.986156  0
H  H35  1  0.49935751  0.70825467  0.82154065  1  0  0.311837  0.292417  0  0.986161  0
Pb  Pb36  1  0.68905592  0.02745441  0.66838767  1  0  0.592246  0.917789  0  1.974393  0
Pb  Pb37  1  0.31090759  0.97265582  0.33181728  1  0  0.592288  0.918108  0  1.973892  0
C  C38  1  0.34665924  0.14072273  0.63452655  1  0  0.055491  0.103346  0  3.937201  0
C  C39  1  0.65333942  0.85932566  0.36547659  1  0  0.055255  0.103085  0  3.936818  0
C  C40  1  0.23229088  0.20567492  0.65103705  1  0  -0.083218  -0.120822  0  3.967422  0
C  C41  1  0.76766419  0.79431534  0.34895695  1  0  -0.083283  -0.120788  0  3.967868  0
C  C42  1  0.23227899  0.25121151  0.75053267  1  0  -0.06596  -0.069006  0  3.940919  0
C  C43  1  0.76772765  0.74878098  0.24947770  1  0  -0.065816  -0.068865  0  3.940754  0
C  C44  1  0.34736544  0.23317149  0.83222029  1  0  0.003321  -0.002939  0  3.99705  0
C  C45  1  0.65269515  0.76690785  0.16777379  1  0  0.003206  -0.003035  0  3.996732  0
C  C46  1  0.45892329  0.16583982  0.80876726  1  0  0.11874  0.114434  0  3.986665  0
C  C47  1  0.54107441  0.83416689  0.19124236  1  0  0.118589  0.114387  0  3.986259  0
C  C48  1  0.58317631  0.14703175  0.88962896  1  0  0.11893  0.117142  0  3.980068  0
C  C49  1  0.41678642  0.85295194  0.11036801  1  0  0.118908  0.117071  0  3.97953  0
C  C50  1  0.80904073  0.07297312  0.93579287  1  0  0.05245  0.093846  0  3.935117  0
C  C51  1  0.19097080  0.92703055  0.06418989  1  0  0.052183  0.093409  0  3.935656  0
C  C52  1  0.82652624  0.11544568  0.04039097  1  0  -0.082521  -0.121745  0  3.964077  0
C  C53  1  0.17351872  0.88455918  0.95959425  1  0  -0.082551  -0.121912  0  3.964817  0
C  C54  1  0.71670242  0.17464259  0.06941634  1  0  -0.067742  -0.066084  0  3.929171  0
C  C55  1  0.28340689  0.82545140  0.93054597  1  0  -0.067816  -0.066028  0  3.929308  0
C  C56  1  0.59221910  0.19249715  0.99432734  1  0  -0.000193  -0.016112  0  4.01764  0
C  C57  1  0.40782984  0.80756143  0.00565406  1  0  -0.000283  -0.016222  0  4.017336  0
C  C58  1  0.47550386  0.25532614  0.01483141  1  0  0.094941  0.094628  0  4.02656  0
C  C59  1  0.52447916  0.74464778  0.98516211  1  0  0.094992  0.094682  0  4.026363  0
C  C60  1  0.35916363  0.27853446  0.93737578  1  0  0.085659  0.088377  0  4.105168  0
C  C61  1  0.64081713  0.72144485  0.06262822  1  0  0.085644  0.088403  0  4.105262  0
C  C62  1  0.32728334  0.36450013  0.08014676  1  0  0.224544  0.305338  0  4.000198  0
C  C63  1  0.67277706  0.63556827  0.91984494  1  0  0.224534  0.305213  0  4.000536  0
C  C64  1  0.27090846  0.43834229  0.15423487  1  0  -0.004196  0.014413  0  4.012092  0
C  C65  1  0.72910267  0.56166567  0.84576006  1  0  -0.004195  0.014523  0  4.011753  0
C  C66  1  0.34733147  0.46966657  0.25847760  1  0  -0.083458  -0.105234  0  3.935168  0
C  C67  1  0.65264107  0.53029963  0.74151791  1  0  -0.083279  -0.104948  0  3.934873  0
C  C68  1  0.29060683  0.54452035  0.32465625  1  0  -0.085733  -0.068861  0  4.001239  0
C  C69  1  0.70938510  0.45546555  0.67534963  1  0  -0.085916  -0.06944  0  4.001673  0
C  C70  1  0.15655471  0.58791866  0.28854900  1  0  -0.094003  -0.105619  0  4.042197  0
C  C71  1  0.84341126  0.41203531  0.71146635  1  0  -0.093834  -0.105245  0  4.042282  0
C  C72  1  0.07946249  0.55692411  0.18501841  1  0  -0.095319  -0.092947  0  4.023783  0
C  C73  1  0.92054473  0.44306178  0.81499426  1  0  -0.095222  -0.092844  0  4.022988  0
C  C74  1  0.13679067  0.48299248  0.11871293  1  0  -0.085222  -0.106917  0  3.949941  0
C  C75  1  0.86325915  0.51706271  0.88128223  1  0  -0.085519  -0.107662  0  3.950018  0
C  C76  1  0.90400097  0.85485414  0.67585659  1  0  0.197156  0.613072  0  4.186052  0
C  C77  1  0.09596184  0.14513514  0.32412672  1  0  0.197096  0.61273  0  4.186315  0
C  C78  1  0.04247885  0.79364791  0.68452523  1  0  -0.173426  -0.297465  0  3.904961  0
C  C79  1  0.95753327  0.20636205  0.31549493  1  0  -0.173451  -0.297406  0  3.905654  0
C  C80  1  0.05332584  0.71869186  0.58590439  1  0  -0.165488  -0.103207  0  3.949451  0
C  C81  1  0.94670363  0.28131486  0.41411589  1  0  -0.165555  -0.103491  0  3.949942  0
C  C82  1  0.36680092  0.77450115  0.61742746  1  0  0.212829  0.624435  0  4.123438  0
C  C83  1  0.63320234  0.22541819  0.38254860  1  0  0.212815  0.624207  0  4.124627  0
C  C84  1  0.19062575  0.65339883  0.60242116  1  0  -0.165931  -0.298888  0  3.915877  0
C  C85  1  0.80935739  0.34654105  0.39758128  1  0  -0.165983  -0.299115  0  3.916522  0
N  N86  1  0.69127000  0.08758280  0.86324380  1  0  -0.295314  -0.269815  0  3.450531  0
N  N87  1  0.30872475  0.91244372  0.13675349  1  0  -0.295135  -0.269653  0  3.449941  0
N  N88  1  0.45455820  0.12027409  0.71067587  1  0  -0.300254  -0.285119  0  3.486557  0
N  N89  1  0.54541518  0.87975453  0.28932471  1  0  -0.300201  -0.285147  0  3.485887  0
N  N90  1  0.45269729  0.31006501  0.10514665  1  0  -0.370457  -0.294308  0  3.562517  0
N  N91  1  0.54734322  0.68998258  0.89483615  1  0  -0.370401  -0.294048  0  3.562209  0
N  N92  1  0.26868167  0.34691165  0.97858865  1  0  -0.337289  -0.401913  0  3.199268  0
N  N93  1  0.73135778  0.65312825  0.02139628  1  0  -0.337279  -0.402075  0  3.199842  0
O  O94  1  0.88853119  0.91494508  0.75859287  1  0  -0.327871  -0.589246  0  2.185031  0
O  O95  1  0.11145375  0.08509912  0.24138076  1  0  -0.327739  -0.588957  0  2.185061  0
O  O96  1  0.81157908  0.84640426  0.58950002  1  0  -0.31816  -0.563747  0  2.153792  0
O  O97  1  0.18836055  0.15352235  0.41050119  1  0  -0.318055  -0.56357  0  2.153958  0
O  O98  1  0.46417813  0.79679588  0.70587582  1  0  -0.297161  -0.548724  0  2.213189  0
O  O99  1  0.53578337  0.20311658  0.29412207  1  0  -0.297082  -0.548509  0  2.213756  0
O  O100  1  0.41226055  0.85515782  0.54402447  1  0  -0.291563  -0.551738  0  2.199799  0
O  O101  1  0.58775318  0.14478221  0.45597024  1  0  -0.291553  -0.551615  0  2.200459  0
