# generated using pymatgen
data_Cd2H19C37N8ClO6
_symmetry_space_group_name_H-M   'P 1'
_cell_length_a   9.89369846
_cell_length_b   12.28363425
_cell_length_c   15.72341249
_cell_angle_alpha   67.73019239
_cell_angle_beta   74.18682939
_cell_angle_gamma   80.02578772
_symmetry_Int_Tables_number   1
_chemical_formula_structural   Cd2H19C37N8ClO6
_chemical_formula_sum   'Cd4 H38 C74 N16 Cl2 O12'
_cell_volume   1696.16362323
_cell_formula_units_Z   2
loop_
 _symmetry_equiv_pos_site_id
 _symmetry_equiv_pos_as_xyz
  1  'x, y, z'
loop_
 _atom_site_type_symbol
 _atom_site_label
 _atom_site_symmetry_multiplicity
 _atom_site_fract_x
 _atom_site_fract_y
 _atom_site_fract_z
 _atom_site_occupancy
 _atom_site_hle17_bader_spin_density
 _atom_site_hle17_ddec_charge
 _atom_site_hle17_ddec_spin_density
 _atom_site_hle17_ddec_sum_bond_order
 _atom_site_hle17_magmom
 _atom_site_hse06_10hf_bader_spin_density
 _atom_site_hse06_10hf_ddec_charge
 _atom_site_hse06_10hf_ddec_spin_density
 _atom_site_hse06_10hf_ddec_sum_bond_order
 _atom_site_hse06_10hf_magmom
 _atom_site_hse06_bader_spin_density
 _atom_site_hse06_ddec_charge
 _atom_site_hse06_ddec_spin_density
 _atom_site_hse06_ddec_sum_bond_order
 _atom_site_hse06_magmom
 _atom_site_pbe_bader_spin_density
 _atom_site_pbe_cm5_charge
 _atom_site_pbe_ddec_charge
 _atom_site_pbe_ddec_spin_density
 _atom_site_pbe_ddec_sum_bond_order
 _atom_site_pbe_magmom
Cd  Cd0  1  0.72051607  0.39135467  0.60539047  1  0  1.078291  0  1.766089  0  0  0.888517  0  2.224056  0  0  0.946332  0  2.172432  0  0  0.720971  0.847028  0  2.259928  0
Cd  Cd1  1  0.27947782  0.60864583  0.39461025  1  0  1.078267  0  1.766066  0  0  0.888505  0  2.224028  0  0  0.946317  0  2.17241  0  0  0.720946  0.847015  0  2.259888  0
Cd  Cd2  1  0.84070441  0.72251869  0.39104488  1  0  1.09253  0  1.769698  0  0  0.903362  0  2.235154  0  0  0.959952  0  2.183456  0  0  0.726184  0.862724  0  2.271357  0
Cd  Cd3  1  0.15929368  0.27748185  0.60895573  1  0  1.092514  0  1.769678  0  0  0.903372  0  2.235096  0  0  0.95996  0  2.183402  0  0  0.726162  0.862728  0  2.271289  0
H  H4  1  0.08638638  0.91253088  0.30530728  1  0  0.108536  0  0.901724  0  0  0.11874  0  0.956697  0  0  0.12149  0  0.954041  0  0  0.132251  0.116598  0  0.958719  0
H  H5  1  0.91360529  0.08747049  0.69468911  1  0  0.108542  0  0.901627  0  0  0.118756  0  0.956609  0  0  0.121506  0  0.953953  0  0  0.132293  0.116618  0  0.958636  0
H  H6  1  0.23162721  0.03346355  0.14804475  1  0  0.109228  0  0.945269  0  0  0.117329  0  1.007041  0  0  0.120758  0  1.005885  0  0  0.108919  0.114675  0  1.008326  0
H  H7  1  0.76837422  0.96653526  0.85195516  1  0  0.109155  0  0.945312  0  0  0.117238  0  1.007106  0  0  0.120665  0  1.005951  0  0  0.108911  0.114587  0  1.008393  0
H  H8  1  0.67776720  0.76901199  0.63776488  1  0  0.090536  0  0.941006  0  0  0.104206  0  0.996949  0  0  0.107367  0  0.995742  0  0  0.100422  0.101881  0  0.998059  0
H  H9  1  0.32223659  0.23099392  0.36222743  1  0  0.090583  0  0.941091  0  0  0.104256  0  0.997015  0  0  0.107417  0  0.995807  0  0  0.100448  0.10192  0  0.998141  0
H  H10  1  0.92121162  0.55450362  0.64715071  1  0  0.089905  0  0.983505  0  0  0.095738  0  1.053097  0  0  0.098495  0  1.050444  0  0  0.101785  0.093497  0  1.055394  0
H  H11  1  0.07878561  0.44549515  0.35284993  1  0  0.089983  0  0.983443  0  0  0.095773  0  1.05309  0  0  0.098531  0  1.050438  0  0  0.101786  0.093553  0  1.055365  0
H  H12  1  0.92683230  0.62454347  0.77690016  1  0  0.104059  0  0.944448  0  0  0.117309  0  0.996967  0  0  0.119977  0  0.99688  0  0  0.110593  0.115209  0  0.997588  0
H  H13  1  0.07317132  0.37545449  0.22309899  1  0  0.104097  0  0.944422  0  0  0.117351  0  0.996932  0  0  0.120022  0  0.996847  0  0  0.110612  0.115247  0  0.997557  0
H  H14  1  0.78087420  0.52747399  0.93985895  1  0  0.104814  0  0.946498  0  0  0.110477  0  1.017474  0  0  0.114512  0  1.01289  0  0  0.109139  0.107542  0  1.020718  0
H  H15  1  0.21912952  0.47253280  0.06013820  1  0  0.104777  0  0.946646  0  0  0.110436  0  1.017612  0  0  0.114471  0  1.013026  0  0  0.109124  0.1075  0  1.020856  0
H  H16  1  0.52385627  0.35375836  0.20491642  1  0  0.088203  0  0.945286  0  0  0.092888  0  1.012515  0  0  0.095922  0  1.011054  0  0  0.11571  0.090612  0  1.013759  0
H  H17  1  0.47613752  0.64624302  0.79508406  1  0  0.088209  0  0.945318  0  0  0.092929  0  1.012498  0  0  0.095964  0  1.011034  0  0  0.115715  0.09065  0  1.013741  0
H  H18  1  0.36661242  0.20234905  0.22274106  1  0  0.082439  0  0.944344  0  0  0.093563  0  1.000645  0  0  0.095707  0  0.999483  0  0  0.120139  0.091844  0  1.001854  0
H  H19  1  0.63338368  0.79765058  0.77726208  1  0  0.082488  0  0.944335  0  0  0.093559  0  1.000712  0  0  0.095701  0  0.99955  0  0  0.120134  0.091843  0  1.001926  0
H  H20  1  0.37265572  0.10281673  0.99838743  1  0  0.09347  0  0.976587  0  0  0.100883  0  1.047319  0  0  0.103941  0  1.044591  0  0  0.105446  0.098859  0  1.048973  0
H  H21  1  0.62735186  0.89717418  0.00161946  1  0  0.093456  0  0.976673  0  0  0.100918  0  1.047346  0  0  0.103977  0  1.044616  0  0  0.105478  0.098894  0  1.048996  0
H  H22  1  0.37313750  0.05598695  0.85300820  1  0  0.116585  0  0.943674  0  0  0.121802  0  1.010404  0  0  0.126143  0  1.007553  0  0  0.109198  0.118809  0  1.012354  0
H  H23  1  0.62688069  0.94400317  0.14700026  1  0  0.116535  0  0.943599  0  0  0.121843  0  1.01026  0  0  0.126185  0  1.007407  0  0  0.109219  0.118851  0  1.012205  0
H  H24  1  0.52468131  0.16742540  0.69963430  1  0  0.109207  0  0.965064  0  0  0.114604  0  1.028389  0  0  0.117729  0  1.025135  0  0  0.122824  0.112176  0  1.030928  0
H  H25  1  0.47532645  0.83256375  0.30037181  1  0  0.109108  0  0.965132  0  0  0.114514  0  1.028462  0  0  0.117631  0  1.025221  0  0  0.122792  0.112086  0  1.031004  0
H  H26  1  0.22495126  0.99240043  0.00286767  1  0  0.097402  0  0.967255  0  0  0.105514  0  1.03708  0  0  0.108664  0  1.033982  0  0  0.108404  0.103246  0  1.039232  0
H  H27  1  0.77504103  0.00759563  0.99713718  1  0  0.097369  0  0.967305  0  0  0.105486  0  1.037113  0  0  0.108642  0  1.033993  0  0  0.108372  0.10319  0  1.03929  0
H  H28  1  0.22349131  0.89987138  0.77506009  1  0  0.088763  0  0.959776  0  0  0.094335  0  1.025346  0  0  0.096372  0  1.024993  0  0  0.117381  0.092692  0  1.025915  0
H  H29  1  0.77651003  0.10012831  0.22494021  1  0  0.088801  0  0.95974  0  0  0.094345  0  1.025342  0  0  0.096381  0  1.024989  0  0  0.117377  0.092701  0  1.025914  0
H  H30  1  0.07183584  0.74341465  0.79489294  1  0  0.080586  0  0.924939  0  0  0.091103  0  0.981054  0  0  0.093751  0  0.979778  0  0  0.119114  0.089062  0  0.98221  0
H  H31  1  0.92816644  0.25658594  0.20510502  1  0  0.080653  0  0.924899  0  0  0.091158  0  0.98102  0  0  0.093805  0  0.979748  0  0  0.119155  0.089113  0  0.98218  0
H  H32  1  0.82097622  0.56359959  0.06177396  1  0  0.103459  0  0.950753  0  0  0.108032  0  1.023261  0  0  0.112094  0  1.018452  0  0  0.108073  0.105293  0  1.026394  0
H  H33  1  0.17903123  0.43639222  0.93822951  1  0  0.10355  0  0.950742  0  0  0.108128  0  1.023223  0  0  0.112191  0  1.018413  0  0  0.108124  0.105381  0  1.026365  0
H  H34  1  0.67921393  0.46277348  0.22694811  1  0  0.119377  0  0.951654  0  0  0.127687  0  1.011153  0  0  0.131519  0  1.009216  0  0  0.111784  0.12498  0  1.012605  0
H  H35  1  0.32079445  0.53721922  0.77305176  1  0  0.119326  0  0.951735  0  0  0.127635  0  1.011231  0  0  0.131467  0  1.009295  0  0  0.111752  0.124935  0  1.012679  0
H  H36  1  0.69494823  0.52307917  0.35700376  1  0  0.114449  0  0.926706  0  0  0.118991  0  0.990701  0  0  0.122257  0  0.98779  0  0  0.127863  0.116474  0  0.992967  0
H  H37  1  0.30505453  0.47691701  0.64299669  1  0  0.114423  0  0.92666  0  0  0.11897  0  0.990655  0  0  0.122258  0  0.987717  0  0  0.12784  0.116453  0  0.99292  0
H  H38  1  0.55433778  0.95672933  0.66005107  1  0  0.102014  0  0.942143  0  0  0.111646  0  1.00375  0  0  0.115719  0  1.000319  0  0  0.104362  0.108621  0  1.006337  0
H  H39  1  0.44566839  0.04327396  0.33994287  1  0  0.10205  0  0.94211  0  0  0.111682  0  1.003711  0  0  0.115754  0  1.000281  0  0  0.104373  0.108637  0  1.006324  0
H  H40  1  0.23616543  0.93809325  0.52904663  1  0  0.121211  0  0.932213  0  0  0.130241  0  0.991226  0  0  0.13511  0  0.986664  0  0  0.109832  0.126748  0  0.994447  0
H  H41  1  0.76382972  0.06191522  0.47095343  1  0  0.121227  0  0.932241  0  0  0.130272  0  0.991253  0  0  0.135138  0  0.986695  0  0  0.10984  0.126778  0  0.994466  0
C  C42  1  0.08510395  0.90163230  0.23972868  1  0  0.166217  0  3.648236  0  0  0.131759  0  3.906924  0  0  0.140277  0  3.923099  0  0  0.071693  0.126267  0  3.895759  0
C  C43  1  0.91488783  0.09836819  0.76026986  1  0  0.166107  0  3.647746  0  0  0.131596  0  3.906512  0  0  0.140115  0  3.922681  0  0  0.07163  0.126103  0  3.895359  0
C  C44  1  0.16636211  0.96777091  0.15212600  1  0  -0.113413  0  3.707569  0  0  -0.126011  0  3.96478  0  0  -0.13349  0  3.986817  0  0  -0.079649  -0.121529  0  3.950258  0
C  C45  1  0.83363074  0.03222959  0.84787491  1  0  -0.112995  0  3.707398  0  0  -0.125563  0  3.964584  0  0  -0.133041  0  3.98662  0  0  -0.079511  -0.121089  0  3.950066  0
C  C46  1  0.51975107  0.74451337  0.57728717  1  0  -0.041942  0  3.702461  0  0  -0.028942  0  3.938008  0  0  -0.029336  0  3.954874  0  0  -0.004393  -0.02892  0  3.92752  0
C  C47  1  0.48024672  0.25548983  0.42271017  1  0  -0.042027  0  3.702422  0  0  -0.028986  0  3.937933  0  0  -0.029384  0  3.954809  0  0  -0.004396  -0.028955  0  3.92744  0
C  C48  1  0.57746504  0.80438194  0.61759557  1  0  -0.103818  0  3.763346  0  0  -0.126061  0  4.021755  0  0  -0.12978  0  4.041396  0  0  -0.09453  -0.123502  0  4.008284  0
C  C49  1  0.42253522  0.19561775  0.38240174  1  0  -0.103823  0  3.76348  0  0  -0.126079  0  4.021879  0  0  -0.129799  0  4.041529  0  0  -0.094504  -0.123508  0  4.008408  0
C  C50  1  0.58336862  0.62278095  0.58127371  1  0  0.683772  0  3.87384  0  0  0.626381  0  4.173673  0  0  0.662811  0  4.16359  0  0  0.209562  0.600675  0  4.180902  0
C  C51  1  0.41663012  0.37722314  0.41872256  1  0  0.683836  0  3.873934  0  0  0.62645  0  4.173738  0  0  0.662879  0  4.163654  0  0  0.209597  0.600732  0  4.180977  0
C  C52  1  0.85762369  0.51601625  0.71859678  1  0  0.150267  0  3.666658  0  0  0.11689  0  3.923835  0  0  0.12448  0  3.941149  0  0  0.056776  0.111857  0  3.912316  0
C  C53  1  0.14238557  0.48397823  0.28140368  1  0  0.15018  0  3.666865  0  0  0.116809  0  3.924087  0  0  0.124395  0  3.941407  0  0  0.056748  0.11176  0  3.912562  0
C  C54  1  0.86059766  0.55454637  0.79147465  1  0  -0.119236  0  3.731872  0  0  -0.130973  0  3.986559  0  0  -0.138492  0  4.008971  0  0  -0.080836  -0.126687  0  3.972145  0
C  C55  1  0.13941369  0.44544813  0.20852544  1  0  -0.119335  0  3.731755  0  0  -0.131071  0  3.98644  0  0  -0.138594  0  4.008854  0  0  -0.080899  -0.126777  0  3.972028  0
C  C56  1  0.78030577  0.50142907  0.88103826  1  0  -0.030456  0  3.700261  0  0  -0.060862  0  3.959405  0  0  -0.057637  0  3.976995  0  0  -0.064042  -0.062576  0  3.947716  0
C  C57  1  0.21970309  0.49856894  0.11895805  1  0  -0.030329  0  3.700194  0  0  -0.060713  0  3.959287  0  0  -0.057475  0  3.976893  0  0  -0.063958  -0.062434  0  3.947598  0
C  C58  1  0.69499401  0.41210675  0.89638984  1  0  -0.047255  0  3.750402  0  0  -0.037753  0  3.988091  0  0  -0.04265  0  4.012291  0  0  -0.002151  -0.035  0  3.972412  0
C  C59  1  0.30500064  0.58789642  0.10360869  1  0  -0.047421  0  3.750467  0  0  -0.0379  0  3.988157  0  0  -0.042861  0  4.012408  0  0  -0.002251  -0.035144  0  3.972468  0
C  C60  1  0.60674469  0.35364492  0.98844556  1  0  0.127907  0  3.769346  0  0  0.123512  0  4.018606  0  0  0.126318  0  4.039558  0  0  0.116623  0.12155  0  4.004638  0
C  C61  1  0.39324767  0.64635998  0.01155348  1  0  0.127887  0  3.769255  0  0  0.123408  0  4.018591  0  0  0.126285  0  4.039478  0  0  0.116614  0.121448  0  4.004614  0
C  C62  1  0.52429446  0.32984603  0.14457057  1  0  0.07696  0  3.70776  0  0  0.053794  0  3.97139  0  0  0.055504  0  3.989158  0  0  0.05406  0.052795  0  3.959223  0
C  C63  1  0.47570412  0.67015010  0.85543253  1  0  0.076913  0  3.707924  0  0  0.053751  0  3.971512  0  0  0.055458  0  3.989287  0  0  0.054095  0.052759  0  3.959342  0
C  C64  1  0.43658128  0.24441579  0.15496848  1  0  0.080453  0  3.722176  0  0  0.055902  0  3.98098  0  0  0.057938  0  3.99873  0  0  0.056599  0.054529  0  3.968983  0
C  C65  1  0.56341693  0.75558386  0.84503492  1  0  0.080345  0  3.722284  0  0  0.05579  0  3.981139  0  0  0.057828  0  3.998889  0  0  0.056544  0.054408  0  3.969157  0
C  C66  1  0.52020103  0.26630253  0.99961920  1  0  0.133354  0  3.766158  0  0  0.129519  0  4.010582  0  0  0.132525  0  4.031087  0  0  0.120154  0.12706  0  3.996808  0
C  C67  1  0.47979964  0.73370334  0.00037875  1  0  0.133363  0  3.766095  0  0  0.129618  0  4.01048  0  0  0.13261  0  4.030971  0  0  0.120189  0.127171  0  3.99669  0
C  C68  1  0.51995134  0.23443906  0.91980695  1  0  -0.042949  0  3.769152  0  0  -0.029636  0  3.999015  0  0  -0.035189  0  4.024468  0  0  -0.001719  -0.0261  0  3.982638  0
C  C69  1  0.48005430  0.76555979  0.08019349  1  0  -0.042843  0  3.769069  0  0  -0.029617  0  3.999011  0  0  -0.035173  0  4.024472  0  0  -0.001659  -0.026082  0  3.982629  0
C  C70  1  0.43620326  0.14731569  0.92877171  1  0  -0.040524  0  3.705207  0  0  -0.068769  0  3.957041  0  0  -0.066414  0  3.976232  0  0  -0.067134  -0.069949  0  3.94433  0
C  C71  1  0.56380830  0.85267703  0.07123078  1  0  -0.040609  0  3.705182  0  0  -0.068895  0  3.95707  0  0  -0.066544  0  3.976269  0  0  -0.067246  -0.070077  0  3.944359  0
C  C72  1  0.43707826  0.12175877  0.85023616  1  0  -0.103355  0  3.689581  0  0  -0.116436  0  3.944873  0  0  -0.123167  0  3.964895  0  0  -0.076664  -0.11232  0  3.931797  0
C  C73  1  0.56293284  0.87823836  0.14976765  1  0  -0.103275  0  3.689251  0  0  -0.11644  0  3.944562  0  0  -0.123171  0  3.964587  0  0  -0.076656  -0.112326  0  3.931489  0
C  C74  1  0.52219744  0.18449346  0.76315316  1  0  0.166442  0  3.628173  0  0  0.134202  0  3.877235  0  0  0.142753  0  3.893068  0  0  0.067745  0.128556  0  3.866678  0
C  C75  1  0.47781297  0.81550014  0.23684864  1  0  0.166583  0  3.628313  0  0  0.134321  0  3.877389  0  0  0.142878  0  3.893227  0  0  0.067818  0.128679  0  3.866834  0
C  C76  1  0.60422421  0.29195425  0.83008704  1  0  0.147995  0  3.753612  0  0  0.136897  0  3.995086  0  0  0.14248  0  4.016655  0  0  0.123204  0.133258  0  3.980633  0
C  C77  1  0.39577160  0.70804803  0.16991345  1  0  0.147905  0  3.753822  0  0  0.136838  0  3.995288  0  0  0.142425  0  4.016852  0  0  0.123149  0.133194  0  3.980835  0
C  C78  1  0.69507095  0.38097088  0.81832403  1  0  0.149796  0  3.734882  0  0  0.140615  0  3.978055  0  0  0.146699  0  3.997904  0  0  0.12281  0.136352  0  3.965  0
C  C79  1  0.30492304  0.61903846  0.18167470  1  0  0.149968  0  3.73481  0  0  0.140774  0  3.97797  0  0  0.146872  0  3.997825  0  0  0.1229  0.13652  0  3.964906  0
C  C80  1  0.16351220  0.94558748  0.07265032  1  0  -0.035045  0  3.693316  0  0  -0.066612  0  3.953278  0  0  -0.063168  0  3.971069  0  0  -0.067284  -0.068488  0  3.941167  0
C  C81  1  0.83647656  0.05441209  0.92735348  1  0  -0.03531  0  3.693565  0  0  -0.066852  0  3.953468  0  0  -0.063412  0  3.971281  0  0  -0.067341  -0.068701  0  3.941365  0
C  C82  1  0.08000851  0.85875605  0.08079570  1  0  -0.040139  0  3.758532  0  0  -0.031236  0  3.998261  0  0  -0.036073  0  4.021801  0  0  -0.001931  -0.028262  0  3.98276  0
C  C83  1  0.91998158  0.14124088  0.91920800  1  0  -0.040139  0  3.758543  0  0  -0.031267  0  3.998262  0  0  -0.036109  0  4.021804  0  0  -0.001989  -0.028288  0  3.982751  0
C  C84  1  0.07760515  0.82885051  0.00035518  1  0  0.119922  0  3.782215  0  0  0.115445  0  4.032993  0  0  0.118118  0  4.054771  0  0  0.116387  0.113456  0  4.018563  0
C  C85  1  0.92238865  0.17115088  0.99964529  1  0  0.119934  0  3.782176  0  0  0.115493  0  4.032901  0  0  0.118167  0  4.054681  0  0  0.116446  0.113506  0  4.018468  0
C  C86  1  0.15678529  0.85495473  0.84369988  1  0  0.087567  0  3.694227  0  0  0.063339  0  3.955037  0  0  0.06586  0  3.972555  0  0  0.058008  0.061564  0  3.943383  0
C  C87  1  0.84321203  0.14504316  0.15630038  1  0  0.087524  0  3.694186  0  0  0.063317  0  3.954991  0  0  0.06584  0  3.972509  0  0  0.058008  0.061538  0  3.943342  0
C  C88  1  0.07163952  0.76715350  0.85530963  1  0  0.076343  0  3.717166  0  0  0.052865  0  3.977343  0  0  0.054697  0  3.994338  0  0  0.056364  0.05165  0  3.965764  0
C  C89  1  0.92836209  0.23284354  0.14469012  1  0  0.076281  0  3.717181  0  0  0.052812  0  3.977348  0  0  0.054645  0  3.994343  0  0  0.056348  0.051606  0  3.965762  0
C  C90  1  0.99214207  0.74018471  0.01215716  1  0  0.127064  0  3.758909  0  0  0.123437  0  4.005061  0  0  0.12571  0  4.02689  0  0  0.118577  0.121605  0  3.990463  0
C  C91  1  0.00785485  0.25981672  0.98784022  1  0  0.127078  0  3.758855  0  0  0.123433  0  4.004958  0  0  0.125706  0  4.026785  0  0  0.118598  0.12159  0  3.990369  0
C  C92  1  0.90738966  0.67880013  0.10511050  1  0  -0.045908  0  3.756822  0  0  -0.03139  0  3.986456  0  0  -0.036785  0  4.012565  0  0  -0.000641  -0.028254  0  3.969525  0
C  C93  1  0.09260633  0.32120039  0.89488921  1  0  -0.045987  0  3.757063  0  0  -0.031409  0  3.986569  0  0  -0.036805  0  4.012677  0  0  -0.000702  -0.02827  0  3.969639  0
C  C94  1  0.82366633  0.58809997  0.12095699  1  0  -0.028072  0  3.685774  0  0  -0.056813  0  3.940039  0  0  -0.054198  0  3.957968  0  0  -0.060128  -0.0582  0  3.928356  0
C  C95  1  0.17633547  0.41189531  0.87904262  1  0  -0.028229  0  3.685847  0  0  -0.056997  0  3.940104  0  0  -0.054383  0  3.958033  0  0  -0.060159  -0.058378  0  3.928437  0
C  C96  1  0.74765009  0.53163285  0.21114746  1  0  -0.099164  0  3.686656  0  0  -0.112432  0  3.939584  0  0  -0.11914  0  3.959913  0  0  -0.07378  -0.108236  0  3.926391  0
C  C97  1  0.25235591  0.46836248  0.78885141  1  0  -0.099054  0  3.686754  0  0  -0.112326  0  3.939694  0  0  -0.119034  0  3.960029  0  0  -0.073773  -0.108139  0  3.926501  0
C  C98  1  0.75503598  0.56611650  0.28532067  1  0  0.170322  0  3.617643  0  0  0.137462  0  3.871205  0  0  0.146276  0  3.886981  0  0  0.072654  0.131649  0  3.860485  0
C  C99  1  0.24496488  0.43387789  0.71468191  1  0  0.170368  0  3.617676  0  0  0.137538  0  3.87125  0  0  0.146336  0  3.88702  0  0  0.072757  0.131718  0  3.860532  0
C  C100  1  0.91036578  0.70754387  0.18369111  1  0  0.141523  0  3.74794  0  0  0.130307  0  3.99035  0  0  0.135461  0  4.012953  0  0  0.120007  0.127066  0  3.97468  0
C  C101  1  0.08962745  0.29245309  0.81631204  1  0  0.141446  0  3.748196  0  0  0.130285  0  3.990512  0  0  0.135444  0  4.013104  0  0  0.12004  0.127049  0  3.97484  0
C  C102  1  0.99904155  0.79852046  0.17110063  1  0  0.148925  0  3.75331  0  0  0.13885  0  3.997658  0  0  0.144793  0  4.018063  0  0  0.122509  0.134792  0  3.983939  0
C  C103  1  0.00095349  0.20147917  0.82890015  1  0  0.149123  0  3.753299  0  0  0.139035  0  3.997629  0  0  0.144978  0  4.018035  0  0  0.12264  0.134972  0  3.983916  0
C  C104  1  0.30427314  0.06302218  0.61728932  1  0  0.608886  0  3.973623  0  0  0.561562  0  4.266095  0  0  0.594976  0  4.262041  0  0  0.177896  0.539053  0  4.26768  0
C  C105  1  0.69573192  0.93698196  0.38270965  1  0  0.608805  0  3.973774  0  0  0.561456  0  4.266256  0  0  0.594846  0  4.262203  0  0  0.17782  0.538943  0  4.267846  0
C  C106  1  0.34796636  0.74731892  0.48287706  1  0  0.62734  0  3.954758  0  0  0.579178  0  4.246314  0  0  0.61299  0  4.241239  0  0  0.186226  0.556464  0  4.248404  0
C  C107  1  0.65203746  0.25268698  0.51712161  1  0  0.627169  0  3.955009  0  0  0.579024  0  4.246552  0  0  0.612836  0  4.24148  0  0  0.186218  0.556316  0  4.248636  0
C  C108  1  0.38094800  0.95262069  0.60382639  1  0  -0.077778  0  3.79292  0  0  -0.052113  0  4.02676  0  0  -0.060994  0  4.050387  0  0  -0.026985  -0.046615  0  4.010959  0
C  C109  1  0.61905561  0.04738698  0.39616861  1  0  -0.07774  0  3.792989  0  0  -0.052023  0  4.02679  0  0  -0.060822  0  4.050302  0  0  -0.026918  -0.046517  0  4.010973  0
C  C110  1  0.50898374  0.90776087  0.63083404  1  0  -0.065097  0  3.742734  0  0  -0.092972  0  4.000389  0  0  -0.090912  0  4.018755  0  0  -0.083832  -0.093882  0  3.987756  0
C  C111  1  0.49101749  0.09223971  0.36916347  1  0  -0.065143  0  3.742788  0  0  -0.093022  0  4.000415  0  0  -0.090986  0  4.018762  0  0  -0.083883  -0.093922  0  3.987783  0
C  C112  1  0.39841498  0.79553355  0.54216216  1  0  -0.070162  0  3.735869  0  0  -0.054454  0  3.969902  0  0  -0.062109  0  3.99128  0  0  -0.01605  -0.049856  0  3.95577  0
C  C113  1  0.60158661  0.20447322  0.45783156  1  0  -0.070041  0  3.735817  0  0  -0.054386  0  3.969917  0  0  -0.062046  0  3.991306  0  0  -0.016064  -0.049795  0  3.955789  0
C  C114  1  0.32963140  0.89825437  0.55669305  1  0  -0.067542  0  3.70914  0  0  -0.103251  0  3.956258  0  0  -0.100658  0  3.973888  0  0  -0.077522  -0.104485  0  3.944188  0
C  C115  1  0.67037400  0.10175598  0.44329641  1  0  -0.067651  0  3.709345  0  0  -0.103406  0  3.956518  0  0  -0.100831  0  3.974126  0  0  -0.0776  -0.104632  0  3.944442  0
N  N116  1  0.77751068  0.43161512  0.73199545  1  0  -0.336214  0  3.225554  0  0  -0.273441  0  3.491871  0  0  -0.291955  0  3.510736  0  0  -0.312823  -0.260528  0  3.479076  0
N  N117  1  0.22248550  0.56838364  0.26800475  1  0  -0.336267  0  3.225599  0  0  -0.273482  0  3.491912  0  0  -0.291993  0  3.510774  0  0  -0.312849  -0.260581  0  3.479136  0
N  N118  1  0.60312158  0.26634460  0.75399452  1  0  -0.339014  0  3.24627  0  0  -0.26945  0  3.507853  0  0  -0.289037  0  3.526483  0  0  -0.316038  -0.25589  0  3.494644  0
N  N119  1  0.39688405  0.73365425  0.24600464  1  0  -0.339077  0  3.246454  0  0  -0.269506  0  3.508015  0  0  -0.289092  0  3.526639  0  0  -0.316071  -0.255948  0  3.494809  0
N  N120  1  0.60826917  0.38455539  0.06218044  1  0  -0.294237  0  3.043606  0  0  -0.267479  0  3.312391  0  0  -0.27503  0  3.327995  0  0  -0.30114  -0.261999  0  3.301462  0
N  N121  1  0.39173112  0.61544429  0.93782132  1  0  -0.294101  0  3.043837  0  0  -0.267329  0  3.312653  0  0  -0.274898  0  3.328242  0  0  -0.301085  -0.261854  0  3.301728  0
N  N122  1  0.43429264  0.21232561  0.08380312  1  0  -0.293477  0  3.045042  0  0  -0.262315  0  3.307383  0  0  -0.269569  0  3.321211  0  0  -0.29958  -0.256918  0  3.297538  0
N  N123  1  0.56570783  0.78767231  0.91619721  1  0  -0.293417  0  3.045246  0  0  -0.262247  0  3.307543  0  0  -0.269503  0  3.321374  0  0  -0.299586  -0.256855  0  3.297705  0
N  N124  1  0.00378044  0.82081412  0.24787084  1  0  -0.340321  0  3.24211  0  0  -0.276963  0  3.512092  0  0  -0.295868  0  3.530158  0  0  -0.315184  -0.263921  0  3.499679  0
N  N125  1  0.99621527  0.17918905  0.75213068  1  0  -0.340357  0  3.241847  0  0  -0.276991  0  3.511855  0  0  -0.295894  0  3.529917  0  0  -0.315245  -0.263949  0  3.499445  0
N  N126  1  0.83462554  0.65130055  0.27166426  1  0  -0.349316  0  3.225994  0  0  -0.278004  0  3.491994  0  0  -0.298478  0  3.510497  0  0  -0.312523  -0.263353  0  3.47873  0
N  N127  1  0.16536856  0.34869818  0.72833949  1  0  -0.349256  0  3.226029  0  0  -0.278043  0  3.492091  0  0  -0.298522  0  3.510604  0  0  -0.312594  -0.263385  0  3.478816  0
N  N128  1  0.16025150  0.88545702  0.91554385  1  0  -0.287273  0  3.044282  0  0  -0.25958  0  3.315178  0  0  -0.267321  0  3.330586  0  0  -0.297086  -0.254057  0  3.304652  0
N  N129  1  0.83974469  0.11454174  0.08445699  1  0  -0.287296  0  3.044364  0  0  -0.25962  0  3.315258  0  0  -0.267366  0  3.330672  0  0  -0.297162  -0.254095  0  3.304726  0
N  N130  1  0.99032456  0.70995360  0.93810289  1  0  -0.290789  0  3.032663  0  0  -0.261633  0  3.297116  0  0  -0.268958  0  3.31154  0  0  -0.298633  -0.256105  0  3.286694  0
N  N131  1  0.00967505  0.29004255  0.06189748  1  0  -0.290766  0  3.032687  0  0  -0.261611  0  3.297127  0  0  -0.268937  0  3.31155  0  0  -0.298652  -0.256081  0  3.286698  0
Cl  Cl132  1  0.96942238  0.35824574  0.51421870  1  0  -0.566486  0  1.076823  0  0  -0.498255  0  1.379372  0  0  -0.518941  0  1.35162  0  0  -0.289629  -0.48298  0  1.399235  0
Cl  Cl133  1  0.03057017  0.64175740  0.48577957  1  0  -0.566424  0  1.076818  0  0  -0.498214  0  1.37939  0  0  -0.518897  0  1.351637  0  0  -0.289618  -0.482935  0  1.399246  0
O  O134  1  0.68900962  0.60477386  0.51758483  1  0  -0.658865  0  2.057816  0  0  -0.573135  0  2.325285  0  0  -0.607125  0  2.311429  0  0  -0.331417  -0.548936  0  2.335243  0
O  O135  1  0.31099256  0.39522761  0.48241225  1  0  -0.658886  0  2.058012  0  0  -0.573161  0  2.325446  0  0  -0.607144  0  2.311588  0  0  -0.331437  -0.548953  0  2.3354  0
O  O136  1  0.53569318  0.53955788  0.65532934  1  0  -0.616247  0  1.961832  0  0  -0.562981  0  2.204212  0  0  -0.591498  0  2.197333  0  0  -0.312025  -0.542544  0  2.208378  0
O  O137  1  0.46430364  0.46044443  0.34466652  1  0  -0.616267  0  1.961804  0  0  -0.562996  0  2.204154  0  0  -0.591512  0  2.19727  0  0  -0.312037  -0.542555  0  2.208322  0
O  O138  1  0.38117641  0.63671702  0.49577752  1  0  -0.631802  0  1.985606  0  0  -0.560785  0  2.225647  0  0  -0.591263  0  2.216213  0  0  -0.334158  -0.538266  0  2.230941  0
O  O139  1  0.61882108  0.36328883  0.50421655  1  0  -0.631844  0  1.985671  0  0  -0.560819  0  2.225712  0  0  -0.591264  0  2.216213  0  0  -0.334195  -0.538302  0  2.231005  0
O  O140  1  0.28177662  0.81613509  0.42258501  1  0  -0.62895  0  1.917782  0  0  -0.582242  0  2.139962  0  0  -0.607521  0  2.131629  0  0  -0.336684  -0.564099  0  2.144658  0
O  O141  1  0.71822140  0.18387604  0.57741631  1  0  -0.628787  0  1.918019  0  0  -0.582079  0  2.140187  0  0  -0.60738  0  2.131891  0  0  -0.33663  -0.563936  0  2.144882  0
O  O142  1  0.19692677  0.10472320  0.58059718  1  0  -0.638622  0  1.976408  0  0  -0.574715  0  2.213671  0  0  -0.60443  0  2.205298  0  0  -0.343083  -0.553743  0  2.218474  0
O  O143  1  0.80307751  0.89527829  0.41939953  1  0  -0.638551  0  1.976396  0  0  -0.574635  0  2.213672  0  0  -0.604352  0  2.205305  0  0  -0.343047  -0.553663  0  2.218474  0
O  O144  1  0.34682904  0.11150302  0.66289509  1  0  -0.642679  0  1.915348  0  0  -0.591197  0  2.154669  0  0  -0.617302  0  2.145901  0  0  -0.338947  -0.57258  0  2.159723  0
O  O145  1  0.65316974  0.88850106  0.33710691  1  0  -0.642653  0  1.91543  0  0  -0.591172  0  2.154788  0  0  -0.617282  0  2.146031  0  0  -0.338919  -0.57255  0  2.159835  0
