# generated using pymatgen
data_MnZn2H36C72(N2O3)4
_symmetry_space_group_name_H-M   'P 1'
_cell_length_a   13.83717630
_cell_length_b   13.83778271
_cell_length_c   14.15003727
_cell_angle_alpha   112.84191522
_cell_angle_beta   110.09088323
_cell_angle_gamma   104.58722086
_symmetry_Int_Tables_number   1
_chemical_formula_structural   MnZn2H36C72(N2O3)4
_chemical_formula_sum   'Mn1 Zn2 H36 C72 N8 O12'
_cell_volume   2099.92811461
_cell_formula_units_Z   1
loop_
 _symmetry_equiv_pos_site_id
 _symmetry_equiv_pos_as_xyz
  1  'x, y, z'
loop_
 _atom_site_type_symbol
 _atom_site_label
 _atom_site_symmetry_multiplicity
 _atom_site_fract_x
 _atom_site_fract_y
 _atom_site_fract_z
 _atom_site_occupancy
 _atom_site_pbe_bader_charge
 _atom_site_pbe_bader_spin_density
 _atom_site_pbe_cm5_charge
 _atom_site_pbe_ddec_charge
 _atom_site_pbe_ddec_spin_density
 _atom_site_pbe_ddec_sum_bond_order
 _atom_site_pbe_magmom
Mn  Mn0  1  0.49999816  0.50000169  0.00000364  1  1.405344  -3.340581  0.765532  0.725935  -3.454401  2.791519  -3.215
Zn  Zn1  1  0.47935473  0.09390515  0.57314608  1  1.3015  -3.8e-05  0.683307  0.862951  5.9e-05  2.346257  0.0
Zn  Zn2  1  0.52064252  0.90608868  0.42684740  1  1.301766  -3.8e-05  0.683308  0.862932  5.9e-05  2.346291  0.0
H  H3  1  0.12061942  0.22960946  0.94817967  1  0.073529  4.9e-05  0.110855  0.130439  7e-05  1.001838  0.0
H  H4  1  0.28159796  0.17245528  0.05192283  1  0.09734  4.9e-05  0.110866  0.130631  6.5e-05  1.001328  0.0
H  H5  1  0.87937843  0.77039064  0.05182178  1  0.073554  4.9e-05  0.110866  0.130437  7e-05  1.001848  0.0
H  H6  1  0.71840288  0.82755198  0.94809180  1  0.098048  4.9e-05  0.110901  0.130664  6.5e-05  1.001378  0.0
H  H7  1  0.11627095  0.52435704  0.80036395  1  0.11646  0.000209  0.108034  0.126665  0.000149  1.014696  0.0
H  H8  1  0.72410706  0.31593794  0.19956602  1  0.105891  0.000208  0.108096  0.126808  0.000146  1.014757  0.0
H  H9  1  0.88372406  0.47564069  0.19962998  1  0.116365  0.000209  0.108033  0.126651  0.000149  1.014771  0.0
H  H10  1  0.27589514  0.68407240  0.80044207  1  0.105994  0.000208  0.108145  0.126872  0.000146  1.014741  0.0
H  H11  1  0.07564332  0.19016405  0.72284861  1  0.090609  6.4e-05  0.106431  0.114262  0.000111  0.983848  0.0
H  H12  1  0.46759711  0.35297704  0.27721854  1  0.080366  7.3e-05  0.106487  0.1141  0.000117  0.98446  0.0
H  H13  1  0.92435344  0.80984076  0.27714287  1  0.090459  6.4e-05  0.106426  0.114192  0.000111  0.983814  0.0
H  H14  1  0.53242805  0.64703936  0.72280306  1  0.080392  7.4e-05  0.106522  0.114121  0.000117  0.984362  0.0
H  H15  1  0.86227003  0.08379478  0.61274062  1  0.123133  3.8e-05  0.107128  0.114747  1.7e-05  1.004048  0.0
H  H16  1  0.47207362  0.25028493  0.38789537  1  0.079385  4.3e-05  0.107191  0.114986  2.1e-05  1.004091  0.0
H  H17  1  0.13772686  0.91620970  0.38724471  1  0.123088  3.8e-05  0.107106  0.114712  1.7e-05  1.003885  0.0
H  H18  1  0.52794015  0.74972143  0.61211580  1  0.079498  4.3e-05  0.107167  0.114946  2.2e-05  1.004091  0.0
H  H19  1  0.84461339  0.38640668  0.83730641  1  0.076179  2.9e-05  0.103827  0.108022  3.3e-05  1.007027  0.0
H  H20  1  0.54984534  0.00777089  0.16325354  1  0.095843  2.7e-05  0.103751  0.107876  3.1e-05  1.006865  0.0
H  H21  1  0.15538021  0.61358744  0.16269042  1  0.076058  2.9e-05  0.103861  0.10806  3.3e-05  1.006993  0.0
H  H22  1  0.45014805  0.99222593  0.83673867  1  0.095868  2.7e-05  0.103772  0.107828  3.1e-05  1.006994  0.0
H  H23  1  0.05982389  0.49517640  0.94856347  1  0.077458  2e-05  0.099739  0.101993  3.4e-05  1.023776  0.0
H  H24  1  0.54681239  0.11129547  0.05156958  1  0.05659  2.1e-05  0.09957  0.101855  3.4e-05  1.023755  0.0
H  H25  1  0.94017132  0.50482014  0.05143780  1  0.077478  2e-05  0.099743  0.102041  3.4e-05  1.023667  0.0
H  H26  1  0.45318510  0.88871210  0.94842901  1  0.056499  2.1e-05  0.099596  0.101901  3.4e-05  1.023752  0.0
H  H27  1  0.46383804  0.29531399  0.75958153  1  0.099501  -0.003285  0.128407  0.093541  -0.002679  0.975331  0.0
H  H28  1  0.53616440  0.70468603  0.24041757  1  0.099517  -0.003287  0.128401  0.093545  -0.00268  0.975321  0.0
H  H29  1  0.34400795  0.40539128  0.74986603  1  0.121537  -0.002623  0.112205  0.11872  -0.002272  1.058741  0.0
H  H30  1  0.65599934  0.59461615  0.25013567  1  0.121499  -0.002623  0.112206  0.118729  -0.002271  1.058765  0.0
H  H31  1  0.17735625  0.19479212  0.37092069  1  0.10448  -1.7e-05  0.123432  0.13908  -2.7e-05  0.960415  0.0
H  H32  1  0.82263683  0.80519832  0.62907819  1  0.104509  -1.7e-05  0.123439  0.139091  -2.7e-05  0.960468  0.0
H  H33  1  0.30360040  0.09329012  0.39571774  1  0.120697  -1.1e-05  0.126944  0.103018  -1.5e-05  0.997501  0.0
H  H34  1  0.69639274  0.90670084  0.60428480  1  0.120702  -1.1e-05  0.126962  0.103065  -1.5e-05  0.997417  0.0
H  H35  1  0.26441409  0.65121922  0.51591804  1  0.147082  0.000223  0.115534  0.125272  0.000159  0.991668  0.0
H  H36  1  0.13451381  0.74777446  0.48274636  1  0.138049  0.000237  0.115269  0.125024  0.000157  0.991865  0.0
H  H37  1  0.73559774  0.34878773  0.48409021  1  0.147292  0.000223  0.115561  0.125302  0.000159  0.99165  0.0
H  H38  1  0.86548952  0.25222217  0.51724464  1  0.138439  0.000237  0.115237  0.125013  0.000157  0.991858  0.0
C  C39  1  0.21085980  0.26565292  0.97357558  1  -0.04781  -0.002796  -0.096077  -0.170348  -0.001826  3.983288  -0.001
C  C40  1  0.29216342  0.23723453  0.02643632  1  -0.023578  -0.002977  -0.096278  -0.171175  -0.001975  3.983664  -0.001
C  C41  1  0.78913894  0.73434532  0.02642049  1  -0.048049  -0.002796  -0.09608  -0.170336  -0.001825  3.983233  -0.001
C  C42  1  0.70783099  0.76276329  0.97356235  1  -0.024059  -0.002979  -0.096325  -0.17127  -0.001977  3.983871  -0.001
C  C43  1  0.26645592  0.35564432  0.95674436  1  0.370514  0.000413  0.092904  0.18571  0.000509  4.040154  -0.002
C  C44  1  0.39893707  0.30962479  0.04318029  1  0.38056  0.000545  0.092795  0.185644  0.000665  4.040552  -0.002
C  C45  1  0.73354185  0.64435498  0.04325161  1  0.370578  0.000412  0.092919  0.185781  0.000508  4.040096  -0.002
C  C46  1  0.60106378  0.69037790  0.95682618  1  0.390314  0.000501  0.092829  0.185746  0.000664  4.040725  -0.002
C  C47  1  0.20950243  0.40655098  0.90485517  1  0.040224  0.019533  0.001618  -0.074621  0.021019  3.980027  0.012
C  C48  1  0.50176499  0.30460005  0.09508370  1  0.077337  0.019383  0.001812  -0.074537  0.020881  3.978741  0.012
C  C49  1  0.79049746  0.59345125  0.09514848  1  0.040528  0.019539  0.001622  -0.074609  0.021026  3.979986  0.012
C  C50  1  0.49823574  0.69540614  0.90492363  1  0.067625  0.019429  0.001842  -0.07453  0.020884  3.978708  0.012
C  C51  1  0.26515933  0.49952049  0.89587301  1  0.348581  -0.001122  0.089772  0.178618  -0.000155  4.048767  -0.003
C  C52  1  0.60371942  0.36929988  0.10410893  1  0.353904  -0.000905  0.089613  0.178713  -3e-06  4.048159  -0.002
C  C53  1  0.73484149  0.50048346  0.10413435  1  0.348335  -0.001125  0.089786  0.178593  -0.000157  4.048694  -0.003
C  C54  1  0.39628176  0.63070781  0.89590071  1  0.353404  -0.000905  0.089591  0.178704  -4e-06  4.048101  -0.002
C  C55  1  0.20764640  0.54927851  0.83803702  1  -0.038022  -0.001867  -0.097746  -0.168987  -0.000373  3.970777  -0.001
C  C56  1  0.71135259  0.36967753  0.16195018  1  -0.104416  -0.002359  -0.097506  -0.168936  -0.000536  3.970979  -0.001
C  C57  1  0.79235226  0.45072682  0.16196900  1  -0.037639  -0.001863  -0.09772  -0.168917  -0.000369  3.970918  -0.001
C  C58  1  0.28864971  0.63033056  0.83805794  1  -0.104085  -0.002361  -0.097524  -0.168939  -0.000537  3.970872  -0.001
C  C59  1  0.08190316  0.34896630  0.84429061  1  -0.008679  -0.000652  -0.005092  0.082868  -0.000371  4.007105  -0.001
C  C60  1  0.50487963  0.23770413  0.15580026  1  -0.008542  -0.000642  -0.004943  0.083086  -0.000365  4.007807  -0.001
C  C61  1  0.91809511  0.65103503  0.15571132  1  -0.008666  -0.000652  -0.005034  0.082934  -0.000371  4.007012  -0.001
C  C62  1  0.49512250  0.76230070  0.84420492  1  -0.010669  -0.000642  -0.004957  0.083078  -0.000365  4.007892  -0.001
C  C63  1  0.02531802  0.23259914  0.74956397  1  -0.111063  0.001211  -0.084445  -0.120703  0.001358  3.982062  0.001
C  C64  1  0.48339454  0.27598758  0.25061538  1  -0.031483  0.001193  -0.084647  -0.120797  0.00135  3.981939  0.001
C  C65  1  0.97468256  0.76740546  0.25043240  1  -0.111039  0.001212  -0.084499  -0.120704  0.001359  3.9821  0.001
C  C66  1  0.51661598  0.72402001  0.74939778  1  -0.031826  0.001193  -0.084639  -0.120745  0.00135  3.982054  0.001
C  C67  1  0.90636061  0.17318576  0.68779029  1  0.018518  7.7e-05  -0.084594  -0.088538  2.5e-05  3.983278  0.0
C  C68  1  0.48614806  0.21908109  0.31269400  1  -0.009379  8.9e-05  -0.084931  -0.089227  3e-05  3.982978  0.0
C  C69  1  0.09363449  0.82681442  0.31220111  1  0.018522  7.7e-05  -0.084574  -0.088443  2.5e-05  3.983038  0.0
C  C70  1  0.51385969  0.78092313  0.68731258  1  -0.009352  8.9e-05  -0.084906  -0.0892  3e-05  3.983038  0.0
C  C71  1  0.84078643  0.22804121  0.71960219  1  0.006661  0.000541  -0.020518  -0.039381  0.000525  3.977016  0.0
C  C72  1  0.50925293  0.12172922  0.28099042  1  -0.057304  0.000518  -0.020185  -0.038552  0.000498  3.976076  0.0
C  C73  1  0.15921173  0.77195905  0.28039244  1  0.006812  0.000541  -0.020477  -0.039336  0.000525  3.976945  0.0
C  C74  1  0.49074953  0.87827107  0.71901050  1  -0.057493  0.000518  -0.020185  -0.038586  0.000499  3.9761  0.0
C  C75  1  0.89650804  0.34438117  0.81366113  1  -0.03755  -0.000108  -0.086771  -0.095213  -6.6e-05  3.990661  0.0
C  C76  1  0.53134948  0.08324823  0.18680707  1  -0.046432  -0.000108  -0.087047  -0.095718  -6.8e-05  3.990656  0.0
C  C77  1  0.10349009  0.65561716  0.18633968  1  -0.037376  -0.000108  -0.086862  -0.095322  -6.6e-05  3.990574  0.0
C  C78  1  0.46864501  0.91675204  0.81318907  1  -0.04658  -0.000108  -0.087074  -0.095617  -6.8e-05  3.990774  0.0
C  C79  1  0.01630842  0.40463082  0.87526099  1  -0.059313  0.000999  -0.09363  -0.146906  0.001045  3.989993  0.001
C  C80  1  0.52965120  0.14119330  0.12492969  1  -0.071874  0.000974  -0.093417  -0.146607  0.001015  3.990138  0.001
C  C81  1  0.98368844  0.59536537  0.12474111  1  -0.059323  0.001  -0.09361  -0.146963  0.001046  3.989719  0.001
C  C82  1  0.47034755  0.85881296  0.87507108  1  -0.069145  0.000973  -0.093454  -0.14673  0.001015  3.990174  0.001
C  C83  1  0.71244581  0.15894443  0.65039477  1  1.557518  4.5e-05  0.209481  0.590065  3.9e-05  4.178084  0.0
C  C84  1  0.50977471  0.06298774  0.35060965  1  1.589053  3.8e-05  0.209507  0.589911  3.5e-05  4.178539  0.0
C  C85  1  0.28755200  0.84104739  0.34960015  1  1.558479  4.5e-05  0.209517  0.590097  3.9e-05  4.178233  0.0
C  C86  1  0.49022065  0.93700723  0.64938457  1  1.589183  3.8e-05  0.20954  0.589985  3.5e-05  4.178305  0.0
C  C87  1  0.39918995  0.27603938  0.67532286  1  0.476493  -0.002067  0.065076  0.110679  -0.002034  3.918613  -0.001
C  C88  1  0.60081143  0.72395924  0.32467867  1  0.476798  -0.002068  0.06518  0.110815  -0.002034  3.918565  -0.001
C  C89  1  0.33302388  0.33668113  0.66979578  1  0.024014  -0.00278  -0.072322  -0.192113  -0.003076  3.913315  -0.002
C  C90  1  0.66697543  0.66331662  0.33020445  1  0.024015  -0.002781  -0.072365  -0.192175  -0.003076  3.913337  -0.002
C  C91  1  0.25230503  0.30723898  0.55924649  1  0.332188  -1.6e-05  0.119191  0.25617  -1.1e-05  4.006173  0.0
C  C92  1  0.74769588  0.69275941  0.44075364  1  0.332168  -1.6e-05  0.119237  0.256289  -1.1e-05  4.006197  0.0
C  C93  1  0.23995996  0.21909082  0.45821238  1  -0.005063  -0.000225  -0.06865  -0.191151  -0.00015  3.925227  0.0
C  C94  1  0.76003184  0.78090217  0.54178522  1  -0.005027  -0.000225  -0.068725  -0.191301  -0.00015  3.925591  0.0
C  C95  1  0.30921014  0.16289949  0.47128642  1  0.53878  -6.9e-05  0.062504  0.122163  -3e-06  3.908963  0.0
C  C96  1  0.69078860  0.83709557  0.52871494  1  0.538886  -6.9e-05  0.062483  0.122178  -3e-06  3.909103  0.0
C  C97  1  0.22187343  0.46303314  0.53550448  1  1.314264  0.011777  0.237639  0.433924  0.012468  4.113528  0.005
C  C98  1  0.92711366  0.68599170  0.46403670  1  1.331728  0.01168  0.237888  0.433915  0.012402  4.114832  0.005
C  C99  1  0.77813458  0.53697388  0.46450962  1  1.314156  0.011774  0.237641  0.434075  0.012465  4.113539  0.005
C  C100  1  0.07288320  0.31399661  0.53594997  1  1.332625  0.011675  0.237891  0.433692  0.012397  4.114914  0.005
C  C101  1  0.18029048  0.61744452  0.50857077  1  -0.047345  0.018581  -0.06632  -0.071433  0.018954  3.926998  0.009
C  C102  1  0.10830379  0.67116114  0.49038215  1  0.027462  0.018256  -0.065882  -0.07097  0.018911  3.926711  0.009
C  C103  1  0.81971458  0.38255408  0.49142925  1  -0.048245  0.018587  -0.066419  -0.071445  0.01896  3.926961  0.009
C  C104  1  0.89169958  0.32883424  0.50960795  1  0.027395  0.018244  -0.065762  -0.070911  0.018899  3.926938  0.009
C  C105  1  0.14562646  0.51941929  0.51828515  1  -0.011776  0.023339  -0.010662  -0.07437  0.023883  3.99795  0.014
C  C106  1  0.00075766  0.62696914  0.48113900  1  -0.036284  0.023411  -0.010442  -0.073669  0.0239  3.997  0.014
C  C107  1  0.85438037  0.48058016  0.48171227  1  -0.011612  0.02333  -0.010681  -0.074543  0.023873  3.998133  0.014
C  C108  1  0.99923741  0.37302123  0.51884315  1  -0.036839  0.023407  -0.010468  -0.073692  0.023896  3.997158  0.014
C  C109  1  0.03688823  0.47281219  0.50965934  1  -0.094333  -0.003365  0.002948  0.031696  -0.00292  3.988731  -0.003
C  C110  1  0.96311005  0.52718126  0.49032716  1  -0.033029  -0.003334  0.003016  0.031657  -0.002919  3.988985  -0.003
N  N111  1  0.38265492  0.38257808  0.99993179  1  -1.223304  0.007357  -0.377124  -0.364215  0.026889  3.445163  0.033
N  N112  1  0.61734430  0.61742191  0.00006841  1  -1.223342  0.007365  -0.377153  -0.364324  0.026889  3.445329  0.033
N  N113  1  0.38220503  0.55068732  0.93292265  1  -1.221785  -0.000116  -0.37352  -0.37174  0.021777  3.420589  0.033
N  N114  1  0.61779459  0.44931847  0.06708619  1  -1.221608  -0.000106  -0.373479  -0.371666  0.021778  3.420625  0.033
N  N115  1  0.38755516  0.19079705  0.57800542  1  -1.231329  -0.000207  -0.315944  -0.206261  0.000163  3.507228  0.0
N  N116  1  0.61244147  0.80919839  0.42199553  1  -1.231618  -0.000207  -0.316013  -0.20639  0.000163  3.507317  0.0
N  N117  1  0.18135975  0.36658149  0.54776145  1  -1.183868  -0.001503  -0.236802  -0.242008  -0.001894  3.592795  -0.003
N  N118  1  0.81864074  0.63341416  0.45223548  1  -1.183735  -0.001503  -0.236739  -0.242158  -0.001894  3.592845  -0.003
O  O119  1  0.65153219  0.20526395  0.68199826  1  -1.159152  9.1e-05  -0.324008  -0.53877  0.000128  2.246924  0.0
O  O120  1  0.52423975  0.97031616  0.31895266  1  -1.15593  8.1e-05  -0.323651  -0.538604  0.000119  2.248419  0.0
O  O121  1  0.34846417  0.79472870  0.31799516  1  -1.159523  9.1e-05  -0.324083  -0.538792  0.000128  2.246924  0.0
O  O122  1  0.47575901  0.02968235  0.68104523  1  -1.155986  8.1e-05  -0.323667  -0.538665  0.000119  2.248328  0.0
O  O123  1  0.67412499  0.05670943  0.56373447  1  -1.199423  6.6e-05  -0.318062  -0.578702  4.1e-05  2.405782  0.0
O  O124  1  0.49456483  0.11174293  0.43744485  1  -1.188853  7.2e-05  -0.318143  -0.578433  4.7e-05  2.406228  0.0
O  O125  1  0.32587337  0.94328162  0.43626279  1  -1.199997  6.6e-05  -0.318065  -0.578771  4.1e-05  2.406039  0.0
O  O126  1  0.50541722  0.88824589  0.56254330  1  -1.188951  7.2e-05  -0.318181  -0.578471  4.7e-05  2.406178  0.0
O  O127  1  0.31472921  0.49348827  0.53776426  1  -1.106004  0.019291  -0.27655  -0.441588  0.019079  2.106581  0.016
O  O128  1  0.95515157  0.77645518  0.46152832  1  -1.107339  0.019293  -0.276765  -0.44175  0.019077  2.106081  0.016
O  O129  1  0.68528944  0.50652894  0.46226934  1  -1.105924  0.019286  -0.276567  -0.441623  0.019074  2.106743  0.016
O  O130  1  0.04484327  0.22353113  0.53844541  1  -1.107649  0.019281  -0.276738  -0.441621  0.019066  2.106257  0.016
