# generated using pymatgen
data_ZnH20C28(NO5)2
_symmetry_space_group_name_H-M   'P 1'
_cell_length_a   8.05947226
_cell_length_b   12.11731329
_cell_length_c   13.47012672
_cell_angle_alpha   116.66656155
_cell_angle_beta   96.33887107
_cell_angle_gamma   89.87163019
_symmetry_Int_Tables_number   1
_chemical_formula_structural   ZnH20C28(NO5)2
_chemical_formula_sum   'Zn2 H40 C56 N4 O20'
_cell_volume   1166.71216271
_cell_formula_units_Z   2
loop_
 _symmetry_equiv_pos_site_id
 _symmetry_equiv_pos_as_xyz
  1  'x, y, z'
loop_
 _atom_site_type_symbol
 _atom_site_label
 _atom_site_symmetry_multiplicity
 _atom_site_fract_x
 _atom_site_fract_y
 _atom_site_fract_z
 _atom_site_occupancy
 _atom_site_hse06_10hf_bader_spin_density
 _atom_site_hse06_10hf_ddec_charge
 _atom_site_hse06_10hf_ddec_spin_density
 _atom_site_hse06_10hf_ddec_sum_bond_order
 _atom_site_hse06_10hf_magmom
 _atom_site_hse06_bader_spin_density
 _atom_site_hse06_ddec_charge
 _atom_site_hse06_ddec_spin_density
 _atom_site_hse06_ddec_sum_bond_order
 _atom_site_hse06_magmom
 _atom_site_pbe_bader_spin_density
 _atom_site_pbe_cm5_charge
 _atom_site_pbe_ddec_charge
 _atom_site_pbe_ddec_spin_density
 _atom_site_pbe_ddec_sum_bond_order
 _atom_site_pbe_magmom
Zn  Zn0  1  0.00010217  0.99998044  0.99998272  1  0  0.891057  0  2.475447  0  0  0.870871  0  2.446747  0  0  0.711998  0.889494  0  2.498282  0
Zn  Zn1  1  0.50007192  0.00001954  0.00002438  1  0  0.888055  0  2.478852  0  0  0.867763  0  2.450391  0  0  0.710611  0.887114  0  2.501256  0
H  H2  1  0.89495818  0.65988742  0.01218538  1  0  0.132399  0  1.021964  0  0  0.135166  0  1.021341  0  0  0.113247  0.130214  0  1.022803  0
H  H3  1  0.60473494  0.64819325  0.98768501  1  0  0.133104  0  1.020881  0  0  0.135956  0  1.02019  0  0  0.113531  0.130852  0  1.021768  0
H  H4  1  0.10504109  0.34010040  0.98780116  1  0  0.132288  0  1.02187  0  0  0.135055  0  1.021243  0  0  0.113228  0.130102  0  1.022702  0
H  H5  1  0.39525747  0.35182239  0.01231951  1  0  0.133051  0  1.02068  0  0  0.135893  0  1.020001  0  0  0.11351  0.130808  0  1.02156  0
H  H6  1  0.77618757  0.27108885  0.80759868  1  0  0.1333  0  1.04327  0  0  0.138084  0  1.040363  0  0  0.108012  0.130133  0  1.045108  0
H  H7  1  0.72325975  0.46320556  0.19234210  1  0  0.133737  0  1.043989  0  0  0.138757  0  1.040876  0  0  0.108149  0.130415  0  1.045962  0
H  H8  1  0.22379565  0.72890371  0.19239974  1  0  0.133445  0  1.042982  0  0  0.138238  0  1.040059  0  0  0.108034  0.13026  0  1.04487  0
H  H9  1  0.27665535  0.53673870  0.80761525  1  0  0.133915  0  1.044098  0  0  0.138909  0  1.041019  0  0  0.108292  0.130587  0  1.046078  0
H  H10  1  0.87459113  0.29050865  0.64543198  1  0  0.107378  0  1.016353  0  0  0.110664  0  1.013732  0  0  0.10395  0.104975  0  1.018365  0
H  H11  1  0.62529438  0.64493433  0.35459730  1  0  0.107553  0  1.015857  0  0  0.110861  0  1.013202  0  0  0.103735  0.105102  0  1.017942  0
H  H12  1  0.12531363  0.70946616  0.35453972  1  0  0.107401  0  1.01662  0  0  0.110687  0  1.013996  0  0  0.104022  0.104994  0  1.018637  0
H  H13  1  0.37464105  0.35501845  0.64538269  1  0  0.107593  0  1.01619  0  0  0.110903  0  1.01352  0  0  0.103756  0.105145  0  1.01828  0
H  H14  1  0.84611715  0.85770522  0.10366398  1  0  0.093895  0  1.049975  0  0  0.094752  0  1.048199  0  0  0.116913  0.091887  0  1.05243  0
H  H15  1  0.65491845  0.75396591  0.89596329  1  0  0.093674  0  1.050203  0  0  0.094525  0  1.048467  0  0  0.116469  0.091689  0  1.052626  0
H  H16  1  0.15396092  0.14232841  0.89630178  1  0  0.093949  0  1.049901  0  0  0.09481  0  1.048131  0  0  0.116878  0.091944  0  1.052366  0
H  H17  1  0.34520350  0.24602951  0.10404984  1  0  0.093669  0  1.049917  0  0  0.09454  0  1.048183  0  0  0.116458  0.091678  0  1.052376  0
H  H18  1  0.88519277  0.84227276  0.28293665  1  0  0.107787  0  1.035058  0  0  0.108822  0  1.037872  0  0  0.100671  0.106817  0  1.03341  0
H  H19  1  0.61596127  0.55952858  0.71696095  1  0  0.107169  0  1.035996  0  0  0.108263  0  1.038808  0  0  0.100407  0.106204  0  1.034303  0
H  H20  1  0.11478536  0.15776087  0.71702647  1  0  0.10762  0  1.035063  0  0  0.108651  0  1.037878  0  0  0.10067  0.106646  0  1.033416  0
H  H21  1  0.38398594  0.44047261  0.28306877  1  0  0.107043  0  1.036153  0  0  0.108145  0  1.03896  0  0  0.100409  0.106076  0  1.034457  0
H  H22  1  0.22511533  0.16497022  0.41594408  1  0  0.118181  0  1.003775  0  0  0.120823  0  1.003139  0  0  0.104928  0.116042  0  1.004465  0
H  H23  1  0.27322364  0.74906667  0.58408802  1  0  0.117895  0  1.004658  0  0  0.120548  0  1.004036  0  0  0.104871  0.115819  0  1.005272  0
H  H24  1  0.77491055  0.83504171  0.58405911  1  0  0.118365  0  1.0038  0  0  0.121011  0  1.003157  0  0  0.104975  0.116222  0  1.004495  0
H  H25  1  0.72675337  0.25101082  0.41601789  1  0  0.118061  0  1.004512  0  0  0.120774  0  1.003806  0  0  0.104841  0.115941  0  1.005181  0
H  H26  1  0.17849862  0.16116162  0.22792406  1  0  0.089653  0  1.029957  0  0  0.089325  0  1.030928  0  0  0.118264  0.088537  0  1.030736  0
H  H27  1  0.31938855  0.93287985  0.77193052  1  0  0.08897  0  1.031355  0  0  0.08863  0  1.032363  0  0  0.118087  0.087962  0  1.032029  0
H  H28  1  0.82160954  0.83884652  0.77207235  1  0  0.089633  0  1.030057  0  0  0.089318  0  1.031012  0  0  0.11814  0.0885  0  1.03084  0
H  H29  1  0.68073586  0.06719469  0.22816316  1  0  0.088579  0  1.031571  0  0  0.088252  0  1.032573  0  0  0.118027  0.087565  0  1.032236  0
H  H30  1  0.15243691  0.92083704  0.47068969  1  0  0.103538  0  0.982037  0  0  0.104519  0  0.981924  0  0  0.097201  0.102878  0  0.982225  0
H  H31  1  0.34713865  0.45090161  0.52930099  1  0  0.103871  0  0.981574  0  0  0.104897  0  0.981351  0  0  0.097029  0.10321  0  0.981779  0
H  H32  1  0.84750766  0.07916718  0.52927720  1  0  0.103633  0  0.982238  0  0  0.104608  0  0.982125  0  0  0.097217  0.102975  0  0.982422  0
H  H33  1  0.65275711  0.54913687  0.47077031  1  0  0.103976  0  0.981385  0  0  0.105013  0  0.981149  0  0  0.097134  0.103322  0  0.981581  0
H  H34  1  0.16082903  0.08364280  0.53773947  1  0  0.089905  0  1.01784  0  0  0.090608  0  1.018245  0  0  0.093406  0.089362  0  1.017669  0
H  H35  1  0.33942963  0.54663803  0.46208484  1  0  0.09009  0  1.018002  0  0  0.090764  0  1.018449  0  0  0.093655  0.089564  0  1.01782  0
H  H36  1  0.83914580  0.91635046  0.46223785  1  0  0.09008  0  1.017762  0  0  0.090775  0  1.018164  0  0  0.093415  0.08954  0  1.017597  0
H  H37  1  0.66046361  0.45338191  0.53797596  1  0  0.090029  0  1.017877  0  0  0.090696  0  1.018341  0  0  0.093589  0.089503  0  1.017696  0
H  H38  1  0.01825647  0.39920605  0.48117443  1  0  0.363648  0  0.978863  0  0  0.376713  0  0.965002  0  0  0.302153  0.35444  0  0.988625  0
H  H39  1  0.48219481  0.91800906  0.51887720  1  0  0.363491  0  0.978641  0  0  0.376578  0  0.964711  0  0  0.301888  0.354279  0  0.988404  0
H  H40  1  0.98170697  0.60078732  0.51881326  1  0  0.363455  0  0.97915  0  0  0.376527  0  0.965275  0  0  0.302061  0.354237  0  0.988926  0
H  H41  1  0.51780379  0.08194024  0.48112371  1  0  0.363583  0  0.978544  0  0  0.376666  0  0.964612  0  0  0.301881  0.354369  0  0.988312  0
C  C42  1  0.93691742  0.48602526  0.73712677  1  0  -0.122234  0  4.02747  0  0  -0.132011  0  4.049857  0  0  -0.026932  -0.115589  0  4.012198  0
C  C43  1  0.56294485  0.74909938  0.26283703  1  0  -0.122681  0  4.028615  0  0  -0.132476  0  4.051094  0  0  -0.026595  -0.115994  0  4.013251  0
C  C44  1  0.06299796  0.51395784  0.26284527  1  0  -0.122637  0  4.02852  0  0  -0.132407  0  4.05091  0  0  -0.027152  -0.116007  0  4.013226  0
C  C45  1  0.43702861  0.25088030  0.73716302  1  0  -0.122254  0  4.027977  0  0  -0.132049  0  4.05047  0  0  -0.02648  -0.115579  0  4.012589  0
C  C46  1  0.94564667  0.59040018  0.84286922  1  0  0.010243  0  3.918324  0  0  0.010428  0  3.934682  0  0  0.008355  0.009125  0  3.907299  0
C  C47  1  0.55426877  0.74795470  0.15709164  1  0  0.01039  0  3.919206  0  0  0.010484  0  3.935591  0  0  0.00748  0.009322  0  3.908153  0
C  C48  1  0.05430369  0.40958389  0.15710865  1  0  0.009933  0  3.918477  0  0  0.01007  0  3.934853  0  0  0.008278  0.008858  0  3.907353  0
C  C49  1  0.44573904  0.25204988  0.84291255  1  0  0.010296  0  3.919541  0  0  0.010363  0  3.935949  0  0  0.007417  0.00925  0  3.908399  0
C  C50  1  0.88506568  0.57930378  0.93092840  1  0  -0.234857  0  3.989889  0  0  -0.240066  0  4.007049  0  0  -0.096547  -0.231405  0  3.978747  0
C  C51  1  0.61460335  0.64874019  0.06896709  1  0  -0.235033  0  3.987346  0  0  -0.240171  0  4.004309  0  0  -0.096112  -0.231581  0  3.976319  0
C  C52  1  0.11489671  0.42069042  0.06904989  1  0  -0.234464  0  3.989279  0  0  -0.239647  0  4.00643  0  0  -0.096571  -0.231015  0  3.978105  0
C  C53  1  0.38538293  0.35125779  0.93102182  1  0  -0.234784  0  3.987382  0  0  -0.239935  0  4.004364  0  0  -0.096059  -0.231345  0  3.976329  0
C  C54  1  0.81569517  0.46660777  0.91594373  1  0  0.287671  0  4.013791  0  0  0.300977  0  4.027975  0  0  0.095391  0.278501  0  4.004274  0
C  C55  1  0.68379318  0.55075554  0.08399062  1  0  0.288191  0  4.011622  0  0  0.30152  0  4.0257  0  0  0.096357  0.278989  0  4.002194  0
C  C56  1  0.18425803  0.53338287  0.08404660  1  0  0.287659  0  4.01386  0  0  0.300949  0  4.028072  0  0  0.095375  0.278498  0  4.004339  0
C  C57  1  0.31618287  0.44922115  0.91598689  1  0  0.288142  0  4.012162  0  0  0.301486  0  4.026223  0  0  0.096179  0.27895  0  4.002726  0
C  C58  1  0.81986542  0.35991192  0.81484598  1  0  -0.199476  0  3.970597  0  0  -0.206184  0  3.989617  0  0  -0.098654  -0.195228  0  3.957941  0
C  C59  1  0.67959956  0.54495487  0.18509337  1  0  -0.199065  0  3.970459  0  0  -0.205716  0  3.989165  0  0  -0.098932  -0.194884  0  3.958065  0
C  C60  1  0.18008412  0.64007864  0.18513738  1  0  -0.199396  0  3.970184  0  0  -0.206116  0  3.989234  0  0  -0.09854  -0.195159  0  3.957533  0
C  C61  1  0.32031731  0.45501632  0.81488593  1  0  -0.199355  0  3.970461  0  0  -0.205998  0  3.989173  0  0  -0.09887  -0.195174  0  3.958081  0
C  C62  1  0.87820939  0.37140764  0.72650122  1  0  -0.065585  0  3.992659  0  0  -0.063091  0  4.012206  0  0  -0.081752  -0.067053  0  3.979457  0
C  C63  1  0.62152954  0.64490549  0.27349919  1  0  -0.064905  0  3.992262  0  0  -0.062389  0  4.011742  0  0  -0.08134  -0.066414  0  3.979173  0
C  C64  1  0.12170857  0.62857833  0.27348179  1  0  -0.06549  0  3.993082  0  0  -0.063  0  4.012643  0  0  -0.081712  -0.066955  0  3.979884  0
C  C65  1  0.37839976  0.35504524  0.72646100  1  0  -0.06491  0  3.991799  0  0  -0.062393  0  4.011282  0  0  -0.08159  -0.066424  0  3.978715  0
C  C66  1  0.02745617  0.71695016  0.87419312  1  0  0.592806  0  4.19365  0  0  0.629771  0  4.189177  0  0  0.220409  0.568824  0  4.197323  0
C  C67  1  0.47293475  0.84347121  0.12560525  1  0  0.592036  0  4.192354  0  0  0.629004  0  4.187451  0  0  0.221411  0.568101  0  4.196448  0
C  C68  1  0.97253785  0.28299198  0.12573930  1  0  0.592711  0  4.193228  0  0  0.629693  0  4.188747  0  0  0.220801  0.568734  0  4.196726  0
C  C69  1  0.52714106  0.15654173  0.87440782  1  0  0.591736  0  4.193144  0  0  0.628724  0  4.188278  0  0  0.221291  0.56781  0  4.197036  0
C  C70  1  0.97529222  0.49513424  0.63623699  1  0  0.605122  0  4.107618  0  0  0.640045  0  4.096815  0  0  0.235392  0.581306  0  4.114487  0
C  C71  1  0.52455345  0.85902832  0.36364655  1  0  0.603692  0  4.110828  0  0  0.638536  0  4.100171  0  0  0.234477  0.579939  0  4.117578  0
C  C72  1  0.02462871  0.50485526  0.36373130  1  0  0.604948  0  4.107929  0  0  0.639864  0  4.097146  0  0  0.235134  0.581145  0  4.114779  0
C  C73  1  0.47544449  0.14092832  0.63635278  1  0  0.603692  0  4.110783  0  0  0.638535  0  4.100126  0  0  0.234575  0.57994  0  4.117525  0
C  C74  1  0.93201691  0.92133934  0.17448873  1  0  0.106801  0  3.942113  0  0  0.115837  0  3.962154  0  0  0.051595  0.101412  0  3.93081  0
C  C75  1  0.56835122  0.74682975  0.82525848  1  0  0.105967  0  3.94295  0  0  0.114923  0  3.963079  0  0  0.051475  0.10065  0  3.931506  0
C  C76  1  0.06803694  0.07867123  0.82547285  1  0  0.106271  0  3.942304  0  0  0.115303  0  3.962353  0  0  0.051417  0.100909  0  3.931003  0
C  C77  1  0.43174773  0.25319635  0.17478076  1  0  0.106146  0  3.942633  0  0  0.115086  0  3.962744  0  0  0.051381  0.100805  0  3.931237  0
C  C78  1  0.95300745  0.91540960  0.27562785  1  0  -0.187692  0  3.946532  0  0  -0.196248  0  3.96877  0  0  -0.088318  -0.181998  0  3.931122  0
C  C79  1  0.54753806  0.63990006  0.72421221  1  0  -0.187168  0  3.944138  0  0  -0.195707  0  3.966264  0  0  -0.088197  -0.181429  0  3.928684  0
C  C80  1  0.04698455  0.08460830  0.72432927  1  0  -0.187526  0  3.945887  0  0  -0.196073  0  3.968122  0  0  -0.088268  -0.181844  0  3.930474  0
C  C81  1  0.45247413  0.36012062  0.27583506  1  0  -0.187024  0  3.944975  0  0  -0.195554  0  3.967063  0  0  -0.088099  -0.181287  0  3.929529  0
C  C82  1  0.05859461  0.00375842  0.36605008  1  0  0.166703  0  3.960212  0  0  0.172308  0  3.981243  0  0  0.01008  0.163439  0  3.944907  0
C  C83  1  0.44124444  0.63788594  0.63387913  1  0  0.167677  0  3.959231  0  0  0.173309  0  3.98011  0  0  0.009989  0.164417  0  3.943962  0
C  C84  1  0.94138127  0.99624866  0.63392834  1  0  0.166784  0  3.959657  0  0  0.172384  0  3.980674  0  0  0.010073  0.163525  0  3.944351  0
C  C85  1  0.55872427  0.36215800  0.36618912  1  0  0.167749  0  3.959462  0  0  0.173385  0  3.980348  0  0  0.009874  0.164488  0  3.94419  0
C  C86  1  0.14008329  0.09438727  0.34897993  1  0  -0.176981  0  3.926992  0  0  -0.183912  0  3.945925  0  0  -0.082902  -0.171986  0  3.913571  0
C  C87  1  0.35871517  0.74539361  0.65101441  1  0  -0.178218  0  3.92951  0  0  -0.185104  0  3.948268  0  0  -0.083959  -0.17318  0  3.916022  0
C  C88  1  0.85993684  0.90561159  0.65100580  1  0  -0.177256  0  3.926911  0  0  -0.184188  0  3.945839  0  0  -0.083015  -0.172251  0  3.913487  0
C  C89  1  0.64130796  0.25466441  0.34908186  1  0  -0.178502  0  3.92871  0  0  -0.18542  0  3.947429  0  0  -0.083919  -0.173437  0  3.915253  0
C  C90  1  0.11509878  0.09348982  0.24484572  1  0  0.130827  0  3.922397  0  0  0.139488  0  3.943846  0  0  0.060303  0.125157  0  3.910343  0
C  C91  1  0.38346861  0.84841567  0.75508568  1  0  0.131286  0  3.92576  0  0  0.140078  0  3.946996  0  0  0.06056  0.125565  0  3.913642  0
C  C92  1  0.88500661  0.90653026  0.75514705  1  0  0.13107  0  3.922836  0  0  0.139731  0  3.944287  0  0  0.06066  0.125391  0  3.910782  0
C  C93  1  0.61661558  0.15165614  0.24500925  1  0  0.13199  0  3.925222  0  0  0.14077  0  3.946465  0  0  0.060854  0.126279  0  3.913062  0
C  C94  1  0.08286132  0.00188753  0.47747389  1  0  -0.189848  0  3.944026  0  0  -0.191174  0  3.955694  0  0  -0.155192  -0.188903  0  3.935804  0
C  C95  1  0.41709855  0.52478488  0.52246359  1  0  -0.190115  0  3.944633  0  0  -0.19139  0  3.956184  0  0  -0.155162  -0.18918  0  3.936454  0
C  C96  1  0.91709595  0.99812042  0.52249910  1  0  -0.190225  0  3.944071  0  0  -0.191528  0  3.955724  0  0  -0.155189  -0.189279  0  3.935838  0
C  C97  1  0.58280234  0.47523592  0.47759067  1  0  -0.190905  0  3.944913  0  0  -0.192187  0  3.95645  0  0  -0.155515  -0.189974  0  3.936756  0
N  N98  1  0.01162886  0.00899778  0.15993620  1  0  -0.205481  0  3.546039  0  0  -0.240894  0  3.58255  0  0  -0.30753  -0.190161  0  3.529772  0
N  N99  1  0.48772586  0.84886250  0.83989426  1  0  -0.205632  0  3.547579  0  0  -0.240872  0  3.583909  0  0  -0.306648  -0.190145  0  3.531154  0
N  N100  1  0.98848271  0.99099989  0.84002659  1  0  -0.205331  0  3.547127  0  0  -0.240708  0  3.583625  0  0  -0.307466  -0.190042  0  3.530885  0
N  N101  1  0.51242218  0.15117209  0.16016594  1  0  -0.206213  0  3.547196  0  0  -0.241383  0  3.583429  0  0  -0.306844  -0.190729  0  3.530796  0
O  O102  1  0.93589425  0.80609994  0.92574266  1  0  -0.547168  0  2.338142  0  0  -0.58258  0  2.335049  0  0  -0.291521  -0.523758  0  2.340515  0
O  O103  1  0.56524852  0.88114856  0.07463220  1  0  -0.543245  0  2.339793  0  0  -0.578456  0  2.337013  0  0  -0.290524  -0.520506  0  2.342496  0
O  O104  1  0.06416803  0.19389134  0.07422449  1  0  -0.546847  0  2.338155  0  0  -0.582335  0  2.335207  0  0  -0.291524  -0.523569  0  2.340734  0
O  O105  1  0.43487950  0.11886653  0.92541217  1  0  -0.543189  0  2.340507  0  0  -0.578406  0  2.337657  0  0  -0.290345  -0.520464  0  2.343235  0
O  O106  1  0.74985330  0.03192602  0.99897957  1  0  -0.432986  0  1.300561  0  0  -0.292917  0  1.228801  0  0  -0.304583  -0.477732  0  1.331283  0
O  O107  1  0.25031033  0.96811884  0.00109473  1  0  -0.433386  0  1.301231  0  0  -0.293361  0  1.229426  0  0  -0.304747  -0.47823  0  1.332078  0
O  O108  1  0.17392579  0.72090762  0.85329308  1  0  -0.428474  0  2.090052  0  0  -0.466148  0  2.093688  0  0  -0.242409  -0.409321  0  2.089818  0
O  O109  1  0.32597319  0.86820993  0.14555538  1  0  -0.4216  0  2.087059  0  0  -0.457865  0  2.089853  0  0  -0.23905  -0.403416  0  2.087431  0
O  O110  1  0.82601397  0.27898124  0.14656238  1  0  -0.427849  0  2.089173  0  0  -0.465575  0  2.092819  0  0  -0.242351  -0.408715  0  2.08887  0
O  O111  1  0.67410361  0.13181199  0.85443609  1  0  -0.421676  0  2.087299  0  0  -0.458094  0  2.090144  0  0  -0.239159  -0.403454  0  2.087562  0
O  O112  1  0.96710855  0.59412893  0.62879149  1  0  -0.509054  0  2.227296  0  0  -0.531392  0  2.219441  0  0  -0.278774  -0.493717  0  2.232283  0
O  O113  1  0.53205537  0.96532345  0.37086660  1  0  -0.508537  0  2.228172  0  0  -0.530818  0  2.220207  0  0  -0.278179  -0.493222  0  2.233204  0
O  O114  1  0.03276332  0.40585303  0.37115844  1  0  -0.508951  0  2.227245  0  0  -0.531275  0  2.219373  0  0  -0.278542  -0.49361  0  2.23221  0
O  O115  1  0.46796593  0.03464813  0.62915293  1  0  -0.508668  0  2.228427  0  0  -0.53095  0  2.220461  0  0  -0.278307  -0.493357  0  2.23346  0
O  O116  1  0.01055765  0.38879692  0.55286697  1  0  -0.507502  0  2.312245  0  0  -0.529463  0  2.297567  0  0  -0.331743  -0.49227  0  2.322106  0
O  O117  1  0.48991081  0.83606595  0.44720155  1  0  -0.506236  0  2.311028  0  0  -0.528133  0  2.296326  0  0  -0.331114  -0.491063  0  2.320924  0
O  O118  1  0.98942867  0.61120200  0.44712380  1  0  -0.507234  0  2.312034  0  0  -0.529192  0  2.297358  0  0  -0.331649  -0.492  0  2.321901  0
O  O119  1  0.51005568  0.16388696  0.55279184  1  0  -0.506435  0  2.311241  0  0  -0.528338  0  2.296541  0  0  -0.331113  -0.491254  0  2.321136  0
O  O120  1  0.74963349  0.45260142  0.99995385  1  0  -0.197885  0  2.593541  0  0  -0.219453  0  2.600123  0  0  -0.128299  -0.182627  0  2.588617  0
O  O121  1  0.25033260  0.54737621  0.00002555  1  0  -0.198094  0  2.593368  0  0  -0.219671  0  2.599948  0  0  -0.128305  -0.182817  0  2.588421  0
