# generated using pymatgen
data_ZnH12C18(N3O2)2
_symmetry_space_group_name_H-M   'P 1'
_cell_length_a   7.47878307
_cell_length_b   7.69180048
_cell_length_c   8.66150128
_cell_angle_alpha   91.81091211
_cell_angle_beta   90.01087990
_cell_angle_gamma   119.10619350
_symmetry_Int_Tables_number   1
_chemical_formula_structural   ZnH12C18(N3O2)2
_chemical_formula_sum   'Zn1 H12 C18 N6 O4'
_cell_volume   435.04912530
_cell_formula_units_Z   1
loop_
 _symmetry_equiv_pos_site_id
 _symmetry_equiv_pos_as_xyz
  1  'x, y, z'
loop_
 _atom_site_type_symbol
 _atom_site_label
 _atom_site_symmetry_multiplicity
 _atom_site_fract_x
 _atom_site_fract_y
 _atom_site_fract_z
 _atom_site_occupancy
 _atom_site_hle17_bader_spin_density
 _atom_site_hle17_ddec_charge
 _atom_site_hle17_ddec_spin_density
 _atom_site_hle17_ddec_sum_bond_order
 _atom_site_hle17_magmom
 _atom_site_hse06_10hf_bader_spin_density
 _atom_site_hse06_10hf_ddec_charge
 _atom_site_hse06_10hf_ddec_spin_density
 _atom_site_hse06_10hf_ddec_sum_bond_order
 _atom_site_hse06_10hf_magmom
 _atom_site_hse06_bader_spin_density
 _atom_site_hse06_ddec_charge
 _atom_site_hse06_ddec_spin_density
 _atom_site_hse06_ddec_sum_bond_order
 _atom_site_hse06_magmom
 _atom_site_pbe_bader_spin_density
 _atom_site_pbe_cm5_charge
 _atom_site_pbe_ddec_charge
 _atom_site_pbe_ddec_spin_density
 _atom_site_pbe_ddec_sum_bond_order
 _atom_site_pbe_magmom
Zn  Zn0  1  0.42613027  0.00027306  0.49988320  1  0  1.007329  0  1.853885  0  0  0.811404  0  2.337665  0  0  0.858819  0  2.281886  0  0  0.701579  0.778401  0  2.375852  0
H  H1  1  0.60045988  0.28678881  0.93578599  1  0  0.092422  0  0.964087  0  0  0.099984  0  1.03096  0  0  0.10301  0  1.029289  0  0  0.100849  0.097786  0  1.03222  0
H  H2  1  0.31275535  0.71277377  0.06462860  1  0  0.091605  0  0.963835  0  0  0.099344  0  1.030784  0  0  0.102164  0  1.029336  0  0  0.100977  0.097287  0  1.031869  0
H  H3  1  0.84410685  0.33994602  0.72116378  1  0  0.114947  0  0.935225  0  0  0.124862  0  0.996321  0  0  0.128312  0  0.994111  0  0  0.111862  0.122368  0  0.998028  0
H  H4  1  0.50379723  0.65987957  0.27900716  1  0  0.11467  0  0.936035  0  0  0.124268  0  0.997577  0  0  0.127741  0  0.995341  0  0  0.111572  0.121793  0  0.999255  0
H  H5  1  0.23762937  0.25516313  0.04086228  1  0  0.120758  0  0.962327  0  0  0.129171  0  1.026319  0  0  0.132917  0  1.023998  0  0  0.107448  0.126439  0  1.028115  0
H  H6  1  0.98151807  0.74492109  0.95887909  1  0  0.120911  0  0.962855  0  0  0.128946  0  1.027321  0  0  0.132624  0  1.025076  0  0  0.107702  0.126274  0  1.029057  0
H  H7  1  0.98884643  0.19649759  0.25014307  1  0  0.107112  0  0.938753  0  0  0.115149  0  1.000444  0  0  0.118696  0  0.997965  0  0  0.105405  0.112574  0  1.002288  0
H  H8  1  0.79108309  0.80340145  0.74978162  1  0  0.107596  0  0.938316  0  0  0.115906  0  0.999614  0  0  0.119471  0  0.997102  0  0  0.105567  0.113327  0  1.001459  0
H  H9  1  0.17173836  0.50715797  0.58586146  1  0  0.11547  0  0.958413  0  0  0.117387  0  1.031879  0  0  0.120752  0  1.028031  0  0  0.142286  0.114882  0  1.034708  0
H  H10  1  0.66491078  0.49249537  0.41384220  1  0  0.116162  0  0.957924  0  0  0.117608  0  1.031539  0  0  0.120998  0  1.027673  0  0  0.142379  0.115105  0  1.034349  0
H  H11  1  0.24542203  0.06214994  0.80987438  1  0  0.12753  0  0.97193  0  0  0.135526  0  1.034317  0  0  0.138972  0  1.030313  0  0  0.146716  0.13297  0  1.037225  0
H  H12  1  0.18280504  0.93868506  0.18988910  1  0  0.127346  0  0.971518  0  0  0.135559  0  1.033784  0  0  0.138958  0  1.029846  0  0  0.146864  0.133012  0  1.036678  0
C  C13  1  0.61352947  0.17496754  0.22241307  1  0  0.624575  0  3.955945  0  0  0.573687  0  4.256045  0  0  0.60732  0  4.250017  0  0  0.196241  0.550958  0  4.259286  0
C  C14  1  0.43718504  0.82474938  0.77801021  1  0  0.625144  0  3.955122  0  0  0.574208  0  4.25529  0  0  0.607856  0  4.24921  0  0  0.196607  0.551481  0  4.258561  0
C  C15  1  0.77697890  0.23302902  0.10382555  1  0  -0.075128  0  3.76043  0  0  -0.053553  0  3.994855  0  0  -0.062796  0  4.020172  0  0  -0.022155  -0.04763  0  3.977871  0
C  C16  1  0.54269386  0.76656508  0.89632457  1  0  -0.074653  0  3.76169  0  0  -0.052659  0  3.995664  0  0  -0.061897  0  4.020942  0  0  -0.021273  -0.046756  0  3.978708  0
C  C17  1  0.74078680  0.28082917  0.95650010  1  0  -0.052589  0  3.748054  0  0  -0.0751  0  3.995983  0  0  -0.075024  0  4.01781  0  0  -0.08027  -0.074926  0  3.981184  0
C  C18  1  0.45897944  0.71865135  0.04370272  1  0  -0.051495  0  3.746933  0  0  -0.074249  0  3.995104  0  0  -0.074001  0  4.016946  0  0  -0.081147  -0.074176  0  3.980297  0
C  C19  1  0.87588965  0.31044828  0.83733103  1  0  -0.125851  0  3.707367  0  0  -0.147657  0  3.961919  0  0  -0.151597  0  3.981215  0  0  -0.082001  -0.145108  0  3.948908  0
C  C20  1  0.56478990  0.68925371  0.16277325  1  0  -0.125748  0  3.706326  0  0  -0.147515  0  3.961567  0  0  -0.151447  0  3.980728  0  0  -0.081194  -0.145001  0  3.948641  0
C  C21  1  0.04930810  0.29270754  0.86830534  1  0  0.189274  0  3.764779  0  0  0.178767  0  4.016449  0  0  0.184987  0  4.038895  0  0  0.099924  0.174732  0  4.001187  0
C  C22  1  0.75597249  0.70719744  0.13161311  1  0  0.188604  0  3.764543  0  0  0.178064  0  4.016054  0  0  0.184293  0  4.038494  0  0  0.098944  0.174024  0  4.000808  0
C  C23  1  0.09628085  0.25887499  0.01683577  1  0  -0.159634  0  3.736656  0  0  -0.178151  0  3.990009  0  0  -0.18393  0  4.011591  0  0  -0.08922  -0.174284  0  3.975392  0
C  C24  1  0.83639922  0.74095863  0.98299027  1  0  -0.159631  0  3.737076  0  0  -0.177964  0  3.990858  0  0  -0.183723  0  4.012448  0  0  -0.089706  -0.174139  0  3.976217  0
C  C25  1  0.95826816  0.22783151  0.13432131  1  0  -0.042794  0  3.717067  0  0  -0.066342  0  3.964754  0  0  -0.06509  0  3.984912  0  0  -0.080418  -0.066934  0  3.950986  0
C  C26  1  0.72919866  0.77186475  0.86559622  1  0  -0.043479  0  3.717381  0  0  -0.067194  0  3.964664  0  0  -0.065966  0  3.984861  0  0  -0.080642  -0.067766  0  3.950886  0
C  C27  1  0.22226110  0.39980457  0.61010837  1  0  0.166146  0  3.601682  0  0  0.110222  0  3.874933  0  0  0.121717  0  3.885527  0  0  0.16289  0.102743  0  3.867732  0
C  C28  1  0.82267696  0.60023311  0.38958687  1  0  0.165438  0  3.602925  0  0  0.109944  0  3.876065  0  0  0.1214  0  3.886727  0  0  0.163163  0.102483  0  3.868826  0
C  C29  1  0.26074259  0.17507252  0.73036822  1  0  0.168837  0  3.613695  0  0  0.105699  0  3.871385  0  0  0.1202  0  3.881904  0  0  0.165752  0.09631  0  3.864083  0
C  C30  1  0.08544768  0.82573161  0.26944518  1  0  0.170688  0  3.612392  0  0  0.106954  0  3.870546  0  0  0.121514  0  3.881055  0  0  0.166489  0.097548  0  3.863242  0
N  N31  1  0.35433712  0.20479853  0.59649161  1  0  -0.28444  0  3.23152  0  0  -0.210407  0  3.540325  0  0  -0.227863  0  3.551289  0  0  -0.245597  -0.198692  0  3.532792  0
N  N32  1  0.14970094  0.79603485  0.40320445  1  0  -0.284433  0  3.231222  0  0  -0.210304  0  3.540179  0  0  -0.227767  0  3.551121  0  0  -0.24516  -0.198581  0  3.532637  0
N  N33  1  0.33187720  0.34845957  0.51973990  1  0  -0.21707  0  2.90377  0  0  -0.199691  0  3.183074  0  0  -0.206855  0  3.196271  0  0  -0.219627  -0.194886  0  3.17413  0
N  N34  1  0.98384768  0.65186308  0.47986670  1  0  -0.217242  0  2.903753  0  0  -0.199895  0  3.182923  0  0  -0.207048  0  3.196118  0  0  -0.220645  -0.195096  0  3.173985  0
N  N35  1  0.17545188  0.29553072  0.74409767  1  0  -0.107505  0  3.559065  0  0  -0.017697  0  3.774147  0  0  -0.034301  0  3.797198  0  0  -0.208876  -0.006811  0  3.758355  0
N  N36  1  0.87970288  0.70476853  0.25572034  1  0  -0.107986  0  3.559345  0  0  -0.017722  0  3.773901  0  0  -0.03434  0  3.796967  0  0  -0.20884  -0.006825  0  3.758094  0
O  O37  1  0.64680122  0.10955081  0.34979105  1  0  -0.648283  0  2.042702  0  0  -0.573294  0  2.317102  0  0  -0.601865  0  2.301329  0  0  -0.338917  -0.553336  0  2.327221  0
O  O38  1  0.53585299  0.89038222  0.65068468  1  0  -0.649367  0  2.04443  0  0  -0.574361  0  2.319283  0  0  -0.602975  0  2.303494  0  0  -0.339453  -0.554349  0  2.329344  0
O  O39  1  0.45613277  0.18749745  0.19288846  1  0  -0.617951  0  1.947839  0  0  -0.574489  0  2.182344  0  0  -0.59723  0  2.173858  0  0  -0.322993  -0.558593  0  2.187626  0
O  O40  1  0.26734019  0.81220109  0.80785954  1  0  -0.617286  0  1.945674  0  0  -0.574411  0  2.180974  0  0  -0.597007  0  2.172222  0  0  -0.32308  -0.558609  0  2.186421  0
