# generated using pymatgen
data_CdH16C21(NO3)2
_symmetry_space_group_name_H-M   'P 1'
_cell_length_a   13.93696509
_cell_length_b   16.73903357
_cell_length_c   21.06618327
_cell_angle_alpha   90.00000895
_cell_angle_beta   90.00001157
_cell_angle_gamma   90.00006717
_symmetry_Int_Tables_number   1
_chemical_formula_structural   CdH16C21(NO3)2
_chemical_formula_sum   'Cd8 H128 C168 N16 O48'
_cell_volume   4914.55784040
_cell_formula_units_Z   8
loop_
 _symmetry_equiv_pos_site_id
 _symmetry_equiv_pos_as_xyz
  1  'x, y, z'
loop_
 _atom_site_type_symbol
 _atom_site_label
 _atom_site_symmetry_multiplicity
 _atom_site_fract_x
 _atom_site_fract_y
 _atom_site_fract_z
 _atom_site_occupancy
 _atom_site_pbe_bader_charge
 _atom_site_pbe_bader_spin_density
 _atom_site_pbe_cm5_charge
 _atom_site_pbe_ddec_charge
 _atom_site_pbe_ddec_spin_density
 _atom_site_pbe_ddec_sum_bond_order
 _atom_site_pbe_magmom
Cd  Cd0  1  0.23364776  0.89826771  0.84961102  1  1.25837  0  0.768916  0.848535  0  2.189785  0
Cd  Cd1  1  0.76635312  0.60173168  0.34961112  1  1.258332  0  0.768913  0.848535  0  2.189829  0
Cd  Cd2  1  0.26635385  0.39826866  0.15038941  1  1.258314  0  0.768904  0.848519  0  2.189798  0
Cd  Cd3  1  0.73364914  0.10173210  0.65038887  1  1.258378  0  0.768908  0.848534  0  2.189759  0
Cd  Cd4  1  0.76635202  0.10173207  0.15038895  1  1.258389  0  0.7689  0.848532  0  2.189816  0
Cd  Cd5  1  0.23364809  0.39826750  0.65038838  1  1.258374  0  0.768913  0.848562  0  2.189767  0
Cd  Cd6  1  0.73364737  0.60173171  0.84961151  1  1.25835  0  0.768893  0.848484  0  2.189833  0
Cd  Cd7  1  0.26635208  0.89826827  0.34961205  1  1.25835  0  0.768919  0.848525  0  2.189787  0
H  H8  1  0.24197371  0.90324403  0.11675639  1  0.071431  0  0.109641  0.116099  0  1.014545  0
H  H9  1  0.75802710  0.59675471  0.61675680  1  0.07144  0  0.109644  0.116111  0  1.014534  0
H  H10  1  0.25802718  0.40324333  0.88324262  1  0.071449  0  0.109646  0.116094  0  1.014562  0
H  H11  1  0.74197372  0.09675628  0.38324318  1  0.07143  0  0.109644  0.116115  0  1.014597  0
H  H12  1  0.75802678  0.09675455  0.88324311  1  0.071415  0  0.109637  0.116073  0  1.01459  0
H  H13  1  0.24197268  0.40324506  0.38324317  1  0.071511  0  0.109637  0.116083  0  1.014574  0
H  H14  1  0.74197331  0.59675645  0.11675640  1  0.071442  0  0.109641  0.1161  0  1.014542  0
H  H15  1  0.25802606  0.90324469  0.61675584  1  0.071459  0  0.109639  0.116095  0  1.014568  0
H  H16  1  0.25535308  0.67027600  0.20214631  1  0.084881  0  0.10557  0.105785  0  1.045039  0
H  H17  1  0.74464631  0.82972217  0.70214628  1  0.084893  0  0.105558  0.105761  0  1.045083  0
H  H18  1  0.24464533  0.17027765  0.79785220  1  0.084862  0  0.105606  0.105844  0  1.045129  0
H  H19  1  0.75535339  0.32972254  0.29785232  1  0.084938  0  0.105557  0.105762  0  1.045043  0
H  H20  1  0.74464597  0.32972378  0.79785414  1  0.0849  0  0.105571  0.105802  0  1.045028  0
H  H21  1  0.25535346  0.17027641  0.29785370  1  0.084891  0  0.105569  0.105798  0  1.045036  0
H  H22  1  0.75535445  0.82972332  0.20214683  1  0.084878  0  0.105562  0.105747  0  1.045084  0
H  H23  1  0.24464567  0.67027664  0.70214623  1  0.084886  0  0.105569  0.105769  0  1.045064  0
H  H24  1  0.23019997  0.69346677  0.99934008  1  0.088517  0  0.108239  0.1093  0  1.043918  0
H  H25  1  0.76980024  0.80653325  0.49933972  1  0.088445  0  0.108211  0.109241  0  1.044006  0
H  H26  1  0.26979919  0.19346769  0.00066033  1  0.088483  0  0.108247  0.109297  0  1.04402  0
H  H27  1  0.73020016  0.30653363  0.50065839  1  0.08847  0  0.10824  0.109263  0  1.044063  0
H  H28  1  0.76979909  0.30653241  0.00065990  1  0.088465  0  0.108249  0.109287  0  1.044019  0
H  H29  1  0.23019954  0.19346713  0.50065883  1  0.088476  0  0.108244  0.109284  0  1.043972  0
H  H30  1  0.73020130  0.80653268  0.99934012  1  0.088488  0  0.108242  0.109291  0  1.043995  0
H  H31  1  0.26979890  0.69346614  0.49934063  1  0.088507  0  0.108239  0.109281  0  1.043947  0
H  H32  1  0.39441884  0.99988557  0.77776550  1  0.091729  0  0.117192  0.090691  0  0.992346  0
H  H33  1  0.60558202  0.50011402  0.27776515  1  0.091682  0  0.117187  0.090685  0  0.99234  0
H  H34  1  0.10558291  0.49988676  0.22223488  1  0.091683  0  0.117198  0.09075  0  0.992327  0
H  H35  1  0.89441794  0.00011521  0.72223293  1  0.091714  0  0.117187  0.090668  0  0.992417  0
H  H36  1  0.60558166  0.00011502  0.22223441  1  0.091691  0  0.117198  0.090683  0  0.99239  0
H  H37  1  0.39441919  0.49988575  0.72223340  1  0.091706  0  0.11719  0.090663  0  0.992413  0
H  H38  1  0.89441686  0.50011421  0.77776651  1  0.091683  0  0.117183  0.090683  0  0.992397  0
H  H39  1  0.10558329  0.99988478  0.27776651  1  0.091684  0  0.117207  0.090737  0  0.992383  0
H  H40  1  0.57320598  0.00719492  0.76534038  1  0.112971  0  0.108214  0.124807  0  1.013603  0
H  H41  1  0.42679489  0.49280706  0.26534048  1  0.113004  0  0.108168  0.124741  0  1.013688  0
H  H42  1  0.92679543  0.50719343  0.23465912  1  0.113028  0  0.108183  0.124747  0  1.013696  0
H  H43  1  0.07320326  0.99280593  0.73466044  1  0.112985  0  0.10818  0.124744  0  1.013643  0
H  H44  1  0.42679523  0.99280725  0.23466054  1  0.112969  0  0.108188  0.124769  0  1.013631  0
H  H45  1  0.57320489  0.50719451  0.73465949  1  0.112968  0  0.108192  0.124769  0  1.013626  0
H  H46  1  0.07320292  0.49280514  0.76533943  1  0.112994  0  0.108234  0.124828  0  1.013559  0
H  H47  1  0.92679723  0.00719504  0.26534049  1  0.112987  0  0.108182  0.124735  0  1.013677  0
H  H48  1  0.59470552  0.82292662  0.90819973  1  0.092228  0  0.110893  0.121923  0  1.005151  0
H  H49  1  0.40529538  0.67707397  0.40819836  1  0.092243  0  0.110897  0.121913  0  1.005151  0
H  H50  1  0.90529633  0.32292590  0.09180171  1  0.092244  0  0.1109  0.121931  0  1.00515  0
H  H51  1  0.09470448  0.17707245  0.59180157  1  0.092262  0  0.110897  0.12194  0  1.005167  0
H  H52  1  0.40529569  0.17707315  0.09180120  1  0.092258  0  0.110905  0.121947  0  1.005131  0
H  H53  1  0.59470512  0.32292580  0.59180114  1  0.092219  0  0.110884  0.121929  0  1.005141  0
H  H54  1  0.09470416  0.67707327  0.90819921  1  0.092258  0  0.11091  0.121953  0  1.005136  0
H  H55  1  0.90529530  0.82292672  0.40819935  1  0.092244  0  0.110898  0.121918  0  1.005167  0
H  H56  1  0.41657420  0.82498520  0.91581287  1  0.113625  0  0.114965  0.088618  0  1.005148  0
H  H57  1  0.58342455  0.67501659  0.41581200  1  0.113609  0  0.11493  0.088568  0  1.005232  0
H  H58  1  0.08342587  0.32498357  0.08418756  1  0.113612  0  0.114944  0.088576  0  1.005217  0
H  H59  1  0.91657638  0.17501419  0.58418800  1  0.113711  0  0.114962  0.08863  0  1.005179  0
H  H60  1  0.58342414  0.17501577  0.08418806  1  0.113613  0  0.114946  0.088585  0  1.005233  0
H  H61  1  0.41657595  0.32498437  0.58418750  1  0.113631  0  0.114944  0.088585  0  1.005196  0
H  H62  1  0.91657535  0.67501501  0.91581194  1  0.113643  0  0.114945  0.088607  0  1.005202  0
H  H63  1  0.08342412  0.82498379  0.41581197  1  0.113626  0  0.114928  0.088569  0  1.005222  0
H  H64  1  0.72337989  0.87917365  0.78490688  1  0.085272  0  0.099805  0.109689  0  1.006793  0
H  H65  1  0.27662168  0.62082334  0.28490786  1  0.085245  0  0.099756  0.109592  0  1.006959  0
H  H66  1  0.77662132  0.37917402  0.21509314  1  0.085264  0  0.099796  0.109656  0  1.00687  0
H  H67  1  0.22338025  0.12082615  0.71509254  1  0.085243  0  0.099844  0.109753  0  1.006848  0
H  H68  1  0.27662132  0.12082493  0.21509262  1  0.085265  0  0.099795  0.109715  0  1.006914  0
H  H69  1  0.72337953  0.37917405  0.71509306  1  0.085255  0  0.099806  0.109693  0  1.006847  0
H  H70  1  0.22337918  0.62082575  0.78490730  1  0.085262  0  0.099807  0.109717  0  1.00688  0
H  H71  1  0.77662168  0.87917482  0.28490791  1  0.085275  0  0.09978  0.109661  0  1.006949  0
H  H72  1  0.72878000  0.97754791  0.81420692  1  0.08246  0  0.098096  0.117694  0  1.018459  0
H  H73  1  0.27121944  0.52245147  0.31420789  1  0.082472  0  0.098065  0.117579  0  1.018443  0
H  H74  1  0.77122064  0.47754708  0.18579264  1  0.08246  0  0.098079  0.117623  0  1.018449  0
H  H75  1  0.22878020  0.02245130  0.68579249  1  0.082461  0  0.098085  0.117658  0  1.018446  0
H  H76  1  0.27121978  0.02245127  0.18579257  1  0.082455  0  0.098108  0.117697  0  1.018433  0
H  H77  1  0.72878178  0.47754830  0.68579255  1  0.082439  0  0.098112  0.117715  0  1.018413  0
H  H78  1  0.22877986  0.52245150  0.81420686  1  0.082459  0  0.098097  0.117681  0  1.018451  0
H  H79  1  0.77121886  0.97754908  0.31420701  1  0.082455  0  0.098107  0.117707  0  1.018406  0
H  H80  1  0.74637411  0.82108310  0.89102244  1  0.072558  0  0.098865  0.109467  0  1.003271  0
H  H81  1  0.25362462  0.67891570  0.39102201  1  0.072574  0  0.098868  0.109473  0  1.003284  0
H  H82  1  0.75362486  0.32108343  0.10897662  1  0.072561  0  0.098863  0.109462  0  1.003261  0
H  H83  1  0.24637380  0.17891672  0.60897745  1  0.072537  0  0.098893  0.109515  0  1.0033  0
H  H84  1  0.25362566  0.17891668  0.10897848  1  0.072554  0  0.098892  0.10951  0  1.003309  0
H  H85  1  0.74637444  0.32108348  0.60897749  1  0.072546  0  0.098893  0.109513  0  1.0033  0
H  H86  1  0.24637348  0.67891754  0.89102193  1  0.072534  0  0.098883  0.109503  0  1.003293  0
H  H87  1  0.75362598  0.82108484  0.39102252  1  0.072574  0  0.09888  0.109507  0  1.003272  0
H  H88  1  0.74294303  0.91759226  0.92655001  1  0.071643  0  0.096098  0.105873  0  1.007328  0
H  H89  1  0.25705572  0.58240655  0.42654956  1  0.071643  0  0.096111  0.105878  0  1.007313  0
H  H90  1  0.75705752  0.41759438  0.07345050  1  0.071634  0  0.096104  0.10586  0  1.007317  0
H  H91  1  0.24294400  0.08240637  0.57345131  1  0.071688  0  0.096106  0.105893  0  1.007298  0
H  H92  1  0.25705532  0.08240752  0.07345092  1  0.071683  0  0.09613  0.105916  0  1.007325  0
H  H93  1  0.74294334  0.41759263  0.57345042  1  0.071648  0  0.096107  0.105887  0  1.00731  0
H  H94  1  0.24294225  0.58240779  0.92654995  1  0.071656  0  0.096107  0.105893  0  1.007329  0
H  H95  1  0.75705650  0.91759460  0.42655008  1  0.071638  0  0.096112  0.105888  0  1.007292  0
H  H96  1  0.87900554  0.78940570  0.81075542  1  0.098151  0  0.1084  0.128961  0  1.018935  0
H  H97  1  0.12099246  0.71059249  0.31075544  1  0.098202  0  0.108397  0.128929  0  1.019032  0
H  H98  1  0.62099339  0.28940532  0.18924412  1  0.09817  0  0.108393  0.128957  0  1.018926  0
H  H99  1  0.37900745  0.21059306  0.68924402  1  0.097756  0  0.108396  0.128947  0  1.019009  0
H  H100  1  0.12099280  0.21059288  0.18924455  1  0.098197  0  0.108415  0.128955  0  1.018962  0
H  H101  1  0.87900588  0.28940549  0.68924406  1  0.098159  0  0.108388  0.128961  0  1.018944  0
H  H102  1  0.37900423  0.71059565  0.81075538  1  0.098129  0  0.108403  0.128949  0  1.018947  0
H  H103  1  0.62099448  0.78940672  0.31075596  1  0.097753  0  0.108415  0.128952  0  1.018952  0
H  H104  1  0.05815682  0.80155355  0.79872993  1  0.119543  0  0.115854  0.089348  0  1.002602  0
H  H105  1  0.94184261  0.69844583  0.29872911  1  0.119581  0  0.115876  0.089364  0  1.002601  0
H  H106  1  0.44184249  0.30155349  0.20127001  1  0.119543  0  0.115858  0.089345  0  1.002647  0
H  H107  1  0.55815692  0.19844549  0.70127089  1  0.119584  0  0.115843  0.089325  0  1.002638  0
H  H108  1  0.94184295  0.19844622  0.20127052  1  0.119537  0  0.115883  0.089384  0  1.002582  0
H  H109  1  0.05815717  0.30155335  0.70127086  1  0.119523  0  0.115872  0.089364  0  1.002587  0
H  H110  1  0.55815657  0.69844569  0.79872948  1  0.119541  0  0.115879  0.089367  0  1.002589  0
H  H111  1  0.44184358  0.80155429  0.29872861  1  0.119586  0  0.115863  0.089342  0  1.002608  0
H  H112  1  0.06653615  0.00021818  0.91558968  1  0.106546  0  0.114565  0.084556  0  1.001166  0
H  H113  1  0.93346261  0.49978084  0.41559080  1  0.106502  0  0.114531  0.084518  0  1.001203  0
H  H114  1  0.43346346  0.50021787  0.08441022  1  0.106539  0  0.114551  0.084541  0  1.001197  0
H  H115  1  0.56653590  0.99978147  0.58440924  1  0.106539  0  0.114557  0.08455  0  1.001148  0
H  H116  1  0.93346363  0.99978220  0.08440886  1  0.106526  0  0.114554  0.084514  0  1.0012  0
H  H117  1  0.06653573  0.50021834  0.58441012  1  0.10654  0  0.114566  0.084553  0  1.001181  0
H  H118  1  0.56653488  0.49978191  0.91558975  1  0.106569  0  0.114576  0.08457  0  1.001166  0
H  H119  1  0.43346459  0.00021771  0.41559074  1  0.106552  0  0.114564  0.08454  0  1.0012  0
H  H120  1  0.88888232  0.99612434  0.93328546  1  0.135739  0  0.106599  0.128727  0  1.027909  0
H  H121  1  0.11111859  0.50387447  0.43328546  1  0.135737  0  0.106605  0.128745  0  1.027862  0
H  H122  1  0.61111763  0.49612512  0.06671458  1  0.135737  0  0.106608  0.128756  0  1.027876  0
H  H123  1  0.38887959  0.00387502  0.56671350  1  0.135694  0  0.106625  0.128764  0  1.02789  0
H  H124  1  0.11111961  0.00387484  0.06671451  1  0.135732  0  0.1066  0.128739  0  1.027868  0
H  H125  1  0.88888191  0.49612411  0.56671452  1  0.135743  0  0.1066  0.128725  0  1.027924  0
H  H126  1  0.38888071  0.50387585  0.93328540  1  0.135715  0  0.106612  0.128732  0  1.02799  0
H  H127  1  0.61111947  0.99612416  0.43328552  1  0.135708  0  0.106613  0.12872  0  1.027969  0
H  H128  1  0.24438785  0.49772240  0.02956829  1  0.660237  0  0.295886  0.357884  0  0.999686  0
H  H129  1  0.75561294  0.00227654  0.52956774  1  0.660252  0  0.295879  0.357853  0  0.999702  0
H  H130  1  0.25561246  0.99772329  0.97043168  1  0.660249  0  0.295877  0.357902  0  0.999662  0
H  H131  1  0.74438702  0.50227493  0.47043081  1  0.660245  0  0.295852  0.357842  0  0.999749  0
H  H132  1  0.75561264  0.50227617  0.97043311  1  0.660245  0  0.295843  0.357823  0  0.999752  0
H  H133  1  0.24438684  0.99772324  0.47043223  1  0.660248  0  0.295862  0.35785  0  0.999721  0
H  H134  1  0.74438732  0.00227708  0.02956877  1  0.660235  0  0.295892  0.357904  0  0.999657  0
H  H135  1  0.25561347  0.49772306  0.52956821  1  0.660259  0  0.29586  0.357835  0  0.999741  0
C  C136  1  0.23084872  0.85494144  0.99340119  1  1.574797  0  0.211667  0.584372  0  4.20859  0
C  C137  1  0.76915292  0.64505738  0.49340176  1  1.574735  0  0.211713  0.584449  0  4.208543  0
C  C138  1  0.26915211  0.35494177  0.00659829  1  1.574796  0  0.211691  0.584395  0  4.208611  0
C  C139  1  0.73084796  0.14505776  0.50659823  1  1.574767  0  0.211731  0.58454  0  4.208593  0
C  C140  1  0.76915393  0.14505773  0.00659831  1  1.574712  0  0.21173  0.584428  0  4.208657  0
C  C141  1  0.23084686  0.35494120  0.50659774  1  1.574715  0  0.211846  0.58462  0  4.208453  0
C  C142  1  0.73084767  0.64505860  0.99340168  1  1.574767  0  0.211778  0.584546  0  4.208572  0
C  C143  1  0.26915325  0.85494141  0.49340222  1  1.574734  0  0.211789  0.584499  0  4.208557  0
C  C144  1  0.23436293  0.80365643  0.05185663  1  -0.079341  0  -0.019618  -0.041738  0  3.98262  0
C  C145  1  0.76563785  0.69634529  0.55185848  1  -0.079234  0  -0.019568  -0.041686  0  3.982459  0
C  C146  1  0.26563854  0.30365515  0.94814331  1  -0.079303  0  -0.019554  -0.041645  0  3.982306  0
C  C147  1  0.73436166  0.19634149  0.44814152  1  -0.079211  0  -0.019583  -0.041669  0  3.982513  0
C  C148  1  0.76563900  0.19634513  0.94814286  1  -0.079211  0  -0.01952  -0.041638  0  3.982449  0
C  C149  1  0.23436264  0.30365568  0.44814149  1  -0.079207  0  -0.019528  -0.041684  0  3.982502  0
C  C150  1  0.73436196  0.69634343  0.05185714  1  -0.079207  0  -0.019598  -0.04169  0  3.982535  0
C  C151  1  0.26563739  0.80365411  0.55185846  1  -0.079365  0  -0.019595  -0.041736  0  3.982584  0
C  C152  1  0.24117363  0.83851090  0.11209441  1  0.026054  0  -0.063366  -0.08086  0  3.891703  0
C  C153  1  0.75882430  0.66149083  0.61209436  1  0.026106  0  -0.063417  -0.080967  0  3.891845  0
C  C154  1  0.25882502  0.33851020  0.88790601  1  0.026045  0  -0.063407  -0.080931  0  3.891636  0
C  C155  1  0.74117230  0.16148881  0.38790706  1  0.026047  0  -0.063446  -0.081074  0  3.891769  0
C  C156  1  0.75882399  0.16148887  0.88790651  1  0.026078  0  -0.063361  -0.08082  0  3.891709  0
C  C157  1  0.24117619  0.33851134  0.38790562  1  0.025934  0  -0.063363  -0.080843  0  3.89165  0
C  C158  1  0.74117261  0.66148958  0.11209443  1  0.026014  0  -0.063402  -0.080961  0  3.891745  0
C  C159  1  0.25882605  0.83851156  0.61209434  1  0.026055  0  -0.063355  -0.08082  0  3.89161  0
C  C160  1  0.24868457  0.79075666  0.16645025  1  0.049258  0  -0.016637  -0.028808  0  3.973239  0
C  C161  1  0.75131697  0.70924329  0.66645162  1  0.049226  0  -0.016612  -0.028766  0  3.973346  0
C  C162  1  0.25131688  0.29075654  0.83354922  1  0.04932  0  -0.016585  -0.028679  0  3.973113  0
C  C163  1  0.74868328  0.20924665  0.33354933  1  0.049324  0  -0.016517  -0.028505  0  3.972976  0
C  C164  1  0.75131880  0.20924311  0.83355020  1  0.049264  0  -0.016617  -0.028797  0  3.973263  0
C  C165  1  0.24868352  0.29075529  0.33354930  1  0.049283  0  -0.016648  -0.028848  0  3.973242  0
C  C166  1  0.74868289  0.70924324  0.16645075  1  0.049329  0  -0.016574  -0.028676  0  3.973112  0
C  C167  1  0.25131721  0.79075552  0.66645112  1  0.049285  0  -0.016649  -0.028874  0  3.973228  0
C  C168  1  0.24869599  0.70771124  0.16018238  1  -0.089062  0  -0.066936  -0.084791  0  3.914964  0
C  C169  1  0.75130196  0.79228811  0.66018234  1  -0.089041  0  -0.06688  -0.084729  0  3.915069  0
C  C170  1  0.25130248  0.20770933  0.83981803  1  -0.089074  0  -0.066988  -0.084976  0  3.915145  0
C  C171  1  0.74869554  0.29229326  0.33982147  1  -0.089137  0  -0.06701  -0.085014  0  3.915293  0
C  C172  1  0.75130164  0.29228972  0.83981902  1  -0.089019  0  -0.066937  -0.084835  0  3.915046  0
C  C173  1  0.24869853  0.20771107  0.33981859  1  -0.089031  0  -0.06694  -0.084835  0  3.915093  0
C  C174  1  0.74869587  0.79229164  0.16018099  1  -0.08905  0  -0.066989  -0.084849  0  3.915025  0
C  C175  1  0.25130424  0.70771130  0.66018230  1  -0.089062  0  -0.066942  -0.084798  0  3.915051  0
C  C176  1  0.24102140  0.67241529  0.10027024  1  0.011524  0  -0.021467  -0.055511  0  4.012335  0
C  C177  1  0.75897868  0.82758584  0.60027163  1  0.011534  0  -0.021531  -0.055507  0  4.012471  0
C  C178  1  0.25897988  0.17241519  0.89972874  1  0.011549  0  -0.021493  -0.055395  0  4.012345  0
C  C179  1  0.74102030  0.32758622  0.39973076  1  0.011462  0  -0.021416  -0.055289  0  4.01238  0
C  C180  1  0.75897981  0.32758568  0.89972926  1  0.011511  0  -0.021461  -0.05539  0  4.012386  0
C  C181  1  0.24102109  0.17241393  0.39972977  1  0.011544  0  -0.021477  -0.055508  0  4.012352  0
C  C182  1  0.74102061  0.82758459  0.10027028  1  0.011562  0  -0.021455  -0.055443  0  4.012381  0
C  C183  1  0.25897947  0.67241415  0.60027111  1  0.011549  0  -0.021465  -0.055402  0  4.012336  0
C  C184  1  0.23417417  0.72051842  0.04613229  1  0.032577  0  -0.069076  -0.086686  0  3.911461  0
C  C185  1  0.76582375  0.77948509  0.54613178  1  0.03246  0  -0.069063  -0.086664  0  3.911419  0
C  C186  1  0.26582432  0.22051534  0.95386860  1  0.032498  0  -0.069076  -0.086726  0  3.911364  0
C  C187  1  0.73417445  0.27948189  0.45387013  1  0.032491  0  -0.069096  -0.086725  0  3.911304  0
C  C188  1  0.76582202  0.27948434  0.95386768  1  0.032413  0  -0.069143  -0.086761  0  3.911519  0
C  C189  1  0.23417675  0.22051588  0.45386772  1  0.032413  0  -0.069135  -0.086694  0  3.911433  0
C  C190  1  0.73417474  0.77948383  0.04613090  1  0.032385  0  -0.069112  -0.086755  0  3.911387  0
C  C191  1  0.26582532  0.72051669  0.54613221  1  0.032482  0  -0.069055  -0.086676  0  3.911505  0
C  C192  1  0.25824264  0.82793265  0.23102531  1  1.516704  0  0.188991  0.549659  0  4.243375  0
C  C193  1  0.74175749  0.67206671  0.73102478  1  1.516633  0  0.188965  0.549607  0  4.243515  0
C  C194  1  0.24175815  0.32793191  0.76897369  1  1.516672  0  0.188988  0.549662  0  4.243413  0
C  C195  1  0.75824128  0.17206947  0.26897380  1  1.516686  0  0.188995  0.549541  0  4.24341  0
C  C196  1  0.74176001  0.17206832  0.76897467  1  1.516728  0  0.188918  0.54943  0  4.243544  0
C  C197  1  0.25824086  0.32793187  0.26897472  1  1.516668  0  0.188925  0.549629  0  4.243473  0
C  C198  1  0.75824091  0.67206727  0.23102533  1  1.516658  0  0.189022  0.549661  0  4.243398  0
C  C199  1  0.24175921  0.82793090  0.73102570  1  1.516714  0  0.189031  0.549705  0  4.2432  0
C  C200  1  0.24553308  0.58406073  0.09449985  1  1.544565  0  0.234265  0.590355  0  4.122098  0
C  C201  1  0.75447059  0.91593861  0.59450030  1  1.54454  0  0.234215  0.590226  0  4.122277  0
C  C202  1  0.25446952  0.08406182  0.90549960  1  1.544559  0  0.234198  0.590254  0  4.122115  0
C  C203  1  0.74553354  0.41594138  0.40550020  1  1.544601  0  0.234171  0.590182  0  4.12221  0
C  C204  1  0.75447029  0.41593904  0.90549965  1  1.544555  0  0.234226  0.590236  0  4.122213  0
C  C205  1  0.24553062  0.08405997  0.40550062  1  1.54453  0  0.234234  0.590321  0  4.122183  0
C  C206  1  0.74553241  0.91593975  0.09450085  1  1.544611  0  0.234216  0.590325  0  4.122137  0
C  C207  1  0.25446982  0.58406078  0.59449930  1  1.544507  0  0.234143  0.590184  0  4.122318  0
C  C208  1  0.44201813  0.96224581  0.80596763  1  0.474012  0  0.042094  0.091342  0  3.975351  0
C  C209  1  0.55798202  0.53775297  0.30596959  1  0.474089  0  0.042072  0.091309  0  3.975228  0
C  C210  1  0.05798357  0.46224716  0.19403138  1  0.474049  0  0.042093  0.091235  0  3.975367  0
C  C211  1  0.94201943  0.03775300  0.69403134  1  0.474005  0  0.042065  0.091257  0  3.975417  0
C  C212  1  0.55798237  0.03775337  0.19403092  1  0.474064  0  0.042078  0.091304  0  3.975351  0
C  C213  1  0.44201919  0.46224740  0.69403086  1  0.47403  0  0.042071  0.091303  0  3.975444  0
C  C214  1  0.94201764  0.53775321  0.80596812  1  0.474046  0  0.042097  0.091324  0  3.975288  0
C  C215  1  0.05798250  0.96224677  0.30596863  1  0.474003  0  0.042068  0.091201  0  3.975359  0
C  C216  1  0.54101314  0.96554772  0.79897254  1  -0.044511  0  -0.082957  -0.183056  0  3.918935  0
C  C217  1  0.45898485  0.53445166  0.29897211  1  -0.044573  0  -0.082928  -0.182982  0  3.918837  0
C  C218  1  0.95898676  0.46554708  0.20102797  1  -0.044531  0  -0.082968  -0.182988  0  3.918895  0
C  C219  1  0.04101408  0.03444951  0.70102638  1  -0.044578  0  -0.082947  -0.182922  0  3.91888  0
C  C220  1  0.45898520  0.03445086  0.20102648  1  -0.044521  0  -0.082942  -0.182977  0  3.918911  0
C  C221  1  0.54101420  0.46554871  0.70102738  1  -0.04453  0  -0.082939  -0.182957  0  3.918862  0
C  C222  1  0.04101373  0.53445031  0.79897343  1  -0.044562  0  -0.082957  -0.183017  0  3.91882  0
C  C223  1  0.95898785  0.96554847  0.29897170  1  -0.044553  0  -0.082955  -0.182956  0  3.918849  0
C  C224  1  0.59969805  0.91505260  0.83541768  1  9.3e-05  0  0.022289  0.189152  0  3.905643  0
C  C225  1  0.40030282  0.58494857  0.33541678  1  8.4e-05  0  0.022285  0.189061  0  3.905756  0
C  C226  1  0.90030249  0.41505070  0.16458282  1  6.4e-05  0  0.022324  0.189144  0  3.905783  0
C  C227  1  0.09969690  0.08494887  0.66458362  1  0.000109  0  0.022259  0.18906  0  3.905748  0
C  C228  1  0.40030316  0.08494836  0.16458324  1  7e-05  0  0.022308  0.189184  0  3.905854  0
C  C229  1  0.59969695  0.41505060  0.66458272  1  9.9e-05  0  0.022288  0.189125  0  3.905668  0
C  C230  1  0.09969728  0.58494788  0.83541621  1  8.4e-05  0  0.022344  0.189231  0  3.905695  0
C  C231  1  0.90030503  0.91505091  0.33541636  1  0.00013  0  0.022334  0.189211  0  3.905666  0
C  C232  1  0.55386738  0.86380112  0.87838939  1  -0.003133  0  -0.084475  -0.186069  0  3.935153  0
C  C233  1  0.44613279  0.63619827  0.37838897  1  -0.003189  0  -0.084488  -0.186065  0  3.935189  0
C  C234  1  0.94613165  0.36380224  0.12161110  1  -0.003221  0  -0.084552  -0.186191  0  3.935232  0
C  C235  1  0.05386629  0.13619851  0.62161143  1  -0.003583  0  -0.084475  -0.18609  0  3.935177  0
C  C236  1  0.44613383  0.13619806  0.12161153  1  -0.003556  0  -0.084489  -0.186151  0  3.935198  0
C  C237  1  0.55386843  0.36380090  0.62161053  1  -0.00322  0  -0.084504  -0.186149  0  3.935142  0
C  C238  1  0.05386669  0.63619753  0.87838839  1  -0.003485  0  -0.084531  -0.186195  0  3.935272  0
C  C239  1  0.94613276  0.86380186  0.37838950  1  -0.003225  0  -0.084495  -0.186112  0  3.935278  0
C  C240  1  0.45440958  0.86442715  0.88305800  1  0.431442  0  0.042867  0.0911  0  3.983101  0
C  C241  1  0.54559131  0.63557344  0.38305950  1  0.431462  0  0.042873  0.091103  0  3.983186  0
C  C242  1  0.04559055  0.36442609  0.11694147  1  0.431507  0  0.042898  0.091187  0  3.982923  0
C  C243  1  0.95440884  0.13557048  0.61694049  1  0.431801  0  0.042898  0.091103  0  3.983085  0
C  C244  1  0.54559235  0.13557262  0.11694007  1  0.431834  0  0.042878  0.091159  0  3.983087  0
C  C245  1  0.45440918  0.36442753  0.61694142  1  0.431512  0  0.042898  0.091175  0  3.983068  0
C  C246  1  0.95440851  0.63557070  0.88305945  1  0.431818  0  0.042876  0.091104  0  3.983164  0
C  C247  1  0.04559022  0.86442750  0.38305948  1  0.431479  0  0.042863  0.091087  0  3.983199  0
C  C248  1  0.70659865  0.91644103  0.82656701  1  -0.043592  0  -0.155315  -0.202164  0  3.911435  0
C  C249  1  0.29340078  0.58356075  0.32656657  1  -0.043582  0  -0.155237  -0.201834  0  3.911284  0
C  C250  1  0.79340117  0.41643902  0.17343254  1  -0.043552  0  -0.15523  -0.20192  0  3.911305  0
C  C251  1  0.20659966  0.08356055  0.67343430  1  -0.043599  0  -0.155322  -0.202124  0  3.911452  0
C  C252  1  0.29340112  0.08355994  0.17343391  1  -0.043589  0  -0.155315  -0.202174  0  3.911572  0
C  C253  1  0.70659900  0.41643963  0.67343341  1  -0.043546  0  -0.155323  -0.202173  0  3.91144  0
C  C254  1  0.20659932  0.58356016  0.82656648  1  -0.043591  0  -0.15532  -0.202154  0  3.911512  0
C  C255  1  0.79340155  0.91643983  0.32656662  1  -0.043568  0  -0.155316  -0.202163  0  3.911555  0
C  C256  1  0.76347473  0.88461007  0.88357497  1  -0.027652  0  -0.160399  -0.210669  0  3.935186  0
C  C257  1  0.23652545  0.61538992  0.38357499  1  -0.027667  0  -0.160415  -0.210736  0  3.935085  0
C  C258  1  0.73652434  0.38460979  0.11642458  1  -0.027658  0  -0.160432  -0.210707  0  3.935075  0
C  C259  1  0.26347217  0.11539096  0.61642588  1  -0.027681  0  -0.160433  -0.210768  0  3.935189  0
C  C260  1  0.23652505  0.11539090  0.11642595  1  -0.027664  0  -0.160471  -0.210795  0  3.935245  0
C  C261  1  0.76347433  0.38460926  0.61642498  1  -0.027661  0  -0.160443  -0.210756  0  3.935185  0
C  C262  1  0.26347400  0.61539118  0.88357492  1  -0.027648  0  -0.160453  -0.210797  0  3.935274  0
C  C263  1  0.73652617  0.88461001  0.38357457  1  -0.027653  0  -0.160419  -0.210734  0  3.935211  0
C  C264  1  0.86961477  0.89162845  0.87352712  1  -0.053087  0  0.019629  0.186658  0  3.924441  0
C  C265  1  0.13038397  0.60837035  0.37352713  1  -0.053118  0  0.019593  0.186609  0  3.924485  0
C  C266  1  0.63038431  0.39162926  0.12647338  1  -0.053115  0  0.019583  0.186582  0  3.924426  0
C  C267  1  0.36961508  0.10837149  0.62647184  1  -0.053503  0  0.019606  0.18665  0  3.924552  0
C  C268  1  0.13038429  0.10837013  0.12647285  1  -0.053505  0  0.019618  0.186659  0  3.924414  0
C  C269  1  0.86961581  0.39162883  0.62647189  1  -0.053463  0  0.019607  0.186647  0  3.924412  0
C  C270  1  0.36961475  0.60837051  0.87352754  1  -0.053331  0  0.019628  0.186705  0  3.924456  0
C  C271  1  0.63038470  0.89162888  0.37352813  1  -0.053384  0  0.019597  0.186621  0  3.924484  0
C  C272  1  0.91843812  0.83725735  0.83445122  1  0.019627  0  -0.084757  -0.188755  0  3.925995  0
C  C273  1  0.08156347  0.66274084  0.33445218  1  0.019625  0  -0.08477  -0.188729  0  3.926199  0
C  C274  1  0.58156231  0.33725872  0.16554832  1  0.01963  0  -0.084769  -0.188729  0  3.925989  0
C  C275  1  0.41843637  0.16274144  0.66554775  1  0.020051  0  -0.084802  -0.188807  0  3.926275  0
C  C276  1  0.08156309  0.16274063  0.16554828  1  0.019628  0  -0.084777  -0.188742  0  3.926112  0
C  C277  1  0.91843774  0.33725774  0.66554827  1  0.019651  0  -0.084772  -0.188795  0  3.926018  0
C  C278  1  0.41843674  0.66274225  0.83445118  1  0.019656  0  -0.084785  -0.188786  0  3.926019  0
C  C279  1  0.58156269  0.83725833  0.33445223  1  0.020062  0  -0.084749  -0.188701  0  3.926041  0
C  C280  1  0.01721466  0.84382479  0.82743043  1  0.419475  0  0.041036  0.08484  0  3.97789  0
C  C281  1  0.98278693  0.65617698  0.32742914  1  0.419417  0  0.041025  0.084849  0  3.977819  0
C  C282  1  0.48278472  0.34382357  0.17256904  1  0.419433  0  0.041055  0.084806  0  3.977896  0
C  C283  1  0.51721181  0.15617779  0.67257086  1  0.419393  0  0.041035  0.084885  0  3.977887  0
C  C284  1  0.98278727  0.15617678  0.17257002  1  0.419419  0  0.04102  0.084818  0  3.977829  0
C  C285  1  0.01721500  0.34382399  0.67256989  1  0.419525  0  0.041069  0.08487  0  3.977796  0
C  C286  1  0.51721434  0.65617681  0.82742998  1  0.419503  0  0.041053  0.084869  0  3.977766  0
C  C287  1  0.48278653  0.84382377  0.32742959  1  0.419453  0  0.041017  0.084833  0  3.97785  0
C  C288  1  0.02217996  0.95464422  0.89312862  1  0.441702  0  0.043733  0.09837  0  3.976244  0
C  C289  1  0.97781806  0.54535458  0.39312827  1  0.441707  0  0.043687  0.098353  0  3.9762  0
C  C290  1  0.47781957  0.45464417  0.10687087  1  0.441681  0  0.043709  0.098332  0  3.976225  0
C  C291  1  0.52218052  0.04535538  0.60687219  1  0.441746  0  0.04374  0.098434  0  3.976098  0
C  C292  1  0.97781910  0.04535496  0.10687182  1  0.441683  0  0.043716  0.098415  0  3.976214  0
C  C293  1  0.02218100  0.45464340  0.60687123  1  0.441702  0  0.043658  0.098299  0  3.976287  0
C  C294  1  0.52217877  0.54535680  0.89312863  1  0.441725  0  0.043662  0.09832  0  3.976219  0
C  C295  1  0.47782069  0.95464439  0.39312826  1  0.441731  0  0.043692  0.098356  0  3.976188  0
C  C296  1  0.92352182  0.95198441  0.90273270  1  -0.032221  0  -0.086114  -0.191177  0  3.919413  0
C  C297  1  0.07647693  0.54801499  0.40273270  1  -0.032182  0  -0.086046  -0.191122  0  3.919377  0
C  C298  1  0.57647735  0.45198457  0.09726638  1  -0.032205  0  -0.08605  -0.191119  0  3.919373  0
C  C299  1  0.42352131  0.04801618  0.59726627  1  -0.031787  0  -0.086078  -0.191178  0  3.919404  0
C  C300  1  0.07647653  0.04801477  0.09726680  1  -0.031801  0  -0.086051  -0.191141  0  3.919357  0
C  C301  1  0.92352285  0.45198479  0.59726633  1  -0.031844  0  -0.08603  -0.191066  0  3.9194  0
C  C302  1  0.42352099  0.54801461  0.90273359  1  -0.03199  0  -0.086091  -0.191174  0  3.919592  0
C  C303  1  0.57647918  0.95198419  0.40273371  1  -0.031977  0  -0.086075  -0.191109  0  3.919497  0
N  N304  1  0.39891402  0.91256551  0.84751383  1  -1.245472  0  -0.338851  -0.254024  0  3.539235  0
N  N305  1  0.60108470  0.58743508  0.34751438  1  -1.24546  0  -0.338778  -0.253923  0  3.539254  0
N  N306  1  0.10108545  0.41256450  0.15248660  1  -1.245475  0  -0.338817  -0.253977  0  3.539182  0
N  N307  1  0.89891466  0.08743506  0.65248798  1  -1.245457  0  -0.338815  -0.253943  0  3.539216  0
N  N308  1  0.60108504  0.08743606  0.15248661  1  -1.24548  0  -0.338846  -0.254026  0  3.539275  0
N  N309  1  0.39891436  0.41256589  0.65248607  1  -1.245441  0  -0.338806  -0.253972  0  3.539271  0
N  N310  1  0.89891361  0.58743527  0.84751242  1  -1.245538  0  -0.338857  -0.254017  0  3.539191  0
N  N311  1  0.10108655  0.91256591  0.34751389  1  -1.245421  0  -0.3388  -0.253888  0  3.539191  0
N  N312  1  0.06871444  0.90141954  0.85644566  1  -1.251477  0  -0.33886  -0.254042  0  3.547394  0
N  N313  1  0.93128716  0.59858104  0.35644435  1  -1.251395  0  -0.338817  -0.254049  0  3.547271  0
N  N314  1  0.43128645  0.40141946  0.14355430  1  -1.251354  0  -0.338853  -0.253986  0  3.547299  0
N  N315  1  0.56871222  0.09858249  0.64355516  1  -1.251427  0  -0.33883  -0.254092  0  3.547262  0
N  N316  1  0.93128678  0.09858023  0.14355526  1  -1.251417  0  -0.338876  -0.254098  0  3.547295  0
N  N317  1  0.06871333  0.40141933  0.64355467  1  -1.251542  0  -0.338868  -0.25407  0  3.547331  0
N  N318  1  0.56871332  0.59858151  0.85644520  1  -1.251416  0  -0.338839  -0.254027  0  3.547222  0
N  N319  1  0.43128684  0.90141847  0.35644481  1  -1.25148  0  -0.338848  -0.254058  0  3.547238  0
O  O320  1  0.24572065  0.82086839  0.94022212  1  -1.15914  0  -0.324186  -0.553354  0  2.266056  0
O  O321  1  0.75428026  0.67912982  0.44022174  1  -1.159107  0  -0.324254  -0.553465  0  2.265951  0
O  O322  1  0.25427941  0.32086931  0.05977736  1  -1.159104  0  -0.324252  -0.553447  0  2.266063  0
O  O323  1  0.74572067  0.17913083  0.55977730  1  -1.15911  0  -0.324266  -0.553513  0  2.266031  0
O  O324  1  0.75427913  0.17913079  0.05977738  1  -1.159087  0  -0.324262  -0.55345  0  2.266063  0
O  O325  1  0.24572024  0.32087055  0.55977728  1  -1.159083  0  -0.324295  -0.553491  0  2.266084  0
O  O326  1  0.74572036  0.67913285  0.94022262  1  -1.159123  0  -0.324282  -0.553467  0  2.26603  0
O  O327  1  0.25428054  0.82086954  0.44022314  1  -1.159069  0  -0.32427  -0.553434  0  2.266143  0
O  O328  1  0.21383200  0.92908361  0.00126323  1  -1.20698  0  -0.323665  -0.571976  0  2.267282  0
O  O329  1  0.78616662  0.57091690  0.50126032  1  -1.206902  0  -0.323611  -0.571894  0  2.267548  0
O  O330  1  0.28616749  0.42908355  0.99873768  1  -1.206985  0  -0.323634  -0.571913  0  2.267437  0
O  O331  1  0.71383416  0.07091966  0.49873729  1  -1.206946  0  -0.32362  -0.571925  0  2.267447  0
O  O332  1  0.78616777  0.07091616  0.99873864  1  -1.206911  0  -0.323637  -0.571927  0  2.267478  0
O  O333  1  0.21383388  0.42908347  0.49873823  1  -1.2069  0  -0.323721  -0.572041  0  2.267326  0
O  O334  1  0.71383228  0.57091801  0.00126230  1  -1.206956  0  -0.323638  -0.571966  0  2.267328  0
O  O335  1  0.28616705  0.92908369  0.50126174  1  -1.206905  0  -0.323696  -0.571993  0  2.267316  0
O  O336  1  0.26282260  0.90389224  0.23503648  1  -1.131379  0  -0.33079  -0.562674  0  2.205311  0
O  O337  1  0.73717753  0.59610593  0.73503546  1  -1.131356  0  -0.330779  -0.562679  0  2.205362  0
O  O338  1  0.23717973  0.40389328  0.76496395  1  -1.131308  0  -0.330791  -0.56272  0  2.205325  0
O  O339  1  0.76282113  0.09610571  0.26496167  1  -1.131296  0  -0.330847  -0.562715  0  2.20515  0
O  O340  1  0.73717789  0.09610634  0.76496349  1  -1.131381  0  -0.330764  -0.562609  0  2.20533  0
O  O341  1  0.26282297  0.40389384  0.26496308  1  -1.131328  0  -0.330754  -0.56266  0  2.205318  0
O  O342  1  0.76282005  0.59610709  0.23503744  1  -1.131322  0  -0.330808  -0.562674  0  2.205294  0
O  O343  1  0.23717793  0.90389347  0.73503593  1  -1.131358  0  -0.330837  -0.562739  0  2.205126  0
O  O344  1  0.26168884  0.78201723  0.27945743  1  -1.169642  0  -0.333979  -0.563051  0  2.170866  0
O  O345  1  0.73831058  0.71798454  0.77945690  1  -1.169616  0  -0.333963  -0.562976  0  2.17082  0
O  O346  1  0.23831044  0.28201587  0.72054204  1  -1.169699  0  -0.333978  -0.563026  0  2.170853  0
O  O347  1  0.76168754  0.21798251  0.22054262  1  -1.16968  0  -0.333957  -0.562962  0  2.170968  0
O  O348  1  0.73831021  0.21798374  0.72054302  1  -1.169646  0  -0.333977  -0.562939  0  2.17088  0
O  O349  1  0.26168920  0.28201643  0.22054212  1  -1.169667  0  -0.333955  -0.56301  0  2.170878  0
O  O350  1  0.76168862  0.71798331  0.27945841  1  -1.169665  0  -0.333992  -0.563059  0  2.170834  0
O  O351  1  0.23831009  0.78201607  0.77945735  1  -1.169683  0  -0.333973  -0.562999  0  2.170844  0
O  O352  1  0.27281087  0.54146868  0.13973585  1  -1.163502  0  -0.297747  -0.518623  0  2.251848  0
O  O353  1  0.72719424  0.95853066  0.63973536  1  -1.163478  0  -0.297733  -0.518593  0  2.251926  0
O  O354  1  0.22719238  0.04146914  0.86026406  1  -1.163495  0  -0.297739  -0.518609  0  2.251798  0
O  O355  1  0.77281210  0.45852987  0.36026420  1  -1.163519  0  -0.297681  -0.518527  0  2.251893  0
O  O356  1  0.72719249  0.45853049  0.86026507  1  -1.163483  0  -0.297735  -0.518615  0  2.251938  0
O  O357  1  0.27280840  0.04147030  0.36026462  1  -1.163459  0  -0.297732  -0.518621  0  2.251942  0
O  O358  1  0.77280812  0.95853123  0.13973544  1  -1.163539  0  -0.297705  -0.518611  0  2.251926  0
O  O359  1  0.22719198  0.54146931  0.63973482  1  -1.163441  0  -0.297703  -0.518616  0  2.251914  0
O  O360  1  0.22079237  0.55662663  0.03828890  1  -1.187552  0  -0.325157  -0.485774  0  2.337811  0
O  O361  1  0.77920626  0.94337270  0.53828841  1  -1.18757  0  -0.325159  -0.48572  0  2.337841  0
O  O362  1  0.27920660  0.05662656  0.96171101  1  -1.187546  0  -0.325126  -0.485771  0  2.337808  0
O  O363  1  0.72079217  0.44337486  0.46171114  1  -1.187578  0  -0.325116  -0.485699  0  2.337857  0
O  O364  1  0.77920525  0.44337314  0.96171202  1  -1.187574  0  -0.325146  -0.485695  0  2.337865  0
O  O365  1  0.22079423  0.05662768  0.46171156  1  -1.187593  0  -0.325138  -0.48572  0  2.337849  0
O  O366  1  0.72079246  0.94337381  0.03828896  1  -1.187558  0  -0.32515  -0.48577  0  2.33776  0
O  O367  1  0.27920689  0.55662790  0.53828930  1  -1.187587  0  -0.325119  -0.485677  0  2.337909  0
