# generated using pymatgen
data_Cu2P2H26C29I2N
_symmetry_space_group_name_H-M   'P 1'
_cell_length_a   10.15102325
_cell_length_b   12.16691445
_cell_length_c   13.16444713
_cell_angle_alpha   108.47710432
_cell_angle_beta   105.45092032
_cell_angle_gamma   91.43864455
_symmetry_Int_Tables_number   1
_chemical_formula_structural   Cu2P2H26C29I2N
_chemical_formula_sum   'Cu4 P4 H52 C58 I4 N2'
_cell_volume   1475.64092786
_cell_formula_units_Z   2
loop_
 _symmetry_equiv_pos_site_id
 _symmetry_equiv_pos_as_xyz
  1  'x, y, z'
loop_
 _atom_site_type_symbol
 _atom_site_label
 _atom_site_symmetry_multiplicity
 _atom_site_fract_x
 _atom_site_fract_y
 _atom_site_fract_z
 _atom_site_occupancy
 _atom_site_pbe_bader_spin_density
 _atom_site_pbe_cm5_charge
 _atom_site_pbe_ddec_charge
 _atom_site_pbe_ddec_spin_density
 _atom_site_pbe_ddec_sum_bond_order
 _atom_site_pbe_magmom
Cu  Cu0  1  0.93562443  0.51377075  0.60577809  1  0  0.231284  0.067893  0  2.746638  0
Cu  Cu1  1  0.06437594  0.48623310  0.39422486  1  0  0.231273  0.067841  0  2.746715  0
Cu  Cu2  1  0.70773186  0.30285985  0.43009932  1  0  0.269468  0.088607  0  2.633237  0
Cu  Cu3  1  0.29226424  0.69714224  0.56989689  1  0  0.269501  0.088676  0  2.633256  0
P  P4  1  0.45214011  0.84277095  0.67815436  1  0  -0.047246  0.228835  0  4.20936  0
P  P5  1  0.54785781  0.15722940  0.32184097  1  0  -0.047196  0.228925  0  4.209218  0
P  P6  1  0.92268266  0.66722354  0.74561442  1  0  -0.04746  0.246898  0  4.183102  0
P  P7  1  0.07731565  0.33278032  0.25438960  1  0  -0.047404  0.246961  0  4.183143  0
H  H8  1  0.65757099  0.48205652  0.67250728  1  0  0.091488  0.09881  0  1.045397  0
H  H9  1  0.34242599  0.51794471  0.32749039  1  0  0.091505  0.098847  0  1.045304  0
H  H10  1  0.48286229  0.68843814  0.46692852  1  0  0.092528  0.093337  0  1.078344  0
H  H11  1  0.51713570  0.31156309  0.53307088  1  0  0.09254  0.093346  0  1.078275  0
H  H12  1  0.62582343  0.03486477  0.87646254  1  0  0.096692  0.091234  0  1.040096  0
H  H13  1  0.37417721  0.96513385  0.12353971  1  0  0.096676  0.091222  0  1.040083  0
H  H14  1  0.94782588  0.74219764  0.56233728  1  0  0.08151  0.083968  0  1.078508  0
H  H15  1  0.05217948  0.25779836  0.43766673  1  0  0.081508  0.083948  0  1.078529  0
H  H16  1  0.70801836  0.63038805  0.79355105  1  0  0.107597  0.107173  0  1.014098  0
H  H17  1  0.29198100  0.36961580  0.20645016  1  0  0.107632  0.107194  0  1.014039  0
H  H18  1  0.76272593  0.78065263  0.83442076  1  0  0.111719  0.115762  0  1.022633  0
H  H19  1  0.23727446  0.21935122  0.16558067  1  0  0.111715  0.115764  0  1.022574  0
H  H20  1  0.21834865  0.96971628  0.66373344  1  0  0.093389  0.089257  0  1.056909  0
H  H21  1  0.78165269  0.03028669  0.33626414  1  0  0.093401  0.089276  0  1.056999  0
H  H22  1  0.21221442  0.74756348  0.87143236  1  0  0.094518  0.093873  0  1.037228  0
H  H23  1  0.78778119  0.25243602  0.12857211  1  0  0.094525  0.093895  0  1.037192  0
H  H24  1  0.41419976  0.69448797  0.80318085  1  0  0.084686  0.084461  0  1.066878  0
H  H25  1  0.58579872  0.30550888  0.19681130  1  0  0.08466  0.084426  0  1.067008  0
H  H26  1  0.98741281  0.10086634  0.88991538  1  0  0.095611  0.095056  0  1.03207  0
H  H27  1  0.01258344  0.89913662  0.11007959  1  0  0.095591  0.095067  0  1.03206  0
H  H28  1  0.36871488  0.29439573  0.64408686  1  0  0.091536  0.097371  0  1.033019  0
H  H29  1  0.63129331  0.70561338  0.35592459  1  0  0.091545  0.097304  0  1.03306  0
H  H30  1  0.74587491  0.03832038  0.06808434  1  0  0.095962  0.093172  0  1.0337  0
H  H31  1  0.25412192  0.96167300  0.93191558  1  0  0.095919  0.093122  0  1.033732  0
H  H32  1  0.53754319  0.69727950  0.99541479  1  0  0.103016  0.100316  0  0.990034  0
H  H33  1  0.46245365  0.30271298  0.00457499  1  0  0.102999  0.1003  0  0.990054  0
H  H34  1  0.98471909  0.90540792  0.91291335  1  0  0.098378  0.095749  0  1.024602  0
H  H35  1  0.01527529  0.09459680  0.08708705  1  0  0.098369  0.095706  0  1.024656  0
H  H36  1  0.63896368  0.02964996  0.66081974  1  0  0.101801  0.102146  0  1.0191  0
H  H37  1  0.36103855  0.97035214  0.33917853  1  0  0.101776  0.102132  0  1.019111  0
H  H38  1  0.94908135  0.93749448  0.53948586  1  0  0.09571  0.092283  0  1.031137  0
H  H39  1  0.05092807  0.06250063  0.46051117  1  0  0.095749  0.092326  0  1.031134  0
H  H40  1  0.23869613  0.70046146  0.18723818  1  0  0.086105  0.082165  0  1.062481  0
H  H41  1  0.76130643  0.29952931  0.81276449  1  0  0.086139  0.08222  0  1.062468  0
H  H42  1  0.17988295  0.16778941  0.65345117  1  0  0.093628  0.090933  0  1.033073  0
H  H43  1  0.82012301  0.83221794  0.34655474  1  0  0.093612  0.090882  0  1.033111  0
H  H44  1  0.70534448  0.86844449  0.12694481  1  0  0.096767  0.095523  0  1.031959  0
H  H45  1  0.29465394  0.13154539  0.87305139  1  0  0.09679  0.09551  0  1.032017  0
H  H46  1  0.59850730  0.22141194  0.64483367  1  0  0.089572  0.088978  0  1.049712  0
H  H47  1  0.40149739  0.77859367  0.35517222  1  0  0.089566  0.088934  0  1.049683  0
H  H48  1  0.34970493  0.76194345  0.06250575  1  0  0.095389  0.089809  0  1.039581  0
H  H49  1  0.65029497  0.23804993  0.93749483  1  0  0.095375  0.089801  0  1.039552  0
H  H50  1  0.85395525  0.60585451  0.92818783  1  0  0.099458  0.097722  0  1.013563  0
H  H51  1  0.14604281  0.39414761  0.07181563  1  0  0.099484  0.097776  0  1.013534  0
H  H52  1  0.99193938  0.62193601  0.11848344  1  0  0.093507  0.097936  0  1.015036  0
H  H53  1  0.00805894  0.37806087  0.88151933  1  0  0.093529  0.098017  0  1.014989  0
H  H54  1  0.96360871  0.11621950  0.70201720  1  0  0.0828  0.088853  0  1.065565  0
H  H55  1  0.03639500  0.88377822  0.29797633  1  0  0.082785  0.088833  0  1.065521  0
H  H56  1  0.62555499  0.81810217  0.57208150  1  0  0.107263  0.11249  0  1.011018  0
H  H57  1  0.37444559  0.18189556  0.42791592  1  0  0.107275  0.112501  0  1.011017  0
H  H58  1  0.70371014  0.88269525  0.71795222  1  0  0.113313  0.11737  0  1.022874  0
H  H59  1  0.29628649  0.11730335  0.28204385  1  0  0.1133  0.117294  0  1.022731  0
C  C60  1  0.57988029  0.60216478  0.58434010  1  0  0.075512  0.159711  0  4.057298  0
C  C61  1  0.42011951  0.39783469  0.41565766  1  0  0.075468  0.159682  0  4.057307  0
C  C62  1  0.58860691  0.49278152  0.59840392  1  0  -0.118952  -0.174863  0  4.026052  0
C  C63  1  0.41139340  0.50721447  0.40159446  1  0  -0.118917  -0.174907  0  4.025867  0
C  C64  1  0.48855950  0.60699889  0.48433037  1  0  -0.128059  -0.1765  0  4.056411  0
C  C65  1  0.51144256  0.39300235  0.51567065  1  0  -0.128039  -0.176457  0  4.056346  0
C  C66  1  0.51181026  0.86439107  0.82773644  1  0  -0.027679  -0.045229  0  3.960936  0
C  C67  1  0.48818661  0.13560928  0.17226019  1  0  -0.027696  -0.045261  0  3.961201  0
C  C68  1  0.02267283  0.67754557  0.88639711  1  0  -0.028966  -0.049328  0  3.972268  0
C  C69  1  0.97732558  0.32245916  0.11360795  1  0  -0.028936  -0.049252  0  3.972238  0
C  C70  1  0.43168823  0.98670279  0.66619520  1  0  -0.026716  -0.043023  0  3.966592  0
C  C71  1  0.56831097  0.01329929  0.33379939  1  0  -0.026724  -0.042987  0  3.966455  0
C  C72  1  0.60491785  0.96144623  0.90284996  1  0  -0.086155  -0.094051  0  3.97799  0
C  C73  1  0.39508191  0.03855326  0.09715083  1  0  -0.086137  -0.094066  0  3.978027  0
C  C74  1  0.96517769  0.81120383  0.73871588  1  0  -0.02966  -0.045739  0  3.951916  0
C  C75  1  0.03482050  0.18879915  0.26128711  1  0  -0.029715  -0.045768  0  3.951927  0
C  C76  1  0.95716787  0.82089239  0.63408984  1  0  -0.08868  -0.092576  0  3.972217  0
C  C77  1  0.04283279  0.17910623  0.36591089  1  0  -0.088711  -0.092605  0  3.972216  0
C  C78  1  0.74918943  0.69710271  0.76658287  1  0  -0.064061  -0.211853  0  3.89281  0
C  C79  1  0.25080955  0.30289852  0.23341826  1  0  -0.06412  -0.211885  0  3.892864  0
C  C80  1  0.30213142  0.02633490  0.66185397  1  0  -0.086425  -0.09653  0  3.978344  0
C  C81  1  0.69786671  0.97366720  0.33814419  1  0  -0.086427  -0.096545  0  3.978549  0
C  C82  1  0.16348486  0.72016935  0.92546502  1  0  -0.091634  -0.101765  0  3.979408  0
C  C83  1  0.83651304  0.27983190  0.07454044  1  0  -0.091711  -0.101876  0  3.979337  0
C  C84  1  0.48576622  0.77035797  0.86223686  1  0  -0.089112  -0.09237  0  3.973035  0
C  C85  1  0.51423311  0.22963801  0.13775827  1  0  -0.089127  -0.092395  0  3.973119  0
C  C86  1  0.97894882  0.02214938  0.81847726  1  0  -0.09306  -0.085096  0  4.005416  0
C  C87  1  0.02104830  0.97785271  0.18151993  1  0  -0.093049  -0.085158  0  4.005431  0
C  C88  1  0.38672438  0.20825108  0.64996944  1  0  -0.09175  -0.077303  0  3.978113  0
C  C89  1  0.61328027  0.79175453  0.35003872  1  0  -0.091739  -0.077209  0  3.977956  0
C  C90  1  0.67328481  0.96303293  0.01021792  1  0  -0.090855  -0.075017  0  3.991887  0
C  C91  1  0.32671317  0.03696133  0.98978174  1  0  -0.090779  -0.074909  0  3.99189  0
C  C92  1  0.55578810  0.77184964  0.96977219  1  0  -0.091233  -0.084479  0  4.001939  0
C  C93  1  0.44421112  0.22814547  0.03022190  1  0  -0.091233  -0.084494  0  4.001839  0
C  C94  1  0.97815002  0.91274752  0.83121014  1  0  -0.090415  -0.107762  0  3.999951  0
C  C95  1  0.02184616  0.08725546  0.16879014  1  0  -0.090375  -0.107671  0  3.999944  0
C  C96  1  0.53775962  0.05817179  0.65955002  1  0  -0.085893  -0.090025  0  3.951606  0
C  C97  1  0.46224272  0.94183119  0.34044929  1  0  -0.085879  -0.090113  0  3.95141  0
C  C98  1  0.95737308  0.93072957  0.62149331  1  0  -0.09176  -0.076092  0  3.988901  0
C  C99  1  0.04262929  0.06926642  0.37850399  1  0  -0.091729  -0.076096  0  3.988839  0
C  C100  1  0.17920026  0.69324915  0.10274434  1  0  -0.097584  -0.086203  0  4.010944  0
C  C101  1  0.82080064  0.30674423  0.89725872  1  0  -0.097615  -0.086233  0  4.011002  0
C  C102  1  0.28026657  0.13686848  0.65518143  1  0  -0.091054  -0.078157  0  3.996704  0
C  C103  1  0.71973507  0.86313712  0.34482153  1  0  -0.091026  -0.078121  0  3.996736  0
C  C104  1  0.65031143  0.86748721  0.04336392  1  0  -0.088784  -0.076287  0  3.988368  0
C  C105  1  0.34969045  0.13250529  0.95663227  1  0  -0.088786  -0.076234  0  3.988504  0
C  C106  1  0.51464791  0.16795699  0.65083537  1  0  -0.094176  -0.084421  0  3.997092  0
C  C107  1  0.48535765  0.83204775  0.34917122  1  0  -0.094194  -0.084317  0  3.996806  0
C  C108  1  0.24082862  0.72804471  0.03295931  1  0  -0.096822  -0.085435  0  4.01051  0
C  C109  1  0.75917163  0.27195129  0.96704362  1  0  -0.096744  -0.085361  0  4.010373  0
C  C110  1  0.96218506  0.64133690  0.95669981  1  0  -0.089513  -0.099708  0  3.97743  0
C  C111  1  0.03781261  0.35866260  0.04330358  1  0  -0.089559  -0.099794  0  3.977426  0
C  C112  1  0.03996041  0.64966964  0.06428862  1  0  -0.092376  -0.075576  0  4.011359  0
C  C113  1  0.96003727  0.35032985  0.93571401  1  0  -0.092422  -0.075727  0  4.011357  0
C  C114  1  0.96655872  0.03098206  0.71293927  1  0  -0.092345  -0.078743  0  3.981635  0
C  C115  1  0.03344113  0.96901741  0.28705545  1  0  -0.09236  -0.078716  0  3.981603  0
C  C116  1  0.62523757  0.81420997  0.65430559  1  0  -0.064266  -0.210135  0  3.873888  0
C  C117  1  0.37476487  0.18579388  0.34569552  1  0  -0.064259  -0.210035  0  3.873772  0
I  I118  1  0.79591161  0.48355630  0.39056264  1  0  -0.169345  -0.237468  0  2.230318  0
I  I119  1  0.20408546  0.51644581  0.60943833  1  0  -0.169348  -0.237513  0  2.230392  0
I  I120  1  0.88411206  0.30091974  0.61283781  1  0  -0.204303  -0.322804  0  1.887429  0
I  I121  1  0.11588379  0.69908061  0.38715860  1  0  -0.20428  -0.32278  0  1.887453  0
N  N122  1  0.65617871  0.70294685  0.66512962  1  0  -0.293906  -0.033163  0  3.700084  0
N  N123  1  0.34382234  0.29705438  0.33487044  1  0  -0.293937  -0.033227  0  3.700224  0
