# generated using pymatgen
data_MnH20C18(NO2)4
_symmetry_space_group_name_H-M   'P 1'
_cell_length_a   5.27849675
_cell_length_b   9.64235949
_cell_length_c   10.50892607
_cell_angle_alpha   68.67185255
_cell_angle_beta   75.73276929
_cell_angle_gamma   83.36648053
_symmetry_Int_Tables_number   1
_chemical_formula_structural   MnH20C18(NO2)4
_chemical_formula_sum   'Mn1 H20 C18 N4 O8'
_cell_volume   482.67650740
_cell_formula_units_Z   1
loop_
 _symmetry_equiv_pos_site_id
 _symmetry_equiv_pos_as_xyz
  1  'x, y, z'
loop_
 _atom_site_type_symbol
 _atom_site_label
 _atom_site_symmetry_multiplicity
 _atom_site_fract_x
 _atom_site_fract_y
 _atom_site_fract_z
 _atom_site_occupancy
 _atom_site_pbe_cm5_charge
 _atom_site_pbe_ddec_charge
 _atom_site_pbe_ddec_spin_density
 _atom_site_pbe_ddec_sum_bond_order
 _atom_site_pbe_magmom
Mn  Mn0  1  0.49999621  0.99999882  0.50000553  1  0.621888  1.097294  -4.595745  2.355098  -4.397
H  H1  1  0.27078107  0.96840110  0.32255849  1  0.290842  0.372193  -0.001012  0.976356  -0.001
H  H2  1  0.72921562  0.03159795  0.67744348  1  0.290834  0.372165  -0.001012  0.97638  -0.001
H  H3  1  0.05962568  0.87554384  0.46533579  1  0.291147  0.382426  -0.001014  0.961764  -0.003
H  H4  1  0.94036693  0.12445965  0.53466414  1  0.291149  0.38243  -0.001014  0.961763  -0.003
H  H5  1  0.02856878  0.30774571  0.13374844  1  0.117013  0.12894  7e-05  1.023702  0.0
H  H6  1  0.97143979  0.69224998  0.86625332  1  0.117012  0.128971  7e-05  1.023703  0.0
H  H7  1  0.36933132  0.41513372  0.91260512  1  0.134487  0.117139  -0.000289  0.989405  0.0
H  H8  1  0.63068101  0.58486424  0.08739731  1  0.134488  0.117174  -0.000289  0.989378  0.0
H  H9  1  0.08193418  0.19545348  0.70570645  1  0.136692  0.120437  1.6e-05  1.006104  0.0
H  H10  1  0.91806425  0.80455218  0.29429012  1  0.136683  0.120419  1.6e-05  1.006135  0.0
H  H11  1  0.71509638  0.08690865  0.91575862  1  0.116456  0.138524  -0.000191  1.024935  0.0
H  H12  1  0.28490012  0.91309592  0.08423951  1  0.116453  0.138523  -0.000191  1.024992  0.0
H  H13  1  0.52529522  0.25975277  0.65148542  1  0.116428  0.113217  9.9e-05  1.02971  0.0
H  H14  1  0.47470734  0.74024627  0.34851586  1  0.11643  0.113218  9.9e-05  1.029683  0.0
H  H15  1  0.60745208  0.38824176  0.72093429  1  0.107903  0.085113  -0.000147  1.040034  0.0
H  H16  1  0.39255036  0.61176165  0.27906260  1  0.107893  0.085081  -0.000147  1.040038  0.0
H  H17  1  0.32718373  0.58508980  0.59043587  1  0.099788  0.103843  6.9e-05  0.983198  0.0
H  H18  1  0.67281905  0.41490904  0.40955785  1  0.099788  0.103828  6.9e-05  0.983163  0.0
H  H19  1  0.21408404  0.45547448  0.53384147  1  0.093548  0.087446  -0.000144  1.006548  0.0
H  H20  1  0.78591289  0.54452221  0.46615654  1  0.093549  0.087392  -0.000144  1.006582  0.0
C  C21  1  0.74337201  0.69481541  0.65235600  1  0.277004  0.568784  -0.026265  4.334943  -0.024
C  C22  1  0.25662263  0.30518587  0.34764542  1  0.277021  0.568855  -0.026269  4.334783  -0.024
C  C23  1  0.65289011  0.10751680  0.17436601  1  0.210595  0.55334  -0.009913  4.239637  -0.008
C  C24  1  0.34711014  0.89248791  0.82563735  1  0.210599  0.553205  -0.009923  4.239775  -0.008
C  C25  1  0.84432066  0.18900072  0.04150278  1  0.017609  0.024602  -0.010714  3.906356  -0.008
C  C26  1  0.15568370  0.81100487  0.95849122  1  0.017592  0.024639  -0.010731  3.906383  -0.008
C  C27  1  0.02688790  0.28387902  0.04044840  1  -0.059773  -0.105014  -0.002092  3.92535  -0.001
C  C28  1  0.97311466  0.71612002  0.95955289  1  -0.059773  -0.105061  -0.002096  3.92535  -0.001
C  C29  1  0.21800697  0.34262236  0.92068520  1  0.0715  0.047932  -0.008682  3.81612  -0.006
C  C30  1  0.78199772  0.65737437  0.07931379  1  0.071471  0.047885  -0.008694  3.81614  -0.006
C  C31  1  0.05336076  0.21832849  0.80267320  1  0.068198  0.051134  -0.002058  3.808419  -0.001
C  C32  1  0.94664143  0.78167837  0.19732632  1  0.068223  0.051202  -0.002061  3.808438  -0.001
C  C33  1  0.85490562  0.16007066  0.91867774  1  -0.071429  -0.144116  -0.004766  3.939309  -0.003
C  C34  1  0.14509281  0.83993287  0.08132340  1  -0.071434  -0.144138  -0.004771  3.939382  -0.003
C  C35  1  0.45414305  0.35578652  0.68439985  1  -0.061576  -0.105564  -0.000554  3.860402  0.0
C  C36  1  0.54585760  0.64421247  0.31559977  1  -0.061582  -0.105478  -0.000554  3.860396  0.0
C  C37  1  0.38265102  0.48477079  0.56225284  1  -0.159959  -0.156494  -0.000842  3.915751  -0.001
C  C38  1  0.61734779  0.51522704  0.43774550  1  -0.159972  -0.156474  -0.000843  3.91578  -0.001
N  N39  1  0.74999741  0.79786000  0.54396732  1  -0.445762  -0.730078  -0.027875  3.154255  -0.004
N  N40  1  0.24999752  0.20213354  0.45603871  1  -0.445836  -0.730208  -0.02788  3.154031  -0.004
N  N41  1  0.23297426  0.30608333  0.80604283  1  -0.206495  0.11122  -0.009809  3.724166  -0.01
N  N42  1  0.76702836  0.69391672  0.19395429  1  -0.20651  0.111072  -0.009826  3.724086  -0.01
O  O43  1  0.72550973  0.08487652  0.28771004  1  -0.302012  -0.544656  -0.030645  2.268053  -0.014
O  O44  1  0.27447885  0.91513029  0.71228824  1  -0.302003  -0.544613  -0.030643  2.267835  -0.014
O  O45  1  0.44608628  0.06402867  0.16203106  1  -0.306339  -0.540902  -0.007849  2.19893  -0.009
O  O46  1  0.55390865  0.93596914  0.83796679  1  -0.306345  -0.540799  -0.007856  2.199177  -0.009
O  O47  1  0.24743545  0.90032545  0.42264431  1  -0.570951  -0.76925  -0.043962  2.171445  -0.027
O  O48  1  0.75256309  0.09967798  0.57735304  1  -0.570943  -0.769224  -0.043965  2.171456  -0.027
O  O49  1  0.73719983  0.58984755  0.76089606  1  -0.275827  -0.458811  -0.013513  2.199473  -0.014
O  O50  1  0.26279134  0.41014372  0.23910930  1  -0.275761  -0.458759  -0.013515  2.199635  -0.014
