# generated using pymatgen
data_ZnH18C28(NO)4
_symmetry_space_group_name_H-M   'P 1'
_cell_length_a   9.23593217
_cell_length_b   11.93400511
_cell_length_c   13.75685706
_cell_angle_alpha   69.39406729
_cell_angle_beta   73.84378372
_cell_angle_gamma   76.35589737
_symmetry_Int_Tables_number   1
_chemical_formula_structural   ZnH18C28(NO)4
_chemical_formula_sum   'Zn2 H36 C56 N8 O8'
_cell_volume   1347.09663453
_cell_formula_units_Z   2
loop_
 _symmetry_equiv_pos_site_id
 _symmetry_equiv_pos_as_xyz
  1  'x, y, z'
loop_
 _atom_site_type_symbol
 _atom_site_label
 _atom_site_symmetry_multiplicity
 _atom_site_fract_x
 _atom_site_fract_y
 _atom_site_fract_z
 _atom_site_occupancy
 _atom_site_hle17_bader_spin_density
 _atom_site_hle17_ddec_charge
 _atom_site_hle17_ddec_spin_density
 _atom_site_hle17_ddec_sum_bond_order
 _atom_site_hle17_magmom
 _atom_site_hse06_10hf_bader_spin_density
 _atom_site_hse06_10hf_ddec_charge
 _atom_site_hse06_10hf_ddec_spin_density
 _atom_site_hse06_10hf_ddec_sum_bond_order
 _atom_site_hse06_10hf_magmom
 _atom_site_hse06_bader_spin_density
 _atom_site_hse06_ddec_charge
 _atom_site_hse06_ddec_spin_density
 _atom_site_hse06_ddec_sum_bond_order
 _atom_site_hse06_magmom
 _atom_site_pbe_bader_spin_density
 _atom_site_pbe_cm5_charge
 _atom_site_pbe_ddec_charge
 _atom_site_pbe_ddec_spin_density
 _atom_site_pbe_ddec_sum_bond_order
 _atom_site_pbe_magmom
Zn  Zn0  1  0.44953136  0.83003597  0.19600622  1  0  1.032745  0  1.831898  0  0  0.841604  0  2.314181  0  0  0.889112  0  2.257908  0  0  0.699286  0.808363  0  2.352861  0
Zn  Zn1  1  0.55047101  0.16996210  0.80399344  1  0  1.032727  0  1.831999  0  0  0.841585  0  2.314309  0  0  0.889089  0  2.258034  0  0  0.699294  0.808354  0  2.352997  0
H  H2  1  0.90317298  0.96310375  0.86393301  1  0  0.103937  0  0.945739  0  0  0.113082  0  1.007783  0  0  0.116986  0  1.004867  0  0  0.101995  0.110219  0  1.009971  0
H  H3  1  0.09682951  0.03689800  0.13605316  1  0  0.103993  0  0.945776  0  0  0.113133  0  1.007809  0  0  0.117036  0  1.004893  0  0  0.102  0.110272  0  1.009989  0
H  H4  1  0.85492026  0.94947482  0.18740687  1  0  0.092558  0  0.952521  0  0  0.10499  0  1.011512  0  0  0.107804  0  1.01032  0  0  0.099976  0.102944  0  1.012447  0
H  H5  1  0.14508781  0.05052145  0.81258204  1  0  0.092659  0  0.952543  0  0  0.105141  0  1.011466  0  0  0.107935  0  1.010305  0  0  0.100017  0.103096  0  1.012406  0
H  H6  1  0.50996927  0.84492258  0.94640876  1  0  0.12513  0  0.944846  0  0  0.134521  0  1.003466  0  0  0.137882  0  0.998702  0  0  0.145289  0.131988  0  1.006979  0
H  H7  1  0.49002455  0.15509006  0.05357944  1  0  0.125133  0  0.944849  0  0  0.13452  0  1.003477  0  0  0.137881  0  0.998714  0  0  0.145269  0.131985  0  1.006996  0
H  H8  1  0.14141999  0.72359608  0.29213698  1  0  0.107801  0  0.968306  0  0  0.118004  0  1.030116  0  0  0.121345  0  1.027742  0  0  0.104536  0.115573  0  1.031942  0
H  H9  1  0.85860890  0.27639365  0.70786724  1  0  0.107818  0  0.968248  0  0  0.118038  0  1.030057  0  0  0.121377  0  1.027685  0  0  0.104571  0.115612  0  1.031877  0
H  H10  1  0.92676335  0.61793967  0.30798458  1  0  0.077409  0  1.012275  0  0  0.086913  0  1.077569  0  0  0.088009  0  1.079981  0  0  0.090119  0.086061  0  1.076023  0
H  H11  1  0.07324525  0.38206370  0.69202896  1  0  0.077236  0  1.012396  0  0  0.086748  0  1.077695  0  0  0.087842  0  1.080108  0  0  0.090067  0.085942  0  1.076101  0
H  H12  1  0.88380104  0.58791217  0.14993744  1  0  0.087027  0  0.950796  0  0  0.098243  0  1.008606  0  0  0.100843  0  1.008027  0  0  0.096398  0.096373  0  1.009096  0
H  H13  1  0.11618313  0.41210764  0.85007666  1  0  0.087064  0  0.950687  0  0  0.098372  0  1.008405  0  0  0.100975  0  1.00782  0  0  0.096439  0.096484  0  1.008912  0
H  H14  1  0.05682793  0.65342465  0.97283357  1  0  0.11046  0  0.941554  0  0  0.123311  0  0.995179  0  0  0.12651  0  0.993635  0  0  0.108616  0.120991  0  0.996416  0
H  H15  1  0.94315127  0.34658435  0.02717753  1  0  0.110413  0  0.941493  0  0  0.123375  0  0.99499  0  0  0.126576  0  0.993441  0  0  0.108611  0.121044  0  0.996244  0
H  H16  1  0.51950270  0.43209054  0.82026813  1  0  0.097711  0  0.936471  0  0  0.10727  0  0.996935  0  0  0.109734  0  0.994024  0  0  0.141367  0.105503  0  0.99891  0
H  H17  1  0.48050406  0.56790207  0.17973232  1  0  0.097704  0  0.936467  0  0  0.107277  0  0.996915  0  0  0.109741  0  0.994004  0  0  0.141392  0.105506  0  0.998889  0
H  H18  1  0.38827388  0.23630242  0.59771477  1  0  0.129486  0  0.953839  0  0  0.140078  0  1.009901  0  0  0.143687  0  1.007105  0  0  0.11257  0.137397  0  1.012115  0
H  H19  1  0.61172819  0.76369112  0.40228633  1  0  0.129526  0  0.953819  0  0  0.140137  0  1.009869  0  0  0.143737  0  1.007084  0  0  0.112603  0.137464  0  1.012067  0
H  H20  1  0.23754566  0.36286421  0.45754354  1  0  0.093144  0  0.938334  0  0  0.107944  0  0.989569  0  0  0.110585  0  0.989212  0  0  0.103437  0.106049  0  0.989926  0
H  H21  1  0.76246141  0.63713292  0.54245621  1  0  0.093188  0  0.938303  0  0  0.107994  0  0.98954  0  0  0.110632  0  0.989187  0  0  0.103457  0.106095  0  0.989901  0
H  H22  1  0.15155743  0.58096111  0.43234858  1  0  0.086512  0  0.972529  0  0  0.099895  0  1.030449  0  0  0.101862  0  1.030348  0  0  0.099365  0.098482  0  1.030586  0
H  H23  1  0.84846331  0.41904049  0.56764128  1  0  0.086516  0  0.972585  0  0  0.099884  0  1.030497  0  0  0.101859  0  1.0304  0  0  0.099352  0.098467  0  1.030635  0
H  H24  1  0.21426254  0.68553747  0.54018370  1  0  0.113355  0  0.950627  0  0  0.123506  0  1.009753  0  0  0.125874  0  1.009555  0  0  0.109387  0.121786  0  1.01002  0
H  H25  1  0.78575554  0.31446051  0.45980998  1  0  0.113317  0  0.950571  0  0  0.123433  0  1.009743  0  0  0.125798  0  1.009542  0  0  0.10934  0.121722  0  1.010008  0
H  H26  1  0.43743226  0.75950403  0.55440086  1  0  0.114682  0  0.981031  0  0  0.120485  0  1.05145  0  0  0.123269  0  1.050672  0  0  0.106825  0.118495  0  1.052085  0
H  H27  1  0.56257909  0.24047588  0.44560255  1  0  0.114697  0  0.981084  0  0  0.120444  0  1.051555  0  0  0.123224  0  1.050782  0  0  0.10687  0.118464  0  1.05218  0
H  H28  1  0.45362969  0.94296369  0.59426355  1  0  0.104014  0  0.952631  0  0  0.114249  0  1.011705  0  0  0.117243  0  1.009302  0  0  0.108948  0.112017  0  1.013646  0
H  H29  1  0.54636234  0.05702814  0.40573206  1  0  0.104067  0  0.952666  0  0  0.114286  0  1.011727  0  0  0.11728  0  1.009323  0  0  0.108973  0.112053  0  1.013664  0
H  H30  1  0.39784885  0.94624543  0.78010212  1  0  0.132444  0  0.974585  0  0  0.137562  0  1.042197  0  0  0.141633  0  1.039361  0  0  0.112068  0.13447  0  1.044576  0
H  H31  1  0.60214448  0.05375182  0.21989304  1  0  0.132374  0  0.974669  0  0  0.137518  0  1.04227  0  0  0.141581  0  1.039436  0  0  0.112031  0.13443  0  1.044644  0
H  H32  1  0.31647523  0.57547326  0.89162885  1  0  0.118211  0  0.946288  0  0  0.128772  0  1.006131  0  0  0.132279  0  1.003973  0  0  0.112226  0.126214  0  1.007773  0
H  H33  1  0.68350910  0.42452490  0.10837508  1  0  0.118301  0  0.946137  0  0  0.12882  0  1.006032  0  0  0.132344  0  1.003855  0  0  0.112229  0.126264  0  1.007666  0
H  H34  1  0.99172526  0.90268881  0.36916790  1  0  0.10051  0  0.948319  0  0  0.111871  0  1.0061  0  0  0.115376  0  1.004001  0  0  0.102569  0.109349  0  1.00763  0
H  H35  1  0.00826325  0.09731114  0.63083466  1  0  0.10051  0  0.94842  0  0  0.111869  0  1.006187  0  0  0.115373  0  1.004088  0  0  0.102573  0.109354  0  1.007718  0
H  H36  1  0.24945879  0.03252391  0.51176425  1  0  0.09303  0  0.964346  0  0  0.101655  0  1.028397  0  0  0.10499  0  1.026422  0  0  0.099764  0.099265  0  1.029871  0
H  H37  1  0.75052736  0.96748328  0.48824021  1  0  0.092986  0  0.96431  0  0  0.10159  0  1.028399  0  0  0.104925  0  1.026427  0  0  0.09973  0.099196  0  1.02987  0
C  C38  1  0.72138252  0.89800098  0.05779226  1  0  0.635063  0  3.930896  0  0  0.585104  0  4.228628  0  0  0.618824  0  4.221714  0  0  0.197026  0.562217  0  4.232484  0
C  C39  1  0.27862095  0.10201519  0.94219878  1  0  0.635245  0  3.930944  0  0  0.585342  0  4.228722  0  0  0.619071  0  4.22179  0  0  0.19698  0.562464  0  4.232569  0
C  C40  1  0.86494982  0.95105279  0.02866234  1  0  -0.060241  0  3.757308  0  0  -0.037151  0  3.991209  0  0  -0.044096  0  4.014541  0  0  -0.021459  -0.032624  0  3.975531  0
C  C41  1  0.13504199  0.04895174  0.97132437  1  0  -0.059937  0  3.757185  0  0  -0.037136  0  3.991469  0  0  -0.044088  0  4.014792  0  0  -0.02129  -0.032608  0  3.97579  0
C  C42  1  0.94745753  0.97843978  0.92309287  1  0  -0.073023  0  3.729865  0  0  -0.097354  0  3.984003  0  0  -0.098084  0  4.003399  0  0  -0.088609  -0.096686  0  3.970767  0
C  C43  1  0.05254019  0.02155834  0.07690261  1  0  -0.073269  0  3.730006  0  0  -0.097515  0  3.984247  0  0  -0.098239  0  4.003644  0  0  -0.088669  -0.096847  0  3.971006  0
C  C44  1  0.91854569  0.97277350  0.10527043  1  0  -0.079058  0  3.74819  0  0  -0.105915  0  4.004915  0  0  -0.106596  0  4.025763  0  0  -0.090888  -0.105384  0  3.990762  0
C  C45  1  0.08146258  0.02722818  0.89471970  1  0  -0.079437  0  3.74855  0  0  -0.10626  0  4.005381  0  0  -0.106922  0  4.026244  0  0  -0.091035  -0.105731  0  3.991236  0
C  C46  1  0.40708728  0.80690711  0.99271632  1  0  0.233235  0  3.608264  0  0  0.164582  0  3.880937  0  0  0.183707  0  3.88802  0  0  0.172353  0.152122  0  3.875723  0
C  C47  1  0.59290545  0.19310008  0.00727957  1  0  0.233391  0  3.608397  0  0  0.164738  0  3.881055  0  0  0.18386  0  3.888141  0  0  0.172479  0.152276  0  3.875845  0
C  C48  1  0.20289792  0.71554868  0.03706967  1  0  0.102887  0  3.764167  0  0  0.094418  0  4.006846  0  0  0.09762  0  4.030291  0  0  0.092652  0.09225  0  3.991015  0
C  C49  1  0.79710121  0.28444938  0.96293573  1  0  0.102855  0  3.764315  0  0  0.094456  0  4.006916  0  0  0.097657  0  4.030366  0  0  0.092605  0.092275  0  3.9911  0
C  C50  1  0.22559183  0.73641156  0.12642065  1  0  0.142305  0  3.836249  0  0  0.139107  0  4.080055  0  0  0.141813  0  4.105595  0  0  0.085787  0.137217  0  4.062817  0
C  C51  1  0.77441737  0.26358645  0.87357986  1  0  0.142274  0  3.836349  0  0  0.139028  0  4.080174  0  0  0.141737  0  4.105709  0  0  0.085705  0.137144  0  4.062939  0
C  C52  1  0.12614367  0.70224809  0.22523956  1  0  -0.143871  0  3.752877  0  0  -0.162263  0  4.002667  0  0  -0.165569  0  4.02296  0  0  -0.092659  -0.159962  0  3.988926  0
C  C53  1  0.87387035  0.29774897  0.77476538  1  0  -0.143966  0  3.752687  0  0  -0.162368  0  4.002505  0  0  -0.165676  0  4.0228  0  0  -0.092649  -0.160077  0  3.98878  0
C  C54  1  0.00621126  0.64593618  0.23211267  1  0  -0.076895  0  3.789422  0  0  -0.092533  0  4.039928  0  0  -0.094663  0  4.063604  0  0  -0.101125  -0.09097  0  4.023828  0
C  C55  1  0.99379749  0.35406542  0.76789484  1  0  -0.076543  0  3.789215  0  0  -0.092187  0  4.03975  0  0  -0.094314  0  4.063424  0  0  -0.101062  -0.09066  0  4.023613  0
C  C56  1  0.98260366  0.62787588  0.14221170  1  0  -0.057608  0  3.77291  0  0  -0.073644  0  4.028788  0  0  -0.075694  0  4.050993  0  0  -0.094394  -0.072252  0  4.013737  0
C  C57  1  0.01739069  0.37213033  0.85779652  1  0  -0.057733  0  3.772986  0  0  -0.073865  0  4.028942  0  0  -0.075919  0  4.051151  0  0  -0.094457  -0.072455  0  4.01389  0
C  C58  1  0.07944887  0.66321966  0.04273008  1  0  -0.143641  0  3.770011  0  0  -0.164812  0  4.024758  0  0  -0.167768  0  4.045147  0  0  -0.093558  -0.162783  0  4.011013  0
C  C59  1  0.92053853  0.33678750  0.95727851  1  0  -0.143658  0  3.77005  0  0  -0.164947  0  4.024798  0  0  -0.167904  0  4.045194  0  0  -0.093564  -0.16291  0  4.011052  0
C  C60  1  0.35141192  0.76173680  0.84626255  1  0  0.205518  0  3.793056  0  0  0.201211  0  4.038889  0  0  0.206743  0  4.06227  0  0  0.099204  0.197488  0  4.022969  0
C  C61  1  0.64857469  0.23826135  0.15374166  1  0  0.205454  0  3.793196  0  0  0.201197  0  4.038947  0  0  0.206729  0  4.062332  0  0  0.099279  0.19747  0  4.023039  0
C  C62  1  0.46453860  0.43699099  0.75844313  1  0  0.207105  0  3.662602  0  0  0.142273  0  3.935328  0  0  0.159936  0  3.944379  0  0  0.163747  0.130821  0  3.928692  0
C  C63  1  0.53546442  0.56300345  0.24155678  1  0  0.207083  0  3.662777  0  0  0.142219  0  3.935499  0  0  0.159884  0  3.944549  0  0  0.163676  0.130769  0  3.928856  0
C  C64  1  0.38592075  0.39167896  0.64410539  1  0  0.150662  0  3.805092  0  0  0.148138  0  4.050665  0  0  0.150738  0  4.074836  0  0  0.092191  0.146392  0  4.034303  0
C  C65  1  0.61408661  0.60831636  0.35589340  1  0  0.150747  0  3.804824  0  0  0.148211  0  4.050467  0  0  0.150811  0  4.074635  0  0  0.092242  0.146471  0  4.034099  0
C  C66  1  0.35045372  0.33333456  0.58358528  1  0  -0.136629  0  3.727005  0  0  -0.155444  0  3.977749  0  0  -0.157395  0  3.996272  0  0  -0.086056  -0.153963  0  3.965154  0
C  C67  1  0.64954718  0.66665899  0.41641460  1  0  -0.136756  0  3.726947  0  0  -0.155582  0  3.977739  0  0  -0.157523  0  3.996257  0  0  -0.086135  -0.154108  0  3.965134  0
C  C68  1  0.26711186  0.40458136  0.50692177  1  0  -0.081268  0  3.786286  0  0  -0.09982  0  4.045835  0  0  -0.102299  0  4.067414  0  0  -0.097663  -0.098094  0  4.031065  0
C  C69  1  0.73289465  0.59541217  0.49307555  1  0  -0.081315  0  3.786392  0  0  -0.099893  0  4.045964  0  0  -0.10237  0  4.067546  0  0  -0.097701  -0.09816  0  4.031187  0
C  C70  1  0.21848586  0.52958708  0.49212269  1  0  -0.067985  0  3.779533  0  0  -0.086052  0  4.037706  0  0  -0.087583  0  4.059958  0  0  -0.094998  -0.084904  0  4.02252  0
C  C71  1  0.78152270  0.47041368  0.50787203  1  0  -0.068044  0  3.779764  0  0  -0.086065  0  4.037869  0  0  -0.087608  0  4.060131  0  0  -0.094956  -0.084912  0  4.022686  0
C  C72  1  0.25263826  0.58897587  0.55208341  1  0  -0.140358  0  3.746329  0  0  -0.159031  0  3.999324  0  0  -0.161844  0  4.019277  0  0  -0.09103  -0.157122  0  3.98585  0
C  C73  1  0.74737209  0.41102125  0.44791205  1  0  -0.14026  0  3.746494  0  0  -0.158896  0  3.999496  0  0  -0.161706  0  4.019448  0  0  -0.090998  -0.157001  0  3.986041  0
C  C74  1  0.33822813  0.51774825  0.62780943  1  0  0.109987  0  3.749265  0  0  0.099542  0  3.99396  0  0  0.103365  0  4.016287  0  0  0.097904  0.096967  0  3.978894  0
C  C75  1  0.66177868  0.48224434  0.37219321  1  0  0.109983  0  3.749304  0  0  0.09948  0  3.994036  0  0  0.103307  0  4.016358  0  0  0.097888  0.096899  0  3.978985  0
C  C76  1  0.37896694  0.65571071  0.72097248  1  0  0.191889  0  3.807543  0  0  0.188229  0  4.053073  0  0  0.193779  0  4.075789  0  0  0.092806  0.184472  0  4.037676  0
C  C77  1  0.62103072  0.34428284  0.27903313  1  0  0.191904  0  3.807223  0  0  0.188255  0  4.052694  0  0  0.193806  0  4.07541  0  0  0.092822  0.184495  0  4.037308  0
C  C78  1  0.41351052  0.75930222  0.63644685  1  0  -0.148124  0  3.719881  0  0  -0.173424  0  3.972332  0  0  -0.17742  0  3.993451  0  0  -0.087043  -0.170908  0  3.958287  0
C  C79  1  0.58648817  0.24069134  0.36355491  1  0  -0.148097  0  3.719466  0  0  -0.173372  0  3.971957  0  0  -0.177369  0  3.993075  0  0  -0.087089  -0.170868  0  3.957921  0
C  C80  1  0.42103526  0.86274072  0.65878118  1  0  -0.019671  0  3.744923  0  0  -0.030816  0  3.991179  0  0  -0.031777  0  4.012895  0  0  -0.075158  -0.030038  0  3.976619  0
C  C81  1  0.57896657  0.13724741  0.34121726  1  0  -0.019791  0  3.744838  0  0  -0.030874  0  3.991078  0  0  -0.031833  0  4.012791  0  0  -0.075147  -0.030092  0  3.976517  0
C  C82  1  0.39156691  0.86501168  0.76315472  1  0  -0.141579  0  3.685363  0  0  -0.164659  0  3.931473  0  0  -0.169332  0  3.952618  0  0  -0.082003  -0.161649  0  3.917495  0
C  C83  1  0.60842524  0.13498013  0.23684524  1  0  -0.141447  0  3.685319  0  0  -0.164623  0  3.931478  0  0  -0.169278  0  3.952602  0  0  -0.082024  -0.161619  0  3.917504  0
C  C84  1  0.34487063  0.65638370  0.82627188  1  0  -0.24152  0  3.729187  0  0  -0.271403  0  3.980549  0  0  -0.276389  0  3.999205  0  0  -0.095143  -0.26783  0  3.967795  0
C  C85  1  0.65512515  0.34360717  0.17373055  1  0  -0.241529  0  3.729263  0  0  -0.271405  0  3.980608  0  0  -0.276411  0  3.999265  0  0  -0.095169  -0.267824  0  3.96784  0
C  C86  1  0.28265342  0.92123617  0.36551859  1  0  0.631507  0  3.933348  0  0  0.584744  0  4.224782  0  0  0.619021  0  4.21661  0  0  0.20058  0.561443  0  4.22954  0
C  C87  1  0.71733195  0.07877553  0.63448683  1  0  0.631687  0  3.932845  0  0  0.584896  0  4.224393  0  0  0.619172  0  4.216219  0  0  0.200692  0.5616  0  4.229144  0
C  C88  1  0.13577389  0.96299821  0.43377094  1  0  -0.057586  0  3.757447  0  0  -0.034512  0  3.986845  0  0  -0.041101  0  4.009663  0  0  -0.019049  -0.030145  0  3.971413  0
C  C89  1  0.86422458  0.03700979  0.56623374  1  0  -0.057708  0  3.757306  0  0  -0.034708  0  3.986848  0  0  -0.041295  0  4.009665  0  0  -0.019193  -0.030341  0  3.971414  0
C  C90  1  0.99455468  0.94497485  0.42697490  1  0  -0.083376  0  3.74894  0  0  -0.104632  0  3.99335  0  0  -0.105509  0  4.013404  0  0  -0.09113  -0.103976  0  3.979692  0
C  C91  1  0.00543651  0.05502959  0.57303013  1  0  -0.083311  0  3.748966  0  0  -0.104532  0  3.993382  0  0  -0.10541  0  4.013432  0  0  -0.091069  -0.10389  0  3.979744  0
C  C92  1  0.13946362  0.01867638  0.50724725  1  0  -0.0826  0  3.764685  0  0  -0.10437  0  4.011727  0  0  -0.10586  0  4.033219  0  0  -0.090007  -0.103226  0  3.997108  0
C  C93  1  0.86052884  0.98132715  0.49275708  1  0  -0.082492  0  3.764689  0  0  -0.104219  0  4.011751  0  0  -0.105714  0  4.033252  0  0  -0.089926  -0.103068  0  3.997111  0
N  N94  1  0.35427124  0.79298797  0.09569841  1  0  -0.435251  0  3.244679  0  0  -0.359054  0  3.545938  0  0  -0.38133  0  3.556395  0  0  -0.349884  -0.343989  0  3.538576  0
N  N95  1  0.64573531  0.20701188  0.90429989  1  0  -0.435297  0  3.244632  0  0  -0.359132  0  3.54595  0  0  -0.381405  0  3.556401  0  0  -0.349912  -0.344066  0  3.538587  0
N  N96  1  0.32080623  0.76195041  0.95331679  1  0  -0.150272  0  3.54466  0  0  -0.066934  0  3.762544  0  0  -0.084006  0  3.785874  0  0  -0.220937  -0.055507  0  3.746455  0
N  N97  1  0.67918268  0.23804772  0.04668842  1  0  -0.150348  0  3.545012  0  0  -0.066979  0  3.762763  0  0  -0.084053  0  3.786096  0  0  -0.220938  -0.055538  0  3.746673  0
N  N98  1  0.46449522  0.34481989  0.72635021  1  0  -0.412575  0  3.232807  0  0  -0.342173  0  3.532296  0  0  -0.36255  0  3.542796  0  0  -0.341498  -0.328348  0  3.524901  0
N  N99  1  0.53551350  0.65517364  0.27364522  1  0  -0.412474  0  3.232827  0  0  -0.3421  0  3.532352  0  0  -0.362475  0  3.542849  0  0  -0.341417  -0.328272  0  3.524944  0
N  N100  1  0.39004696  0.54333902  0.70280861  1  0  -0.147811  0  3.547155  0  0  -0.064582  0  3.764098  0  0  -0.081081  0  3.78694  0  0  -0.220912  -0.053534  0  3.748355  0
N  N101  1  0.60995596  0.45665632  0.29719396  1  0  -0.147951  0  3.547191  0  0  -0.064608  0  3.764034  0  0  -0.081109  0  3.786873  0  0  -0.220951  -0.053561  0  3.748293  0
O  O102  1  0.62425415  0.91597742  0.14264985  1  0  -0.667474  0  2.066772  0  0  -0.589548  0  2.348943  0  0  -0.618781  0  2.331192  0  0  -0.337202  -0.56886  0  2.360271  0
O  O103  1  0.37575112  0.08402421  0.85735470  1  0  -0.667528  0  2.066998  0  0  -0.589581  0  2.349163  0  0  -0.618816  0  2.331403  0  0  -0.337192  -0.568906  0  2.360508  0
O  O104  1  0.70083281  0.84189472  0.00269487  1  0  -0.61405  0  1.906508  0  0  -0.573042  0  2.121596  0  0  -0.594543  0  2.112057  0  0  -0.331475  -0.557958  0  2.127718  0
O  O105  1  0.29913836  0.15812438  0.99729439  1  0  -0.614106  0  1.90662  0  0  -0.573091  0  2.121692  0  0  -0.594592  0  2.112146  0  0  -0.331405  -0.558009  0  2.127813  0
O  O106  1  0.26645137  0.89137303  0.28721123  1  0  -0.657057  0  2.051428  0  0  -0.583683  0  2.328932  0  0  -0.612637  0  2.311963  0  0  -0.337217  -0.563289  0  2.339814  0
O  O107  1  0.73354932  0.10862865  0.71279203  1  0  -0.657082  0  2.051416  0  0  -0.58371  0  2.328955  0  0  -0.61266  0  2.311985  0  0  -0.337253  -0.563319  0  2.339839  0
O  O108  1  0.40778043  0.91543252  0.38698889  1  0  -0.610731  0  1.927591  0  0  -0.564365  0  2.150072  0  0  -0.586574  0  2.140653  0  0  -0.317918  -0.548845  0  2.156174  0
O  O109  1  0.59220928  0.08458552  0.61300866  1  0  -0.610846  0  1.927471  0  0  -0.564425  0  2.149921  0  0  -0.586633  0  2.140499  0  0  -0.317959  -0.548904  0  2.15602  0
