# generated using pymatgen
data_Zn4H24C42O13
_symmetry_space_group_name_H-M   'P 1'
_cell_length_a   24.28201221
_cell_length_b   24.40917360
_cell_length_c   24.43779914
_cell_angle_alpha   60.62470734
_cell_angle_beta   60.54313567
_cell_angle_gamma   60.51875388
_symmetry_Int_Tables_number   1
_chemical_formula_structural   Zn4H24C42O13
_chemical_formula_sum   'Zn8 H48 C84 O26'
_cell_volume   10372.06069181
_cell_formula_units_Z   2
loop_
 _symmetry_equiv_pos_site_id
 _symmetry_equiv_pos_as_xyz
  1  'x, y, z'
loop_
 _atom_site_type_symbol
 _atom_site_label
 _atom_site_symmetry_multiplicity
 _atom_site_fract_x
 _atom_site_fract_y
 _atom_site_fract_z
 _atom_site_occupancy
 _atom_site_pbe_bader_charge
 _atom_site_pbe_bader_spin_density
 _atom_site_pbe_cm5_charge
 _atom_site_pbe_ddec_charge
 _atom_site_pbe_ddec_spin_density
 _atom_site_pbe_ddec_sum_bond_order
 _atom_site_pbe_magmom
Zn  Zn0  1  0.96261044  0.10771048  0.95945258  1  1.324776  0  0.670085  0.963757  0  2.379401  0
Zn  Zn1  1  0.96143604  0.97847463  0.95681811  1  1.328259  0  0.670274  0.966645  0  2.366679  0
Zn  Zn2  1  0.96064750  0.97773613  0.08870135  1  1.305722  0  0.670106  0.963471  0  2.381204  0
Zn  Zn3  1  0.09260318  0.97691892  0.96065485  1  1.320313  0  0.669941  0.964809  0  2.373017  0
Zn  Zn4  1  0.52789710  0.41272559  0.52263188  1  1.316216  0  0.670066  0.964189  0  2.380823  0
Zn  Zn5  1  0.52730999  0.54457640  0.52312197  1  1.320013  0  0.669969  0.965276  0  2.373495  0
Zn  Zn6  1  0.39599931  0.54243867  0.52544445  1  1.304902  0  0.670083  0.964282  0  2.379508  0
Zn  Zn7  1  0.52561920  0.54116625  0.39409615  1  1.307473  0  0.670024  0.964116  0  2.382796  0
H  H8  1  0.87411569  0.24574480  0.81099621  1  0.088079  0  0.108198  0.113651  0  0.993805  0
H  H9  1  0.80473325  0.31818424  0.73679813  1  0.065574  0  0.102533  0.101576  0  1.002713  0
H  H10  1  0.74380473  0.15442955  0.79141195  1  0.054684  0  0.103106  0.101973  0  1.003829  0
H  H11  1  0.81611762  0.08179110  0.86273970  1  0.089811  0  0.108059  0.113081  0  0.992266  0
H  H12  1  0.74693720  0.20634039  0.68335929  1  0.081538  0  0.102719  0.101293  0  1.003892  0
H  H13  1  0.67360734  0.27836790  0.61302256  1  0.081155  0  0.107595  0.112745  0  0.992076  0
H  H14  1  0.62572640  0.44540093  0.66403255  1  0.109894  0  0.107641  0.11256  0  0.991637  0
H  H15  1  0.69659834  0.37348185  0.73684127  1  0.052651  0  0.102368  0.100994  0  1.003544  0
H  H16  1  0.81929468  0.24488760  0.05980145  1  0.108318  0  0.107836  0.112291  0  0.992154  0
H  H17  1  0.74687556  0.31642800  0.13180760  1  0.06586  0  0.103029  0.101877  0  1.003016  0
H  H18  1  0.79902880  0.14879844  0.29867132  1  0.050783  0  0.102859  0.101685  0  1.003488  0
H  H19  1  0.86877072  0.07719395  0.22669637  1  0.104125  0  0.108334  0.113681  0  0.99202  0
H  H20  1  0.69104674  0.20265576  0.35056443  1  0.040087  0  0.102966  0.10198  0  1.004141  0
H  H21  1  0.61983176  0.27452235  0.42231758  1  0.110462  0  0.108271  0.113377  0  0.99328  0
H  H22  1  0.67462781  0.44049826  0.25748836  1  0.091349  0  0.107855  0.113338  0  0.990692  0
H  H23  1  0.74898559  0.36834807  0.18613826  1  0.080287  0  0.102896  0.101908  0  1.002575  0
H  H24  1  0.06508318  0.24329269  0.86798477  1  0.106359  0  0.107919  0.112912  0  0.992685  0
H  H25  1  0.13690602  0.31524421  0.79538299  1  0.051411  0  0.102633  0.101454  0  1.003284  0
H  H26  1  0.30213912  0.14890518  0.73774005  1  0.083845  0  0.102972  0.102073  0  1.004011  0
H  H27  1  0.23052514  0.07686345  0.81301037  1  0.096777  0  0.108299  0.11338  0  0.992763  0
H  H28  1  0.35676566  0.20274493  0.73999836  1  0.058369  0  0.102566  0.101844  0  1.002297  0
H  H29  1  0.42833115  0.27497522  0.66691302  1  0.094348  0  0.108059  0.112957  0  0.992969  0
H  H30  1  0.25995814  0.44000080  0.61506204  1  0.097515  0  0.107587  0.112893  0  0.991678  0
H  H31  1  0.18852020  0.36760188  0.68516811  1  0.073339  0  0.102825  0.101767  0  1.001686  0
H  H32  1  0.86913113  0.83112739  0.05557923  1  0.093088  0  0.10787  0.112734  0  0.992355  0
H  H33  1  0.79979789  0.75670095  0.12731317  1  0.050622  0  0.102644  0.101347  0  1.002706  0
H  H34  1  0.74339842  0.81471666  0.29323852  1  0.059828  0  0.102901  0.101563  0  1.002423  0
H  H35  1  0.81530944  0.88655535  0.22160462  1  0.086333  0  0.108032  0.113616  0  0.991491  0
H  H36  1  0.74952005  0.70476271  0.34554794  1  0.060955  0  0.103081  0.101879  0  1.004186  0
H  H37  1  0.67533293  0.63525350  0.41892663  1  0.089428  0  0.107858  0.112612  0  0.991831  0
H  H38  1  0.61800954  0.68581464  0.25515876  1  0.089554  0  0.107975  0.113187  0  0.993334  0
H  H39  1  0.68928147  0.75828489  0.18188639  1  0.065618  0  0.102758  0.101781  0  1.00298  0
H  H40  1  0.06348546  0.88410993  0.81322472  1  0.099435  0  0.108201  0.113457  0  0.992597  0
H  H41  1  0.13575217  0.81281032  0.74096026  1  0.061618  0  0.102696  0.101558  0  1.003667  0
H  H42  1  0.30236350  0.75843217  0.79844305  1  0.051036  0  0.102986  0.102131  0  1.00413  0
H  H43  1  0.23016247  0.83209980  0.86834884  1  0.085882  0  0.108225  0.113519  0  0.993058  0
H  H44  1  0.35591688  0.76063987  0.68970464  1  0.056869  0  0.102639  0.10162  0  1.002683  0
H  H45  1  0.42775215  0.68783536  0.61888528  1  0.089979  0  0.107931  0.113134  0  0.991644  0
H  H46  1  0.26025082  0.63390038  0.67091121  1  0.103558  0  0.107835  0.112937  0  0.992115  0
H  H47  1  0.18865425  0.70389398  0.74450605  1  0.090055  0  0.10271  0.101135  0  1.002926  0
H  H48  1  0.05898084  0.83165936  0.22781743  1  0.097264  0  0.108018  0.113073  0  0.993182  0
H  H49  1  0.13006462  0.75801872  0.30038423  1  0.068975  0  0.102784  0.101614  0  1.003455  0
H  H50  1  0.29839445  0.81383111  0.13723166  1  0.071296  0  0.103062  0.10151  0  1.003024  0
H  H51  1  0.22740003  0.88487021  0.06453653  1  0.093594  0  0.108099  0.113193  0  0.992959  0
H  H52  1  0.35067036  0.70471980  0.18844021  1  0.054134  0  0.103107  0.101772  0  1.003629  0
H  H53  1  0.42287348  0.63329938  0.25995522  1  0.096315  0  0.108329  0.11343  0  0.993317  0
H  H54  1  0.25630513  0.68505819  0.42709089  1  0.107611  0  0.107757  0.112241  0  0.992447  0
H  H55  1  0.18394874  0.75865610  0.35575407  1  0.090211  0  0.103227  0.101988  0  1.003432  0
C  C56  1  0.89193664  0.11563562  0.88511295  1  1.568031  0  0.225964  0.603438  0  4.165473  0
C  C57  1  0.84954684  0.15925628  0.84128285  1  -0.029657  0  -0.020183  -0.043229  0  3.979656  0
C  C58  1  0.84545347  0.22625473  0.80616413  1  0.014814  0  -0.081378  -0.084522  0  3.985072  0
C  C59  1  0.80607877  0.26667274  0.76520991  1  -0.053741  0  -0.089779  -0.134297  0  3.983364  0
C  C60  1  0.76913979  0.24162397  0.75864558  1  -0.020928  0  -0.00037  0.076703  0  3.996815  0
C  C61  1  0.77335295  0.17441588  0.79441645  1  0.031777  0  -0.090042  -0.134568  0  3.985496  0
C  C62  1  0.81317228  0.13369983  0.83490610  1  -0.11397  0  -0.08182  -0.084191  0  3.982781  0
C  C63  1  0.72695773  0.28454770  0.71556739  1  -0.014894  0  -0.001825  0.075827  0  3.996806  0
C  C64  1  0.71961090  0.25846619  0.68028372  1  -0.07678  0  -0.089634  -0.134497  0  3.98567  0
C  C65  1  0.67916829  0.29856152  0.64041171  1  -0.000875  0  -0.080637  -0.081746  0  3.984029  0
C  C66  1  0.64520880  0.36619110  0.63429890  1  -0.059469  0  -0.021936  -0.047921  0  3.983623  0
C  C67  1  0.65257843  0.39291195  0.66872155  1  -0.000642  0  -0.080299  -0.080646  0  3.981335  0
C  C68  1  0.69274669  0.35253416  0.70890241  1  -0.041751  0  -0.089055  -0.134596  0  3.986024  0
C  C69  1  0.60133388  0.40896019  0.59199283  1  1.526253  0  0.226576  0.606587  0  4.167741  0
C  C70  1  0.89074171  0.11375212  0.09582252  1  1.5421  0  0.225727  0.603043  0  4.169121  0
C  C71  1  0.84831542  0.15671993  0.13890003  1  0.015364  0  -0.021544  -0.047899  0  3.985684  0
C  C72  1  0.81438465  0.22444182  0.11225221  1  0.00185  0  -0.080387  -0.079602  0  3.980845  0
C  C73  1  0.77448849  0.26427631  0.15262151  1  -0.118322  0  -0.089762  -0.135134  0  3.985663  0
C  C74  1  0.76774103  0.23782117  0.22048518  1  -0.043586  0  -0.001224  0.075781  0  4.000071  0
C  C75  1  0.80234277  0.16988577  0.24658818  1  -0.023216  0  -0.089995  -0.135203  0  3.986121  0
C  C76  1  0.84187129  0.12975236  0.20650725  1  -0.038994  0  -0.080948  -0.082146  0  3.982574  0
C  C77  1  0.72519769  0.28029773  0.26312108  1  -0.011414  0  -0.000684  0.078132  0  3.997495  0
C  C78  1  0.68868845  0.25444898  0.33026753  1  -0.042765  0  -0.089923  -0.135821  0  3.986632  0
C  C79  1  0.64830044  0.29450151  0.37042714  1  0.018153  0  -0.081144  -0.082648  0  3.984583  0
C  C80  1  0.64273193  0.36188845  0.34421221  1  -0.020761  0  -0.020293  -0.044708  0  3.981784  0
C  C81  1  0.67882262  0.38822928  0.27735035  1  -0.046971  0  -0.080882  -0.081895  0  3.981135  0
C  C82  1  0.71974123  0.34782293  0.23755213  1  -0.099566  0  -0.089939  -0.136841  0  3.986534  0
C  C83  1  0.59884281  0.40511478  0.38701928  1  1.582537  0  0.226005  0.60552  0  4.168075  0
C  C84  1  0.10035121  0.11257832  0.88934771  1  1.5436  0  0.225956  0.604302  0  4.165075  0
C  C85  1  0.14346126  0.15565087  0.84511724  1  -0.002338  0  -0.020496  -0.044174  0  3.981392  0
C  C86  1  0.11715920  0.22316896  0.83926898  1  -0.030649  0  -0.081556  -0.082839  0  3.982503  0
C  C87  1  0.15737091  0.26327842  0.79811594  1  -0.073501  0  -0.089793  -0.135572  0  3.984171  0
C  C88  1  0.22479371  0.23729764  0.76127331  1  -0.00608  0  -0.000579  0.078124  0  3.993828  0
C  C89  1  0.25052493  0.16958391  0.76717311  1  -0.060016  0  -0.090264  -0.136215  0  3.984651  0
C  C90  1  0.21059443  0.12919400  0.80871175  1  -0.008472  0  -0.081486  -0.083397  0  3.983872  0
C  C91  1  0.26740979  0.27994389  0.71795701  1  -0.022708  0  -0.000856  0.076216  0  3.996258  0
C  C92  1  0.33558510  0.25440889  0.71167098  1  -0.072656  0  -0.090166  -0.135597  0  3.983769  0
C  C93  1  0.37566860  0.29467310  0.67142643  1  -0.007071  0  -0.081153  -0.082229  0  3.984178  0
C  C94  1  0.34837763  0.36190047  0.63686572  1  0.021841  0  -0.021326  -0.04717  0  3.985174  0
C  C95  1  0.28054092  0.38787255  0.64264277  1  -0.055088  0  -0.080447  -0.081721  0  3.983715  0
C  C96  1  0.24075909  0.34731528  0.68241022  1  -0.08533  0  -0.089742  -0.134975  0  3.985228  0
C  C97  1  0.39108427  0.40539445  0.59456717  1  1.567034  0  0.225982  0.605456  0  4.166164  0
C  C98  1  0.88899764  0.90710750  0.09166901  1  1.541017  0  0.227265  0.605949  0  4.165911  0
C  C99  1  0.84654475  0.86331094  0.13423789  1  0.033503  0  -0.021112  -0.04523  0  3.981737  0
C  C100  1  0.84135859  0.82707923  0.10777449  1  -0.096985  0  -0.081496  -0.083868  0  3.981925  0
C  C101  1  0.80206171  0.78597644  0.14799842  1  0.052209  0  -0.088839  -0.133003  0  3.982461  0
C  C102  1  0.76652355  0.78024209  0.21556089  1  -0.055104  0  -0.000992  0.07553  0  3.996736  0
C  C103  1  0.77187107  0.81710319  0.24145821  1  0.024072  0  -0.09032  -0.134816  0  3.984242  0
C  C104  1  0.81142496  0.85787354  0.20153118  1  -0.108706  0  -0.081474  -0.083495  0  3.98192  0
C  C105  1  0.72440701  0.73705962  0.25846100  1  -0.016658  0  -0.000603  0.07767  0  3.995284  0
C  C106  1  0.71974314  0.70187403  0.32575321  1  0.033962  0  -0.090103  -0.135982  0  3.987016  0
C  C107  1  0.67887305  0.66245349  0.36687560  1  -0.06854  0  -0.081213  -0.081276  0  3.98318  0
C  C108  1  0.64198678  0.65652372  0.34157559  1  -0.045881  0  -0.020439  -0.04589  0  3.985002  0
C  C109  1  0.64698401  0.69053711  0.27437258  1  -0.045993  0  -0.081668  -0.083406  0  3.984021  0
C  C110  1  0.68741218  0.73046319  0.23353055  1  -0.044315  0  -0.090473  -0.135975  0  3.984933  0
C  C111  1  0.59782508  0.61450305  0.38578371  1  1.552594  0  0.225982  0.6048  0  4.171193  0
C  C112  1  0.09908647  0.90590315  0.88781614  1  1.534231  0  0.226369  0.606091  0  4.169082  0
C  C113  1  0.14242047  0.86247189  0.84516063  1  -0.0066  0  -0.020489  -0.044995  0  3.98051  0
C  C114  1  0.11592233  0.85630589  0.80957572  1  -0.093113  0  -0.081561  -0.083549  0  3.981244  0
C  C115  1  0.15642272  0.81593791  0.76972198  1  0.00082  0  -0.0898  -0.135118  0  3.98347  0
C  C116  1  0.22430740  0.78036780  0.76452644  1  -0.045683  0  -0.001021  0.07797  0  3.99519  0
C  C117  1  0.25029663  0.78679900  0.80059393  1  0.004573  0  -0.089882  -0.136034  0  3.987919  0
C  C118  1  0.21005599  0.82738630  0.84022602  1  -0.058317  0  -0.081996  -0.083957  0  3.984196  0
C  C119  1  0.26705395  0.73757276  0.72218308  1  0.03308  0  -0.001118  0.076717  0  3.995449  0
C  C120  1  0.33501948  0.73196049  0.68671343  1  -0.074006  0  -0.089591  -0.136001  0  3.983824  0
C  C121  1  0.37523544  0.69187662  0.64656308  1  0.012492  0  -0.081274  -0.082213  0  3.980971  0
C  C122  1  0.34831697  0.65665039  0.64038996  1  0.008343  0  -0.020501  -0.045485  0  3.982147  0
C  C123  1  0.28064318  0.66186372  0.67552485  1  -0.024696  0  -0.080765  -0.082305  0  3.984018  0
C  C124  1  0.24073435  0.70154499  0.71605083  1  -0.112049  0  -0.089457  -0.133863  0  3.984663  0
C  C125  1  0.39108349  0.61413462  0.59681620  1  1.521261  0  0.226156  0.603811  0  4.170269  0
C  C126  1  0.09651796  0.90569343  0.09786442  1  1.559822  0  0.225847  0.603827  0  4.166899  0
C  C127  1  0.13890438  0.86256122  0.14168923  1  -0.005872  0  -0.021382  -0.046472  0  3.981056  0
C  C128  1  0.11156471  0.82725562  0.20853638  1  -0.099497  0  -0.08101  -0.082587  0  3.982517  0
C  C129  1  0.15142561  0.78663224  0.24901020  1  -0.031171  0  -0.089778  -0.135119  0  3.984385  0
C  C130  1  0.21951068  0.78044570  0.22406912  1  -0.00238  0  -0.000824  0.077129  0  3.995398  0
C  C131  1  0.24622652  0.81654165  0.15706781  1  -0.063526  0  -0.090146  -0.135487  0  3.984796  0
C  C132  1  0.20665992  0.85683352  0.11633251  1  -0.001661  0  -0.080975  -0.081567  0  3.982772  0
C  C133  1  0.26204929  0.73714290  0.26678675  1  -0.034151  0  -0.000257  0.078413  0  3.995953  0
C  C134  1  0.32993964  0.70151751  0.24049496  1  -0.039816  0  -0.09054  -0.136482  0  3.985984  0
C  C135  1  0.37042810  0.66107513  0.28030137  1  0.009587  0  -0.080975  -0.081465  0  3.9853  0
C  C136  1  0.34396079  0.65487996  0.34781196  1  -0.014569  0  -0.021292  -0.046871  0  3.986397  0
C  C137  1  0.27631519  0.68980862  0.37469674  1  -0.063653  0  -0.081262  -0.081147  0  3.982244  0
C  C138  1  0.23603044  0.73044985  0.33464387  1  -0.073477  0  -0.089863  -0.135935  0  3.986928  0
C  C139  1  0.38753690  0.61174709  0.39038463  1  1.550106  0  0.226207  0.604489  0  4.169759  0
O  O140  1  0.99436996  0.01007648  0.99122703  1  -1.24225  0  -0.573474  -1.030036  0  2.544362  0
O  O141  1  0.89933790  0.05353130  0.90962300  1  -1.182978  0  -0.317261  -0.551009  0  2.327238  0
O  O142  1  0.91745640  0.14386679  0.89469489  1  -1.170784  0  -0.317577  -0.549662  0  2.329543  0
O  O143  1  0.57582200  0.47114478  0.58446464  1  -1.172443  0  -0.317445  -0.550769  0  2.331354  0
O  O144  1  0.59264707  0.37979789  0.56681429  1  -1.171219  0  -0.318732  -0.552727  0  2.335826  0
O  O145  1  0.91529885  0.05140296  0.12457041  1  -1.178978  0  -0.316934  -0.548951  0  2.331156  0
O  O146  1  0.89914799  0.14267774  0.03360851  1  -1.17151  0  -0.317801  -0.550061  0  2.331829  0
O  O147  1  0.58926371  0.46760463  0.35813763  1  -1.178204  0  -0.317741  -0.551124  0  2.33205  0
O  O148  1  0.57420074  0.37631664  0.44922062  1  -1.179654  0  -0.316634  -0.550586  0  2.330699  0
O  O149  1  0.12916250  0.05018697  0.89787033  1  -1.182125  0  -0.317366  -0.550202  0  2.328037  0
O  O150  1  0.03800326  0.14153417  0.91520871  1  -1.181074  0  -0.317626  -0.551175  0  2.33081  0
O  O151  1  0.36128078  0.46777855  0.57151706  1  -1.179925  0  -0.31756  -0.551166  0  2.332734  0
O  O152  1  0.45400031  0.37676965  0.58493388  1  -1.173105  0  -0.316835  -0.549713  0  2.332582  0
O  O153  1  0.89656586  0.93286297  0.12113230  1  -1.169495  0  -0.31823  -0.551892  0  2.335738  0
O  O154  1  0.91440915  0.91536382  0.02938948  1  -1.183321  0  -0.31774  -0.550678  0  2.323812  0
O  O155  1  0.57218787  0.60469889  0.35787443  1  -1.175673  0  -0.317783  -0.55108  0  2.335764  0
O  O156  1  0.58913409  0.59178829  0.44796845  1  -1.168946  0  -0.317028  -0.550054  0  2.33182  0
O  O157  1  0.12777241  0.91331751  0.91460247  1  -1.164471  0  -0.317739  -0.55095  0  2.332036  0
O  O158  1  0.03678458  0.93221192  0.89417030  1  -1.173304  0  -0.317817  -0.552282  0  2.331126  0
O  O159  1  0.36164623  0.58897671  0.58830703  1  -1.171921  0  -0.317876  -0.550454  0  2.334827  0
O  O160  1  0.45369539  0.60625682  0.57138417  1  -1.174305  0  -0.316855  -0.549746  0  2.329212  0
O  O161  1  0.12621864  0.93111882  0.03608449  1  -1.183107  0  -0.31742  -0.551034  0  2.329703  0
O  O162  1  0.03385524  0.91379078  0.12553077  1  -1.166938  0  -0.317541  -0.549772  0  2.330876  0
O  O163  1  0.35950426  0.60532634  0.45225926  1  -1.179999  0  -0.317797  -0.549952  0  2.331436  0
O  O164  1  0.44955572  0.58466122  0.36152086  1  -1.184414  0  -0.317897  -0.551537  0  2.335479  0
O  O165  1  0.49421735  0.51033196  0.49155776  1  -1.213811  0  -0.57369  -1.030187  0  2.544852  0
