# generated using pymatgen
data_ZnH16C26NO4
_symmetry_space_group_name_H-M   'P 1'
_cell_length_a   10.90164174
_cell_length_b   18.25325683
_cell_length_c   19.45843254
_cell_angle_alpha   90.17506673
_cell_angle_beta   88.77078623
_cell_angle_gamma   90.05951192
_symmetry_Int_Tables_number   1
_chemical_formula_structural   ZnH16C26NO4
_chemical_formula_sum   'Zn2 H32 C52 N2 O8'
_cell_volume   3871.13161465
_cell_formula_units_Z   2
loop_
 _symmetry_equiv_pos_site_id
 _symmetry_equiv_pos_as_xyz
  1  'x, y, z'
loop_
 _atom_site_type_symbol
 _atom_site_label
 _atom_site_symmetry_multiplicity
 _atom_site_fract_x
 _atom_site_fract_y
 _atom_site_fract_z
 _atom_site_occupancy
 _atom_site_pbe_bader_charge
 _atom_site_pbe_bader_spin_density
 _atom_site_pbe_cm5_charge
 _atom_site_pbe_ddec_charge
 _atom_site_pbe_ddec_spin_density
 _atom_site_pbe_ddec_sum_bond_order
 _atom_site_pbe_magmom
Zn  Zn0  1  0.49982662  0.42405881  0.49960511  1  1.261542  0  0.669452  0.813578  0  2.451038  0
Zn  Zn1  1  0.50013449  0.57605083  0.50041993  1  1.282886  0  0.669639  0.813165  0  2.454796  0
H  H2  1  0.90790184  0.75297191  0.46177176  1  0.035461  0  0.091192  0.083985  0  1.0094  0
H  H3  1  0.09228608  0.24697954  0.53794174  1  0.037773  0  0.091066  0.083777  0  1.010013  0
H  H4  1  0.09428492  0.75327736  0.53684577  1  0.039114  0  0.091403  0.084419  0  1.009958  0
H  H5  1  0.90538071  0.24667400  0.46327696  1  0.036167  0  0.091331  0.084305  0  1.009662  0
H  H6  1  0.47108115  0.61794387  0.15805619  1  0.040876  0  0.097971  0.095973  0  1.01031  0
H  H7  1  0.52931700  0.38192367  0.84189078  1  0.038476  0  0.098031  0.096167  0  1.010111  0
H  H8  1  0.55253003  0.61758848  0.84403066  1  0.083849  0  0.097666  0.095865  0  1.01019  0
H  H9  1  0.44773904  0.38228415  0.15604970  1  0.083402  0  0.097713  0.095693  0  1.009795  0
H  H10  1  0.35440316  0.41107862  0.05340106  1  0.055531  0  0.100271  0.098964  0  1.003391  0
H  H11  1  0.64590842  0.58875611  0.94661218  1  0.051063  0  0.100129  0.098746  0  1.003807  0
H  H12  1  0.38833339  0.41104215  0.92766215  1  0.071211  0  0.100203  0.098933  0  1.006215  0
H  H13  1  0.61200652  0.58877727  0.07235654  1  0.070636  0  0.099975  0.098856  0  1.00594  0
H  H14  1  0.33738433  0.30741377  0.44726252  1  0.143429  0  0.130444  0.106201  0  0.974432  0
H  H15  1  0.66265140  0.69264594  0.55269466  1  0.143288  0  0.130557  0.106563  0  0.974351  0
H  H16  1  0.66267112  0.30787929  0.55284621  1  0.14396  0  0.130216  0.105489  0  0.974595  0
H  H17  1  0.33724740  0.69217621  0.44724686  1  0.144446  0  0.130379  0.105759  0  0.974724  0
H  H18  1  0.32909545  0.17050976  0.44544563  1  0.074824  0  0.111762  0.116988  0  0.996014  0
H  H19  1  0.67094282  0.82956860  0.55452390  1  0.080225  0  0.111589  0.116561  0  0.99653  0
H  H20  1  0.67075967  0.17103844  0.55475362  1  0.084342  0  0.111711  0.116979  0  0.996356  0
H  H21  1  0.32917331  0.82902357  0.44530236  1  0.083353  0  0.111754  0.117061  0  0.996062  0
H  H22  1  0.57695748  0.06778834  0.60114342  1  0.108237  0  0.106859  0.106515  0  0.99565  0
H  H23  1  0.42303332  0.93227088  0.39886235  1  0.108711  0  0.106908  0.106719  0  0.995206  0
H  H24  1  0.42295772  0.06718423  0.39893247  1  0.066783  0  0.106943  0.106492  0  0.994756  0
H  H25  1  0.57705064  0.93287773  0.60106600  1  0.0673  0  0.10693  0.106257  0  0.995099  0
H  H26  1  0.80468360  0.36304958  0.43699176  1  0.146387  0  0.10274  0.1176  0  1.04157  0
H  H27  1  0.19485754  0.63694201  0.56331373  1  0.145461  0  0.102933  0.117624  0  1.040716  0
H  H28  1  0.19389664  0.36343237  0.56371044  1  0.149456  0  0.102989  0.117692  0  1.040217  0
H  H29  1  0.80639507  0.63653320  0.43589915  1  0.124858  0  0.10295  0.117122  0  1.039156  0
H  H30  1  0.45539544  0.61676402  0.28614413  1  0.083041  0  0.101172  0.104172  0  1.004282  0
H  H31  1  0.54495243  0.38318786  0.71379710  1  0.08239  0  0.101032  0.103908  0  1.004234  0
H  H32  1  0.56965982  0.61744433  0.71603573  1  0.110152  0  0.101585  0.104965  0  1.003237  0
H  H33  1  0.43039286  0.38250546  0.28404145  1  0.109237  0  0.101514  0.104812  0  1.003211  0
C  C34  1  0.55502834  0.50089215  0.63032487  1  1.588363  0  0.213027  0.593073  0  4.171354  0
C  C35  1  0.44501264  0.49915890  0.36969497  1  1.587472  0  0.213291  0.593746  0  4.171284  0
C  C36  1  0.44255320  0.49961505  0.29276548  1  -0.052103  0  -0.020509  -0.03697  0  3.966229  0
C  C37  1  0.55760243  0.50032372  0.70725143  1  -0.051076  0  -0.020292  -0.036737  0  3.965921  0
C  C38  1  0.41997676  0.44950187  0.03032841  1  -0.027861  0  -0.093378  -0.128991  0  4.002988  0
C  C39  1  0.58035223  0.55032083  0.96968573  1  -0.040838  0  -0.093268  -0.129253  0  4.003494  0
C  C40  1  0.43935272  0.44932854  0.95942099  1  -0.042783  0  -0.093558  -0.130228  0  4.003634  0
C  C41  1  0.56099735  0.55048430  0.04059352  1  -0.037547  0  -0.093388  -0.129707  0  4.002127  0
C  C42  1  0.51994637  0.49969261  0.92752878  1  -0.061558  0  -0.01048  0.063684  0  4.011197  0
C  C43  1  0.48039726  0.50012625  0.07248731  1  -0.034499  0  -0.010597  0.063082  0  4.010111  0
C  C44  1  0.40911918  0.27442002  0.47014083  1  0.402104  0  0.062852  0.111869  0  3.914396  0
C  C45  1  0.59089754  0.72565234  0.52985246  1  0.403489  0  0.062531  0.110976  0  3.915423  0
C  C46  1  0.59089763  0.27469894  0.52993363  1  0.39938  0  0.06264  0.111666  0  3.915532  0
C  C47  1  0.40905955  0.72536415  0.47010370  1  0.398531  0  0.062768  0.111665  0  3.91625  0
C  C48  1  0.40594420  0.19835396  0.46913076  1  0.094849  0  -0.081939  -0.184088  0  3.954209  0
C  C49  1  0.59408821  0.80170580  0.53085728  1  0.087701  0  -0.081619  -0.18311  0  3.954262  0
C  C50  1  0.59395860  0.19864795  0.53103975  1  0.085704  0  -0.081724  -0.184096  0  3.954728  0
C  C51  1  0.40599867  0.80140856  0.46899243  1  0.087833  0  -0.081736  -0.184041  0  3.954722  0
C  C52  1  0.49994429  0.15844695  0.50008639  1  -0.161253  0  0.013584  0.1096  0  4.002553  0
C  C53  1  0.50003912  0.84161884  0.49992200  1  -0.160902  0  0.013239  0.108621  0  4.002143  0
C  C54  1  0.54473616  0.03827287  0.55617894  1  -0.029551  0  -0.084632  -0.120369  0  3.986081  0
C  C55  1  0.45523626  0.96178142  0.44382797  1  -0.027127  0  -0.084937  -0.120538  0  3.986202  0
C  C56  1  0.45518336  0.03795008  0.44387739  1  -0.15998  0  -0.084986  -0.120276  0  3.985849  0
C  C57  1  0.54481480  0.96210256  0.55612678  1  -0.160842  0  -0.084735  -0.119402  0  3.985293  0
C  C58  1  0.50003583  0.92242867  0.49994861  1  0.121794  0  -0.005511  0.06168  0  4.004074  0
C  C59  1  0.49993661  0.07764150  0.50005780  1  0.121404  0  -0.005826  0.061367  0  4.004517  0
C  C60  1  0.73656379  0.50023751  0.46967502  1  1.567521  0  0.218235  0.591173  0  4.137662  0
C  C61  1  0.26338300  0.49990278  0.53033165  1  1.572906  0  0.218245  0.591877  0  4.137502  0
C  C62  1  0.88893830  0.36316950  0.46550576  1  -0.111729  0  -0.09921  -0.134747  0  3.985114  0
C  C63  1  0.11080982  0.63678792  0.53462110  1  -0.089721  0  -0.09948  -0.13501  0  3.986021  0
C  C64  1  0.10974542  0.36341645  0.53511167  1  -0.080134  0  -0.099455  -0.134973  0  3.98665  0
C  C65  1  0.89038966  0.63653722  0.46463146  1  -0.057094  0  -0.099182  -0.133782  0  3.98744  0
C  C66  1  0.94511306  0.29819740  0.48083576  1  -0.066098  0  -0.107455  -0.099965  0  4.090382  0
C  C67  1  0.05469522  0.70175499  0.51921311  1  -0.087751  0  -0.107334  -0.099976  0  4.090946  0
C  C68  1  0.05300470  0.29835274  0.52012039  1  -0.033124  0  -0.106705  -0.098707  0  4.090259  0
C  C69  1  0.94707506  0.70159773  0.47968680  1  -0.029995  0  -0.10682  -0.099044  0  4.089988  0
C  C70  1  0.06053909  0.43267618  0.51442787  1  0.024628  0  0.002332  0.066965  0  3.926041  0
C  C71  1  0.93945884  0.56728804  0.48543844  1  0.024031  0  0.002467  0.066609  0  3.927079  0
C  C72  1  0.93876365  0.43259825  0.48580919  1  -0.021447  0  0.00171  0.065873  0  3.926557  0
C  C73  1  0.06111651  0.56736337  0.51417399  1  -0.020576  0  0.001845  0.06628  0  3.925707  0
C  C74  1  0.12468039  0.50000430  0.52360078  1  -0.0318  0  -0.002684  -0.11319  0  3.813448  0
C  C75  1  0.87527539  0.49996499  0.47636087  1  -0.031308  0  -0.002765  -0.11313  0  3.814175  0
C  C76  1  0.45320135  0.56584495  0.25683100  1  -0.008019  0  -0.085962  -0.083983  0  3.993105  0
C  C77  1  0.54707695  0.43408504  0.74315020  1  -0.009198  0  -0.085987  -0.083867  0  3.994418  0
C  C78  1  0.56209221  0.56618280  0.74439197  1  -0.121547  0  -0.086427  -0.085694  0  3.992927  0
C  C79  1  0.43801045  0.43375272  0.25566125  1  -0.120491  0  -0.086527  -0.086158  0  3.993461  0
C  C80  1  0.46312973  0.56605616  0.18548002  1  -0.035426  0  -0.09626  -0.143333  0  4.001248  0
C  C81  1  0.53721821  0.43383114  0.81450377  1  -0.032434  0  -0.096333  -0.143881  0  4.001749  0
C  C82  1  0.55295427  0.56585531  0.81580473  1  -0.073712  0  -0.09501  -0.141508  0  3.996728  0
C  C83  1  0.44726677  0.43404465  0.18424513  1  -0.056907  0  -0.09514  -0.141209  0  3.995984  0
C  C84  1  0.46224327  0.50009304  0.14784695  1  -0.034802  0  -0.005808  0.075402  0  4.006443  0
C  C85  1  0.53804269  0.49977127  0.85216391  1  0.029877  0  -0.006156  0.075182  0  4.006379  0
N  N86  1  0.50003077  0.31185973  0.50003506  1  -1.228347  0  -0.319273  -0.19601  0  3.512032  0
N  N87  1  0.49994504  0.68822910  0.49998832  1  -1.228189  0  -0.319575  -0.19568  0  3.513113  0
O  O88  1  0.55206417  0.43895094  0.59982806  1  -1.169943  0  -0.322417  -0.556525  0  2.327349  0
O  O89  1  0.44919292  0.56114521  0.40001272  1  -1.171798  0  -0.322273  -0.556497  0  2.329797  0
O  O90  1  0.44651095  0.43689642  0.39920881  1  -1.158541  0  -0.3215  -0.553323  0  2.32071  0
O  O91  1  0.55218234  0.56321579  0.60101469  1  -1.159999  0  -0.321189  -0.552744  0  2.322803  0
O  O92  1  0.67987025  0.43912625  0.46860892  1  -1.165809  0  -0.312102  -0.539376  0  2.387197  0
O  O93  1  0.31975330  0.56113072  0.53044038  1  -1.165372  0  -0.311896  -0.539421  0  2.38953  0
O  O94  1  0.31922117  0.43857863  0.52947156  1  -1.1709  0  -0.311913  -0.539681  0  2.391069  0
O  O95  1  0.68106822  0.56165598  0.47154408  1  -1.16532  0  -0.311817  -0.539076  0  2.392597  0
