# generated using pymatgen
data_CsH10C16SO6F
_symmetry_space_group_name_H-M   'P 1'
_cell_length_a   6.25859875
_cell_length_b   7.84776819
_cell_length_c   16.22517039
_cell_angle_alpha   86.89998874
_cell_angle_beta   90.66773801
_cell_angle_gamma   95.75042179
_symmetry_Int_Tables_number   1
_chemical_formula_structural   CsH10C16SO6F
_chemical_formula_sum   'Cs2 H20 C32 S2 O12 F2'
_cell_volume   791.72985075
_cell_formula_units_Z   2
loop_
 _symmetry_equiv_pos_site_id
 _symmetry_equiv_pos_as_xyz
  1  'x, y, z'
loop_
 _atom_site_type_symbol
 _atom_site_label
 _atom_site_symmetry_multiplicity
 _atom_site_fract_x
 _atom_site_fract_y
 _atom_site_fract_z
 _atom_site_occupancy
 _atom_site_hle17_bader_spin_density
 _atom_site_hle17_ddec_charge
 _atom_site_hle17_ddec_spin_density
 _atom_site_hle17_ddec_sum_bond_order
 _atom_site_hle17_magmom
 _atom_site_hse06_10hf_bader_spin_density
 _atom_site_hse06_10hf_ddec_charge
 _atom_site_hse06_10hf_ddec_spin_density
 _atom_site_hse06_10hf_ddec_sum_bond_order
 _atom_site_hse06_10hf_magmom
 _atom_site_hse06_bader_spin_density
 _atom_site_hse06_ddec_charge
 _atom_site_hse06_ddec_spin_density
 _atom_site_hse06_ddec_sum_bond_order
 _atom_site_hse06_magmom
 _atom_site_pbe_bader_spin_density
 _atom_site_pbe_cm5_charge
 _atom_site_pbe_ddec_charge
 _atom_site_pbe_ddec_spin_density
 _atom_site_pbe_ddec_sum_bond_order
 _atom_site_pbe_magmom
Cs  Cs0  1  0.74876580  0.25342580  0.02137762  1  0  0.971841  0  0.552963  0  0  0.920724  0  0.779332  0  0  0.936256  0  0.754719  0  0  0.912458  0.909095  0  0.796803  0
Cs  Cs1  1  0.25127765  0.74661918  0.97861526  1  0  0.972957  0  0.55343  0  0  0.920664  0  0.77936  0  0  0.936218  0  0.754774  0  0  0.912476  0.909135  0  0.796723  0
H  H2  1  0.81730576  0.92529757  0.90567694  1  0  0.101073  0  0.967778  0  0  0.11441  0  1.03895  0  0  0.11621  0  1.037437  0  0  0.112539  0.113001  0  1.040134  0
H  H3  1  0.18271147  0.07473553  0.09432623  1  0  0.100815  0  0.968054  0  0  0.114228  0  1.039009  0  0  0.116031  0  1.03749  0  0  0.112509  0.112824  0  1.040185  0
H  H4  1  0.89347107  0.01535870  0.80471834  1  0  0.087151  0  0.960557  0  0  0.10082  0  1.033734  0  0  0.100716  0  1.034446  0  0  0.098077  0.100868  0  1.033238  0
H  H5  1  0.10654404  0.98466194  0.19528223  1  0  0.086874  0  0.961067  0  0  0.100776  0  1.033684  0  0  0.100665  0  1.034414  0  0  0.098032  0.100824  0  1.033191  0
H  H6  1  0.69088126  0.83561067  0.81644132  1  0  0.08313  0  0.935913  0  0  0.101843  0  1.000301  0  0  0.10243  0  0.998989  0  0  0.105324  0.101322  0  1.00132  0
H  H7  1  0.30913526  0.16440663  0.18356478  1  0  0.08297  0  0.936539  0  0  0.101844  0  1.00046  0  0  0.102444  0  0.999146  0  0  0.105283  0.10132  0  1.001477  0
H  H8  1  0.65267535  0.98483106  0.69429348  1  0  0.09921  0  0.993325  0  0  0.107945  0  1.062594  0  0  0.110953  0  1.061239  0  0  0.099211  0.105809  0  1.063656  0
H  H9  1  0.34731245  0.01515184  0.30571094  1  0  0.099238  0  0.993226  0  0  0.107964  0  1.062564  0  0  0.11097  0  1.061214  0  0  0.099196  0.105832  0  1.063625  0
H  H10  1  0.42221989  0.05324641  0.57874065  1  0  0.1192  0  0.979874  0  0  0.125607  0  1.043082  0  0  0.129773  0  1.039357  0  0  0.105782  0.122595  0  1.045756  0
H  H11  1  0.57775096  0.94671514  0.42126412  1  0  0.119246  0  0.979866  0  0  0.125685  0  1.043037  0  0  0.129844  0  1.039334  0  0  0.10579  0.122673  0  1.045713  0
H  H12  1  0.05089938  0.33028547  0.73973062  1  0  0.103285  0  0.968607  0  0  0.113647  0  1.029149  0  0  0.116692  0  1.027169  0  0  0.10439  0.111434  0  1.030668  0
H  H13  1  0.94911224  0.66972801  0.26026554  1  0  0.103266  0  0.968569  0  0  0.11364  0  1.029122  0  0  0.116666  0  1.027169  0  0  0.104364  0.111427  0  1.030647  0
H  H14  1  0.13213953  0.17579865  0.32752540  1  0  0.125574  0  0.96402  0  0  0.132139  0  1.032686  0  0  0.136385  0  1.029059  0  0  0.110164  0.129005  0  1.035506  0
H  H15  1  0.86785547  0.82420174  0.67247551  1  0  0.125709  0  0.963816  0  0  0.132157  0  1.032801  0  0  0.136395  0  1.029183  0  0  0.110183  0.129024  0  1.035618  0
H  H16  1  0.54648479  0.40031180  0.26449061  1  0  0.13317  0  0.919346  0  0  0.14283  0  0.975139  0  0  0.146711  0  0.972659  0  0  0.118952  0.139992  0  0.977049  0
H  H17  1  0.45350858  0.59968832  0.73551153  1  0  0.133315  0  0.918976  0  0  0.14284  0  0.975133  0  0  0.146721  0  0.972656  0  0  0.118959  0.140027  0  0.977012  0
H  H18  1  0.48757252  0.44306066  0.41555498  1  0  0.125902  0  0.945379  0  0  0.132157  0  1.007534  0  0  0.136305  0  1.004842  0  0  0.113737  0.129131  0  1.009661  0
H  H19  1  0.51240345  0.55690781  0.58444802  1  0  0.125862  0  0.945257  0  0  0.132171  0  1.00736  0  0  0.136319  0  1.004667  0  0  0.113715  0.129141  0  1.009497  0
H  H20  1  0.83026072  0.33644980  0.65251180  1  0  0.091172  0  0.937602  0  0  0.101464  0  0.995098  0  0  0.104062  0  0.992487  0  0  0.125412  0.099618  0  0.996851  0
H  H21  1  0.16970355  0.66350759  0.34749290  1  0  0.091052  0  0.937617  0  0  0.101413  0  0.995054  0  0  0.104011  0  0.992446  0  0  0.125396  0.09956  0  0.99682  0
C  C22  1  0.76027808  0.95503840  0.84302770  1  0  -0.088162  0  3.628598  0  0  -0.187998  0  3.898338  0  0  -0.180461  0  3.900833  0  0  -0.143239  -0.192838  0  3.896529  0
C  C23  1  0.23973716  0.04498567  0.15697538  1  0  -0.088391  0  3.629226  0  0  -0.187757  0  3.897989  0  0  -0.180227  0  3.900495  0  0  -0.143092  -0.192597  0  3.896175  0
C  C24  1  0.48128893  0.11194915  0.78424372  1  0  0.279409  0  3.784384  0  0  0.260509  0  4.042394  0  0  0.274917  0  4.056653  0  0  0.089099  0.250714  0  4.032961  0
C  C25  1  0.51871932  0.88806104  0.21575610  1  0  0.279404  0  3.784733  0  0  0.260708  0  4.042221  0  0  0.275094  0  4.056476  0  0  0.089191  0.250924  0  4.032775  0
C  C26  1  0.51955377  0.05927016  0.70537980  1  0  -0.212176  0  3.790276  0  0  -0.231313  0  4.051432  0  0  -0.239483  0  4.072987  0  0  -0.115082  -0.225847  0  4.03669  0
C  C27  1  0.48043762  0.94072104  0.29462163  1  0  -0.212279  0  3.790722  0  0  -0.231329  0  4.051644  0  0  -0.239499  0  4.073209  0  0  -0.115089  -0.225874  0  4.036908  0
C  C28  1  0.38744089  0.09846390  0.63868604  1  0  -0.069434  0  3.717845  0  0  -0.098148  0  3.974935  0  0  -0.096394  0  3.993358  0  0  -0.089929  -0.098773  0  3.961827  0
C  C29  1  0.61253697  0.90151113  0.36131641  1  0  -0.069622  0  3.717938  0  0  -0.098324  0  3.974991  0  0  -0.096571  0  3.9934  0  0  -0.089887  -0.098957  0  3.961914  0
C  C30  1  0.21103431  0.19308526  0.64791636  1  0  0.051608  0  3.782388  0  0  0.068675  0  4.019503  0  0  0.066641  0  4.045779  0  0  -0.022539  0.07008  0  4.001602  0
C  C31  1  0.78895050  0.80690188  0.35208438  1  0  0.051779  0  3.782079  0  0  0.068885  0  4.019203  0  0  0.066854  0  4.045473  0  0  -0.022501  0.070282  0  4.00131  0
C  C32  1  0.17814087  0.25032769  0.72739336  1  0  -0.109597  0  3.760351  0  0  -0.140041  0  4.009155  0  0  -0.138765  0  4.029748  0  0  -0.090984  -0.140731  0  3.995412  0
C  C33  1  0.82186402  0.74967869  0.27260517  1  0  -0.10952  0  3.760074  0  0  -0.139988  0  4.008826  0  0  -0.138727  0  4.029407  0  0  -0.090968  -0.140677  0  3.995084  0
C  C34  1  0.30911373  0.21277947  0.79431743  1  0  -0.211185  0  3.700288  0  0  -0.19084  0  3.952768  0  0  -0.200061  0  3.971352  0  0  -0.02932  -0.185195  0  3.940982  0
C  C35  1  0.69090464  0.78724200  0.20567883  1  0  -0.211606  0  3.700634  0  0  -0.19094  0  3.952603  0  0  -0.200073  0  3.971065  0  0  -0.029335  -0.185292  0  3.94081  0
C  C36  1  0.06817423  0.23431275  0.57781033  1  0  -0.14125  0  3.755133  0  0  -0.138063  0  4.011234  0  0  -0.149533  0  4.034669  0  0  -0.028319  -0.130701  0  3.995491  0
C  C37  1  0.93180352  0.76565973  0.42219210  1  0  -0.141297  0  3.754925  0  0  -0.138109  0  4.011143  0  0  -0.149576  0  4.034576  0  0  -0.028336  -0.130748  0  3.995379  0
C  C38  1  0.11400820  0.19863231  0.49202073  1  0  0.382462  0  3.793588  0  0  0.355566  0  4.067658  0  0  0.380861  0  4.068652  0  0  0.134323  0.338557  0  4.066747  0
C  C39  1  0.88596821  0.80134627  0.50798299  1  0  0.382313  0  3.793624  0  0  0.355254  0  4.067979  0  0  0.380546  0  4.068978  0  0  0.134259  0.33828  0  4.066994  0
C  C40  1  0.95980163  0.25708192  0.43001686  1  0  -0.108931  0  3.807566  0  0  -0.098111  0  4.051835  0  0  -0.107451  0  4.07596  0  0  -0.024307  -0.092196  0  4.035938  0
C  C41  1  0.04018128  0.74289856  0.56998505  1  0  -0.108546  0  3.807149  0  0  -0.097755  0  4.051459  0  0  -0.10709  0  4.075585  0  0  -0.024271  -0.091851  0  4.035549  0
C  C42  1  0.99176571  0.23525152  0.34582302  1  0  -0.184055  0  3.742919  0  0  -0.220779  0  4.000154  0  0  -0.222321  0  4.017992  0  0  -0.094125  -0.219628  0  3.988567  0
C  C43  1  0.00822424  0.76474343  0.65417843  1  0  -0.183434  0  3.740991  0  0  -0.220873  0  4.00016  0  0  -0.222409  0  4.018002  0  0  -0.094168  -0.219726  0  3.988578  0
C  C44  1  0.84054403  0.28476378  0.28966412  1  0  0.306354  0  3.786349  0  0  0.296741  0  4.065443  0  0  0.305103  0  4.077242  0  0  0.100718  0.290509  0  4.057923  0
C  C45  1  0.15945097  0.71523662  0.71033679  1  0  0.308684  0  3.78373  0  0  0.296662  0  4.065435  0  0  0.305021  0  4.077235  0  0  0.100702  0.290427  0  4.057926  0
C  C46  1  0.65785956  0.36003959  0.31211004  1  0  -0.141115  0  3.721805  0  0  -0.168579  0  3.983552  0  0  -0.169772  0  4.000548  0  0  -0.081917  -0.16765  0  3.972303  0
C  C47  1  0.34213018  0.63995034  0.68789075  1  0  -0.140371  0  3.719767  0  0  -0.168509  0  3.98338  0  0  -0.169702  0  4.00038  0  0  -0.081937  -0.167601  0  3.97212  0
C  C48  1  0.62580118  0.38367144  0.39497836  1  0  -0.115195  0  3.705316  0  0  -0.139307  0  3.971498  0  0  -0.143019  0  3.98902  0  0  -0.081418  -0.136899  0  3.959847  0
C  C49  1  0.37417676  0.61630506  0.60502287  1  0  -0.115001  0  3.705231  0  0  -0.139251  0  3.971472  0  0  -0.14296  0  3.988994  0  0  -0.081368  -0.136845  0  3.959829  0
C  C50  1  0.77669406  0.33123786  0.45281602  1  0  0.243245  0  3.741213  0  0  0.220833  0  4.006921  0  0  0.231937  0  4.023674  0  0  0.094388  0.213451  0  3.995567  0
C  C51  1  0.22328203  0.66873326  0.54718639  1  0  0.24285  0  3.741592  0  0  0.220542  0  4.007123  0  0  0.231636  0  4.023892  0  0  0.094423  0.213172  0  3.995758  0
C  C52  1  0.88365322  0.30834785  0.59166133  1  0  0.142897  0  3.620024  0  0  0.092952  0  3.898282  0  0  0.107924  0  3.908298  0  0  0.036637  0.083299  0  3.890982  0
C  C53  1  0.11632086  0.69161406  0.40834221  1  0  0.142914  0  3.619846  0  0  0.092952  0  3.898118  0  0  0.107922  0  3.908125  0  0  0.036662  0.083307  0  3.890818  0
S  S54  1  0.26533141  0.30577399  0.89043589  1  0  1.303744  0  5.74367  0  0  1.213515  0  6.269517  0  0  1.262333  0  6.24358  0  0  0.438906  1.179933  0  6.286398  0
S  S55  1  0.73470890  0.69427229  0.10955576  1  0  1.303938  0  5.7442  0  0  1.213683  0  6.269916  0  0  1.262482  0  6.243975  0  0  0.438903  1.180096  0  6.286796  0
O  O56  1  0.06451825  0.38705220  0.88034012  1  0  -0.716195  0  1.947816  0  0  -0.670863  0  2.18878  0  0  -0.69099  0  2.174549  0  0  -0.437863  -0.656607  0  2.198099  0
O  O57  1  0.93552697  0.61299660  0.11965342  1  0  -0.716783  0  1.948334  0  0  -0.670908  0  2.188742  0  0  -0.691044  0  2.174519  0  0  -0.437906  -0.656651  0  2.198064  0
O  O58  1  0.25007522  0.16432224  0.95463158  1  0  -0.758515  0  1.977643  0  0  -0.717881  0  2.237981  0  0  -0.738837  0  2.224098  0  0  -0.445264  -0.702975  0  2.246975  0
O  O59  1  0.74997205  0.83573746  0.04536640  1  0  -0.758712  0  1.9779  0  0  -0.718  0  2.238108  0  0  -0.738918  0  2.224149  0  0  -0.44524  -0.703152  0  2.247223  0
O  O60  1  0.45454078  0.43049092  0.90091655  1  0  -0.722582  0  1.925176  0  0  -0.677215  0  2.168117  0  0  -0.698347  0  2.153893  0  0  -0.468925  -0.662159  0  2.177362  0
O  O61  1  0.54550914  0.56955366  0.09906461  1  0  -0.722663  0  1.925532  0  0  -0.677222  0  2.168332  0  0  -0.698359  0  2.154114  0  0  -0.46895  -0.662154  0  2.177564  0
O  O62  1  0.59837107  0.07001130  0.85237940  1  0  -0.274001  0  2.399707  0  0  -0.199292  0  2.644752  0  0  -0.218169  0  2.648198  0  0  -0.228904  -0.186244  0  2.642025  0
O  O63  1  0.40164583  0.93001343  0.14761998  1  0  -0.27404  0  2.399497  0  0  -0.199388  0  2.644385  0  0  -0.218289  0  2.647857  0  0  -0.228982  -0.186331  0  2.641652  0
O  O64  1  0.26904822  0.12448721  0.46968388  1  0  -0.474658  0  1.941425  0  0  -0.430973  0  2.158264  0  0  -0.449266  0  2.154931  0  0  -0.273723  -0.418244  0  2.160283  0
O  O65  1  0.73093117  0.87548644  0.53031980  1  0  -0.474659  0  1.941604  0  0  -0.430893  0  2.158491  0  0  -0.449186  0  2.155159  0  0  -0.273709  -0.418181  0  2.160489  0
O  O66  1  0.74054757  0.35629266  0.53429100  1  0  -0.197514  0  2.466289  0  0  -0.122157  0  2.6991  0  0  -0.142064  0  2.704877  0  0  -0.112875  -0.108511  0  2.694679  0
O  O67  1  0.25941997  0.64366627  0.46571310  1  0  -0.197364  0  2.466255  0  0  -0.122043  0  2.699077  0  0  -0.141947  0  2.704856  0  0  -0.112968  -0.108412  0  2.69467  0
F  F68  1  0.86680390  0.25540790  0.20823581  1  0  -0.223709  0  1.223224  0  0  -0.170847  0  1.393668  0  0  -0.181311  0  1.385718  0  0  -0.131378  -0.163262  0  1.399118  0
F  F69  1  0.13319823  0.74460853  0.79176281  1  0  -0.23105  0  1.230966  0  0  -0.170752  0  1.393701  0  0  -0.181223  0  1.385759  0  0  -0.13134  -0.163181  0  1.399159  0
