# generated using pymatgen
data_AgH10C14N5O3
_symmetry_space_group_name_H-M   'P 1'
_cell_length_a   7.95070128
_cell_length_b   8.84847432
_cell_length_c   11.50435106
_cell_angle_alpha   90.78149970
_cell_angle_beta   91.36993564
_cell_angle_gamma   76.07513587
_symmetry_Int_Tables_number   1
_chemical_formula_structural   AgH10C14N5O3
_chemical_formula_sum   'Ag2 H20 C28 N10 O6'
_cell_volume   785.31371624
_cell_formula_units_Z   2
loop_
 _symmetry_equiv_pos_site_id
 _symmetry_equiv_pos_as_xyz
  1  'x, y, z'
loop_
 _atom_site_type_symbol
 _atom_site_label
 _atom_site_symmetry_multiplicity
 _atom_site_fract_x
 _atom_site_fract_y
 _atom_site_fract_z
 _atom_site_occupancy
 _atom_site_hle17_bader_spin_density
 _atom_site_hle17_ddec_charge
 _atom_site_hle17_ddec_spin_density
 _atom_site_hle17_ddec_sum_bond_order
 _atom_site_hle17_magmom
 _atom_site_hse06_10hf_bader_spin_density
 _atom_site_hse06_10hf_ddec_charge
 _atom_site_hse06_10hf_ddec_spin_density
 _atom_site_hse06_10hf_ddec_sum_bond_order
 _atom_site_hse06_10hf_magmom
 _atom_site_hse06_bader_spin_density
 _atom_site_hse06_ddec_charge
 _atom_site_hse06_ddec_spin_density
 _atom_site_hse06_ddec_sum_bond_order
 _atom_site_hse06_magmom
 _atom_site_pbe_bader_spin_density
 _atom_site_pbe_cm5_charge
 _atom_site_pbe_ddec_charge
 _atom_site_pbe_ddec_spin_density
 _atom_site_pbe_ddec_sum_bond_order
 _atom_site_pbe_magmom
Ag  Ag0  1  0.10047203  0.28414240  0.95970037  1  0  0.478402  0  1.422655  0  0  0.311048  0  1.872857  0  0  0.340179  0  1.829227  0  0  0.472618  0.292093  0  1.902711  0
Ag  Ag1  1  0.89952660  0.71585307  0.04029846  1  0  0.478474  0  1.422524  0  0  0.311183  0  1.872646  0  0  0.340299  0  1.829054  0  0  0.472628  0.292229  0  1.902499  0
H  H2  1  0.96625702  0.87788848  0.81477376  1  0  0.093054  0  0.998736  0  0  0.093438  0  1.076843  0  0  0.09764  0  1.07223  0  0  0.114485  0.090263  0  1.080353  0
H  H3  1  0.03376774  0.12209883  0.18521854  1  0  0.093065  0  0.998719  0  0  0.093434  0  1.076822  0  0  0.097628  0  1.072226  0  0  0.114489  0.090259  0  1.080336  0
H  H4  1  0.15278421  0.82937667  0.64277617  1  0  0.128554  0  0.922847  0  0  0.14004  0  0.976908  0  0  0.143447  0  0.975053  0  0  0.121405  0.13752  0  0.97841  0
H  H5  1  0.84722297  0.17060152  0.35721125  1  0  0.128466  0  0.922968  0  0  0.140033  0  0.976951  0  0  0.143441  0  0.97509  0  0  0.121407  0.137515  0  0.978456  0
H  H6  1  0.30113757  0.34933021  0.75790912  1  0  0.08381  0  0.997991  0  0  0.079835  0  1.082816  0  0  0.084036  0  1.07859  0  0  0.115885  0.076773  0  1.085944  0
H  H7  1  0.69885692  0.65065525  0.24208879  1  0  0.083603  0  0.99805  0  0  0.079726  0  1.082782  0  0  0.083931  0  1.078552  0  0  0.115819  0.076657  0  1.085919  0
H  H8  1  0.53869323  0.33978993  0.67839920  1  0  0.096674  0  0.960892  0  0  0.106101  0  1.025508  0  0  0.108226  0  1.025315  0  0  0.104024  0.104521  0  1.025733  0
H  H9  1  0.46131102  0.66019984  0.32159806  1  0  0.096708  0  0.960788  0  0  0.106135  0  1.02542  0  0  0.10826  0  1.025226  0  0  0.104023  0.104555  0  1.025646  0
H  H10  1  0.25030938  0.72922449  0.47524853  1  0  0.105463  0  0.982868  0  0  0.109455  0  1.053824  0  0  0.113761  0  1.049717  0  0  0.101686  0.106309  0  1.056817  0
H  H11  1  0.74969550  0.27076268  0.52474626  1  0  0.10539  0  0.982846  0  0  0.109386  0  1.053804  0  0  0.113694  0  1.049702  0  0  0.101669  0.10624  0  1.056799  0
H  H12  1  0.63650519  0.01920981  0.71370929  1  0  0.098564  0  0.947563  0  0  0.105283  0  1.009145  0  0  0.108468  0  1.00676  0  0  0.120875  0.102899  0  1.011002  0
H  H13  1  0.36349540  0.98078690  0.28628851  1  0  0.098531  0  0.947511  0  0  0.105262  0  1.009105  0  0  0.108446  0  1.00672  0  0  0.120871  0.102878  0  1.010961  0
H  H14  1  0.68203089  0.74667512  0.78380647  1  0  0.112298  0  0.946236  0  0  0.125343  0  1.000324  0  0  0.128348  0  0.998859  0  0  0.115547  0.123095  0  1.001676  0
H  H15  1  0.31796725  0.25332664  0.21620683  1  0  0.112354  0  0.946252  0  0  0.125355  0  1.000388  0  0  0.128358  0  0.998928  0  0  0.115614  0.123123  0  1.001718  0
H  H16  1  0.23452094  0.92456547  0.99683612  1  0  0.101872  0  0.952933  0  0  0.1113  0  1.019043  0  0  0.114349  0  1.01599  0  0  0.122344  0.108915  0  1.021574  0
H  H17  1  0.76547384  0.07545284  0.00316657  1  0  0.101961  0  0.952938  0  0  0.111401  0  1.019011  0  0  0.114456  0  1.015956  0  0  0.122396  0.109013  0  1.02155  0
H  H18  1  0.67311536  0.52613350  0.82827417  1  0  0.09909  0  0.960004  0  0  0.108541  0  1.023119  0  0  0.111495  0  1.021493  0  0  0.103622  0.106388  0  1.024446  0
H  H19  1  0.32687237  0.47388109  0.17173253  1  0  0.099068  0  0.960015  0  0  0.108504  0  1.023139  0  0  0.111461  0  1.021512  0  0  0.103611  0.106345  0  1.024474  0
H  H20  1  0.29661858  0.72706265  0.08804867  1  0  0.095176  0  1.01373  0  0  0.100272  0  1.085147  0  0  0.103516  0  1.083194  0  0  0.099589  0.097873  0  1.08668  0
H  H21  1  0.70336775  0.27294798  0.91195572  1  0  0.095051  0  1.013647  0  0  0.100188  0  1.085075  0  0  0.103431  0  1.083124  0  0  0.099606  0.097786  0  1.086608  0
C  C22  1  0.04367766  0.76082552  0.79602445  1  0  0.081579  0  3.700819  0  0  0.049991  0  3.959663  0  0  0.054585  0  3.976225  0  0  0.042396  0.04681  0  3.948899  0
C  C23  1  0.95635017  0.23916285  0.20397553  1  0  0.081676  0  3.700836  0  0  0.050064  0  3.959739  0  0  0.054659  0  3.9763  0  0  0.042444  0.046881  0  3.948978  0
C  C24  1  0.15060508  0.73278116  0.69999641  1  0  -0.095672  0  3.642354  0  0  -0.118083  0  3.885911  0  0  -0.121638  0  3.904304  0  0  -0.058855  -0.115802  0  3.873834  0
C  C25  1  0.84941201  0.26720328  0.29999724  1  0  -0.095671  0  3.642671  0  0  -0.118118  0  3.886305  0  0  -0.121671  0  3.904696  0  0  -0.058953  -0.115836  0  3.87423  0
C  C26  1  0.25363714  0.58299099  0.68330181  1  0  0.0679  0  3.73337  0  0  0.08158  0  3.961192  0  0  0.083506  0  3.983051  0  0  0.022535  0.080065  0  3.946563  0
C  C27  1  0.74636840  0.41699175  0.31669587  1  0  0.067987  0  3.73327  0  0  0.08148  0  3.961295  0  0  0.083408  0  3.983152  0  0  0.022513  0.07996  0  3.94666  0
C  C28  1  0.23181920  0.47156057  0.76469353  1  0  0.065912  0  3.631089  0  0  0.0367  0  3.875462  0  0  0.039023  0  3.891195  0  0  0.059916  0.035011  0  3.865311  0
C  C29  1  0.76817549  0.52842345  0.23530183  1  0  0.065993  0  3.630954  0  0  0.036878  0  3.875172  0  0  0.039179  0  3.89094  0  0  0.059963  0.035194  0  3.865023  0
C  C30  1  0.37871244  0.54026744  0.58960484  1  0  0.043286  0  3.784439  0  0  0.059692  0  4.011171  0  0  0.057612  0  4.037275  0  0  -0.006138  0.061176  0  3.993417  0
C  C31  1  0.62128652  0.45971058  0.41038727  1  0  0.043293  0  3.784229  0  0  0.059785  0  4.010952  0  0  0.057707  0  4.037054  0  0  -0.006081  0.061272  0  3.993193  0
C  C32  1  0.51969393  0.40948640  0.59970775  1  0  -0.09165  0  3.718187  0  0  -0.110918  0  3.963083  0  0  -0.113976  0  3.986527  0  0  -0.082849  -0.108769  0  3.947192  0
C  C33  1  0.48031217  0.59050260  0.40029211  1  0  -0.091676  0  3.718306  0  0  -0.110975  0  3.963196  0  0  -0.114033  0  3.986638  0  0  -0.082833  -0.108828  0  3.947308  0
C  C34  1  0.36080430  0.63026646  0.48828011  1  0  -0.091032  0  3.71936  0  0  -0.112492  0  3.966474  0  0  -0.115088  0  3.987588  0  0  -0.084194  -0.110723  0  3.952281  0
C  C35  1  0.63919791  0.36971475  0.51171692  1  0  -0.090971  0  3.719018  0  0  -0.112471  0  3.966128  0  0  -0.115074  0  3.987248  0  0  -0.084277  -0.110703  0  3.951935  0
C  C36  1  0.54979657  0.98879217  0.77692655  1  0  0.088621  0  3.70625  0  0  0.065251  0  3.96554  0  0  0.067735  0  3.982605  0  0  0.051324  0.063526  0  3.954266  0
C  C37  1  0.45021039  0.01120722  0.22306908  1  0  0.088597  0  3.706326  0  0  0.065185  0  3.965665  0  0  0.06767  0  3.982729  0  0  0.051308  0.063455  0  3.954401  0
C  C38  1  0.57466868  0.83659865  0.81660995  1  0  -0.11674  0  3.682094  0  0  -0.139418  0  3.930881  0  0  -0.141889  0  3.94818  0  0  -0.064944  -0.137932  0  3.919563  0
C  C39  1  0.42532734  0.16340897  0.18339253  1  0  -0.116706  0  3.682339  0  0  -0.139361  0  3.931147  0  0  -0.141828  0  3.948457  0  0  -0.065054  -0.137885  0  3.919819  0
C  C40  1  0.46300819  0.80484947  0.89978398  1  0  0.052189  0  3.762895  0  0  0.066037  0  3.99712  0  0  0.066785  0  4.020013  0  0  0.015199  0.065444  0  3.981737  0
C  C41  1  0.53697573  0.19516464  0.10022114  1  0  0.051986  0  3.763012  0  0  0.065875  0  3.997139  0  0  0.0666  0  4.020073  0  0  0.015287  0.065283  0  3.981759  0
C  C42  1  0.33143644  0.93455864  0.93391093  1  0  0.045662  0  3.632319  0  0  0.005474  0  3.88849  0  0  0.007509  0  3.907283  0  0  0.051793  0.004029  0  3.876068  0
C  C43  1  0.66855873  0.06546208  0.06609159  1  0  0.045674  0  3.631878  0  0  0.005526  0  3.887911  0  0  0.007561  0  3.906714  0  0  0.051879  0.004081  0  3.875484  0
C  C44  1  0.48183774  0.64966691  0.95075186  1  0  0.040033  0  3.778941  0  0  0.052628  0  4.015376  0  0  0.051233  0  4.040616  0  0  -0.008976  0.053699  0  3.998165  0
C  C45  1  0.51814919  0.35035365  0.04925534  1  0  0.040235  0  3.778813  0  0  0.052865  0  4.015147  0  0  0.051474  0  4.040399  0  0  -0.009008  0.053934  0  3.99793  0
C  C46  1  0.59617479  0.51754491  0.90385728  1  0  -0.100484  0  3.725873  0  0  -0.123022  0  3.98778  0  0  -0.125434  0  4.008259  0  0  -0.085215  -0.121348  0  3.97391  0
C  C47  1  0.40382228  0.48246792  0.09614832  1  0  -0.100692  0  3.726068  0  0  -0.123251  0  3.987984  0  0  -0.125657  0  4.008438  0  0  -0.085308  -0.121573  0  3.974119  0
C  C48  1  0.38666534  0.62878475  0.04829362  1  0  -0.088735  0  3.712541  0  0  -0.114077  0  3.97015  0  0  -0.1172  0  3.992535  0  0  -0.086067  -0.111906  0  3.955047  0
C  C49  1  0.61331988  0.37122956  0.95171231  1  0  -0.088738  0  3.712354  0  0  -0.114115  0  3.969882  0  0  -0.117241  0  3.992268  0  0  -0.086164  -0.111951  0  3.954802  0
N  N50  1  0.12766905  0.50412903  0.85516604  1  0  -0.143997  0  3.204  0  0  -0.084329  0  3.481332  0  0  -0.092852  0  3.496827  0  0  -0.208046  -0.078792  0  3.471261  0
N  N51  1  0.87234094  0.49585881  0.14483114  1  0  -0.143966  0  3.204051  0  0  -0.084393  0  3.481417  0  0  -0.092912  0  3.496906  0  0  -0.208067  -0.078857  0  3.471341  0
N  N52  1  0.03469327  0.65046562  0.87284478  1  0  -0.176734  0  3.261437  0  0  -0.106293  0  3.551542  0  0  -0.118782  0  3.56733  0  0  -0.224739  -0.097992  0  3.541068  0
N  N53  1  0.96532540  0.34952663  0.12715354  1  0  -0.17682  0  3.261534  0  0  -0.106309  0  3.551614  0  0  -0.118793  0  3.567395  0  0  -0.224702  -0.098008  0  3.541139  0
N  N54  1  0.31620515  0.07867903  0.89421452  1  0  -0.150984  0  3.248812  0  0  -0.081913  0  3.538915  0  0  -0.092549  0  3.554585  0  0  -0.207745  -0.07472  0  3.528376  0
N  N55  1  0.68379574  0.92133800  0.10578278  1  0  -0.151306  0  3.248487  0  0  -0.082301  0  3.538673  0  0  -0.092939  0  3.554338  0  0  -0.207985  -0.075105  0  3.528133  0
N  N56  1  0.42522511  0.10784931  0.81530838  1  0  -0.166514  0  3.010764  0  0  -0.140654  0  3.279834  0  0  -0.145987  0  3.296033  0  0  -0.189779  -0.13701  0  3.269031  0
N  N57  1  0.57477808  0.89216049  0.18468669  1  0  -0.166242  0  3.010829  0  0  -0.140374  0  3.279925  0  0  -0.145703  0  3.296121  0  0  -0.189652  -0.136726  0  3.269116  0
N  N58  1  0.91336285  0.16918319  0.73877613  1  0  0.718633  0  4.099408  0  0  0.737729  0  4.407372  0  0  0.766273  0  4.413359  0  0  0.092135  0.718435  0  4.402565  0
N  N59  1  0.08662950  0.83082415  0.26122651  1  0  0.718641  0  4.099398  0  0  0.737757  0  4.407324  0  0  0.766297  0  4.413314  0  0  0.092263  0.718469  0  4.402511  0
O  O60  1  0.92512032  0.11722181  0.84420860  1  0  -0.535143  0  1.804033  0  0  -0.499112  0  2.043469  0  0  -0.518831  0  2.03408  0  0  -0.222427  -0.484896  0  2.049591  0
O  O61  1  0.07488126  0.88278001  0.15579145  1  0  -0.535199  0  1.804019  0  0  -0.499152  0  2.043417  0  0  -0.518863  0  2.034026  0  0  -0.222493  -0.484951  0  2.049548  0
O  O62  1  0.88448578  0.08190324  0.65660283  1  0  -0.473819  0  1.693688  0  0  -0.460911  0  1.894643  0  0  -0.47526  0  1.887634  0  0  -0.198536  -0.450454  0  1.899136  0
O  O63  1  0.11550852  0.91810534  0.34339878  1  0  -0.473776  0  1.693579  0  0  -0.460909  0  1.894562  0  0  -0.475255  0  1.88755  0  0  -0.198587  -0.450452  0  1.899052  0
O  O64  1  0.93010969  0.30455572  0.72117066  1  0  -0.465125  0  1.715519  0  0  -0.454398  0  1.925194  0  0  -0.46811  0  1.919475  0  0  -0.198742  -0.444371  0  1.928835  0
O  O65  1  0.06987419  0.69545473  0.27883383  1  0  -0.465137  0  1.715657  0  0  -0.454412  0  1.925312  0  0  -0.468122  0  1.919596  0  0  -0.198753  -0.444383  0  1.92895  0
