# generated using pymatgen
data_Cu2H12C16S4N8Cl3
_symmetry_space_group_name_H-M   'P 1'
_cell_length_a   9.85612003
_cell_length_b   11.14916985
_cell_length_c   12.68861467
_cell_angle_alpha   64.33962526
_cell_angle_beta   69.76965976
_cell_angle_gamma   86.26248205
_symmetry_Int_Tables_number   1
_chemical_formula_structural   Cu2H12C16S4N8Cl3
_chemical_formula_sum   'Cu4 H24 C32 S8 N16 Cl6'
_cell_volume   1173.36767878
_cell_formula_units_Z   2
loop_
 _symmetry_equiv_pos_site_id
 _symmetry_equiv_pos_as_xyz
  1  'x, y, z'
loop_
 _atom_site_type_symbol
 _atom_site_label
 _atom_site_symmetry_multiplicity
 _atom_site_fract_x
 _atom_site_fract_y
 _atom_site_fract_z
 _atom_site_occupancy
 _atom_site_hle17_ddec_charge
 _atom_site_hle17_ddec_spin_density
 _atom_site_hle17_ddec_sum_bond_order
 _atom_site_hle17_magmom
 _atom_site_hse06_10hf_ddec_charge
 _atom_site_hse06_10hf_ddec_spin_density
 _atom_site_hse06_10hf_ddec_sum_bond_order
 _atom_site_hse06_10hf_magmom
 _atom_site_hse06_ddec_charge
 _atom_site_hse06_ddec_spin_density
 _atom_site_hse06_ddec_sum_bond_order
 _atom_site_hse06_magmom
 _atom_site_pbe_cm5_charge
 _atom_site_pbe_ddec_charge
 _atom_site_pbe_ddec_spin_density
 _atom_site_pbe_ddec_sum_bond_order
 _atom_site_pbe_magmom
Cu  Cu0  1  0.13548745  0.11005638  0.12125554  1  0.647611  -0.555136  2.072678  -0.402  0.638223  -0.696296  2.474934  -0.532  0.724589  -0.77784  2.402897  -0.623  0.572345  0.589137  -0.627564  2.521488  -0.47
Cu  Cu1  1  0.86452646  0.88995421  0.87873983  1  0.647634  -0.55517  2.072689  -0.402  0.638295  -0.696312  2.474887  -0.532  0.72458  -0.777848  2.402981  -0.623  0.572385  0.5892  -0.627616  2.521425  -0.47
Cu  Cu2  1  0.54775724  0.45267115  0.61003163  1  0.474495  -0.102523  1.994653  -0.079  0.354256  -0.014735  2.481923  -0.012  0.342121  -0.002739  2.445418  -0.002  0.445967  0.374215  -0.05321  2.496799  -0.042
Cu  Cu3  1  0.45226026  0.54733244  0.38996701  1  0.474437  -0.102524  1.994631  -0.079  0.354175  -0.014729  2.481846  -0.012  0.34201  -0.002737  2.445397  -0.002  0.445933  0.374137  -0.053161  2.496743  -0.042
H  H4  1  0.69211201  0.98459256  0.60869938  1  0.079719  -0.00033  0.94509  -0.001  0.088345  -0.000216  1.007162  0.0  0.09095  -5.6e-05  1.003978  0.0  0.108155  0.086485  -0.000364  1.009622  -0.001
H  H5  1  0.30789538  0.01543801  0.39127831  1  0.079566  -0.000329  0.945039  -0.001  0.08821  -0.000216  1.007126  0.0  0.090809  -5.6e-05  1.003946  0.0  0.108124  0.086354  -0.000364  1.009587  -0.001
H  H6  1  0.85812100  0.19960209  0.49944074  1  0.136305  -0.000198  0.951701  0.0  0.140448  -0.00041  1.018787  0.0  0.145485  -0.000338  1.015957  0.0  0.110072  0.136422  -0.000441  1.021417  0.0
H  H7  1  0.14188064  0.80043546  0.50053741  1  0.136296  -0.000209  0.951986  0.0  0.140402  -0.00041  1.019107  0.0  0.145436  -0.000338  1.016277  0.0  0.110084  0.136379  -0.000441  1.021738  0.0
H  H8  1  0.05087608  0.24521878  0.28982949  1  0.07865  -0.000878  0.964752  -0.001  0.082572  -0.001021  1.042514  -0.002  0.084725  -0.000735  1.038944  -0.001  0.112534  0.080528  -0.001181  1.045312  -0.002
H  H9  1  0.94912978  0.75478679  0.71014866  1  0.078755  -0.000889  0.964625  -0.002  0.082616  -0.001022  1.042442  -0.002  0.084744  -0.000736  1.038933  -0.001  0.112518  0.08058  -0.001183  1.045209  -0.002
H  H10  1  0.51527764  0.18147680  0.62491357  1  0.089673  -0.000752  0.94715  -0.001  0.097914  -0.000389  1.009317  0.0  0.100677  -0.00022  1.006039  0.0  0.109722  0.095898  -0.000621  1.011601  -0.001
H  H11  1  0.48471953  0.81852874  0.37508583  1  0.089736  -0.000755  0.947077  -0.001  0.098007  -0.000389  1.009198  0.0  0.100773  -0.00022  1.005919  0.0  0.109755  0.095983  -0.000621  1.011495  -0.001
H  H12  1  0.36760117  0.95725543  0.78658792  1  0.118456  0.000255  0.959055  0.0  0.128386  -0.00021  1.017499  0.0  0.130845  -0.000191  1.018526  0.0  0.107894  0.126352  -0.00018  1.017313  0.0
H  H13  1  0.63239438  0.04273412  0.21338332  1  0.118302  0.000253  0.95925  0.0  0.12823  -0.000211  1.017707  0.0  0.130681  -0.000191  1.018727  0.0  0.107846  0.126201  -0.000181  1.017521  0.0
H  H14  1  0.21450007  0.94197460  0.99832048  1  0.091106  -0.001264  0.93859  -0.002  0.096283  -0.001346  1.00754  -0.001  0.098605  -0.000938  1.003499  -0.001  0.113196  0.094505  -0.001643  1.010488  -0.002
H  H15  1  0.78550548  0.05802798  0.00165732  1  0.091039  -0.001276  0.938527  -0.002  0.096205  -0.001346  1.007497  -0.001  0.098521  -0.000938  1.003465  -0.001  0.113156  0.09447  -0.001644  1.010402  -0.002
H  H16  1  0.67352106  0.31831820  0.80949176  1  0.088453  -0.000125  0.928583  0.0  0.092865  -0.000157  0.997989  0.0  0.096048  -0.000108  0.993647  0.0  0.116504  0.090839  -0.000217  1.00088  0.0
H  H17  1  0.32648671  0.68165438  0.19050946  1  0.088305  -0.000129  0.928945  0.0  0.09277  -0.000157  0.998273  0.0  0.095912  -0.000108  0.993974  0.0  0.116472  0.090746  -0.000217  1.00117  0.0
H  H18  1  0.90859308  0.35527902  0.83723681  1  0.121779  -0.000805  0.977468  0.0  0.130953  -0.000939  1.037494  0.0  0.134804  -0.000732  1.036045  0.0  0.096727  0.128715  -0.001038  1.038409  0.0
H  H19  1  0.09139537  0.64470549  0.16278159  1  0.121724  -0.000817  0.977269  0.0  0.130904  -0.000939  1.037279  0.0  0.134755  -0.000732  1.035828  0.0  0.096677  0.128668  -0.001038  1.038195  0.0
H  H20  1  0.08485232  0.55302447  0.66358554  1  0.081797  -2.5e-05  0.944473  0.0  0.088391  -2e-06  1.011056  0.0  0.091353  2e-06  1.008544  0.0  0.105986  0.086374  -2.3e-05  1.012168  0.0
H  H21  1  0.91512674  0.44697401  0.33645134  1  0.081802  -3.1e-05  0.944474  0.0  0.088378  -2e-06  1.011077  0.0  0.091336  2e-06  1.008572  0.0  0.105913  0.086362  -2.3e-05  1.01219  0.0
H  H22  1  0.40994453  0.25618798  0.37998345  1  0.072348  -8.1e-05  0.97348  0.0  0.071362  -9.5e-05  1.054677  0.0  0.075508  -5.6e-05  1.049616  0.0  0.104212  0.068059  -0.000126  1.058454  0.0
H  H23  1  0.59002289  0.74381247  0.62003215  1  0.072323  -7.4e-05  0.973616  0.0  0.071327  -9.5e-05  1.054799  0.0  0.075464  -5.6e-05  1.049739  0.0  0.104202  0.068022  -0.000126  1.058576  0.0
H  H24  1  0.67554648  0.26189211  0.25249234  1  0.123763  5.9e-05  0.941544  0.0  0.132101  5.2e-05  0.998607  0.0  0.136034  5.2e-05  0.997988  0.0  0.104111  0.129244  4.2e-05  0.999529  0.0
H  H25  1  0.32442044  0.73812434  0.74752598  1  0.123803  6.1e-05  0.941463  0.0  0.132142  5.2e-05  0.998536  0.0  0.136023  5.2e-05  0.997978  0.0  0.104083  0.129281  4.2e-05  0.999458  0.0
H  H26  1  0.73613455  0.31352565  0.02685585  1  0.075061  -0.00132  0.979722  0.0  0.085522  -0.001436  1.042035  0.0  0.088487  -0.001106  1.038813  0.0  0.098882  0.083645  -0.001614  1.044168  -0.001
H  H27  1  0.26385872  0.68643288  0.97317745  1  0.074965  -0.001338  0.979836  0.0  0.085515  -0.001436  1.042072  0.0  0.088495  -0.001106  1.038809  0.0  0.098849  0.083625  -0.001615  1.044207  -0.001
C  C28  1  0.90516720  0.95049407  0.36375097  1  0.344179  0.00731  3.76751  0.005  0.331208  0.002338  4.046389  0.002  0.350341  0.003868  4.059804  0.003  0.240649  0.318252  0.001154  4.037768  0.001
C  C29  1  0.09484741  0.04950252  0.63624480  1  0.3442  0.007312  3.767411  0.005  0.331185  0.002339  4.046337  0.002  0.350371  0.003872  4.059669  0.003  0.240675  0.31824  0.001155  4.037694  0.001
C  C30  1  0.77885914  0.01081247  0.51853562  1  0.193969  0.008671  3.6706  0.006  0.166772  0.003934  3.923329  0.003  0.179556  0.004879  3.934403  0.003  0.068069  0.158093  0.003004  3.916228  0.002
C  C31  1  0.22114190  0.98920908  0.48144562  1  0.194319  0.008618  3.670531  0.006  0.167062  0.003934  3.923304  0.003  0.179849  0.004881  3.934375  0.003  0.068171  0.158379  0.003004  3.916212  0.002
C  C32  1  0.86890532  0.12992051  0.45858606  1  -0.167166  -0.007418  3.677822  -0.008  -0.182119  -0.004417  3.930487  -0.005  -0.191912  -0.004006  3.948104  -0.005  -0.086542  -0.17621  -0.004461  3.919933  -0.005
C  C33  1  0.13109001  0.87009803  0.54138997  1  -0.167356  -0.00737  3.678262  -0.008  -0.18227  -0.004417  3.930848  -0.005  -0.192056  -0.004009  3.948456  -0.005  -0.08671  -0.176366  -0.004464  3.920303  -0.005
C  C34  1  0.97567071  0.15455190  0.34406550  1  0.190323  0.006899  3.643043  0.005  0.155593  0.001868  3.900591  0.002  0.168287  0.003612  3.916589  0.003  0.064734  0.147355  0.000636  3.890973  0.001
C  C35  1  0.02432712  0.84545964  0.65591488  1  0.190292  0.006892  3.64344  0.005  0.155624  0.001862  3.900953  0.002  0.168316  0.003612  3.916934  0.003  0.064831  0.147385  0.000634  3.891331  0.001
C  C36  1  0.34634049  0.25614897  0.85693420  1  0.354417  0.009733  3.721068  0.007  0.334122  0.001962  3.99842  0.002  0.352634  0.003663  4.010791  0.003  0.244519  0.322184  0.000924  3.990498  0.001
C  C37  1  0.65367560  0.74386163  0.14305191  1  0.35448  0.009689  3.721041  0.007  0.334097  0.001964  3.998463  0.002  0.352592  0.003661  4.010833  0.003  0.244557  0.32217  0.000924  3.990518  0.001
C  C38  1  0.44342392  0.16431989  0.71856404  1  0.203042  0.008918  3.647873  0.007  0.169728  0.003096  3.898092  0.003  0.184384  0.004398  3.905249  0.004  0.061577  0.160001  0.001884  3.893963  0.002
C  C39  1  0.55659003  0.83568070  0.28143039  1  0.202922  0.008889  3.647976  0.007  0.16958  0.003097  3.898095  0.003  0.184212  0.004393  3.905253  0.004  0.061564  0.159861  0.001884  3.893971  0.002
C  C40  1  0.36307317  0.04298640  0.80671566  1  -0.155054  -0.011108  3.694859  -0.011  -0.17126  -0.005758  3.952302  -0.006  -0.182032  -0.005051  3.969726  -0.005  -0.084826  -0.163993  -0.005998  3.939961  -0.006
C  C41  1  0.63692871  0.95701216  0.19326701  1  -0.154688  -0.011079  3.694888  -0.011  -0.17093  -0.005759  3.952324  -0.006  -0.181683  -0.005049  3.969741  -0.005  -0.084694  -0.163669  -0.005997  3.940002  -0.006
C  C42  1  0.27857859  0.03418377  0.92318025  1  0.206515  0.010151  3.628517  0.008  0.164391  0.002618  3.893058  0.002  0.179726  0.004569  3.906474  0.004  0.067412  0.155467  0.001379  3.882698  0.002
C  C43  1  0.72142757  0.96582480  0.07680534  1  0.206479  0.010144  3.628426  0.008  0.164413  0.002618  3.892968  0.002  0.179754  0.004566  3.906367  0.004  0.067374  0.155467  0.001377  3.882567  0.002
C  C44  1  0.75553082  0.40131303  0.73962704  1  0.209627  0.001025  3.623451  0.001  0.168305  1.6e-05  3.890524  0.0  0.18069  6.9e-05  3.901752  0.0  0.066533  0.160859  0.000238  3.882418  0.0
C  C45  1  0.24446901  0.59866653  0.26038074  1  0.209646  0.001093  3.623684  0.001  0.168297  2.3e-05  3.890703  0.0  0.180716  6.7e-05  3.901949  0.0  0.066604  0.16085  0.000238  3.882606  0.0
C  C46  1  0.88362040  0.42214258  0.75480752  1  -0.185747  -0.001298  3.703412  -0.001  -0.198847  -0.001033  3.959618  -0.001  -0.211174  -0.000819  3.980881  -0.001  -0.094266  -0.19064  -0.001242  3.944073  -0.001
C  C47  1  0.11637984  0.57784097  0.24521204  1  -0.185632  -0.001337  3.703336  -0.002  -0.198753  -0.001042  3.959543  -0.001  -0.211081  -0.000817  3.980805  -0.001  -0.094209  -0.190542  -0.001242  3.944  -0.001
C  C48  1  0.98072213  0.53151949  0.65921444  1  0.180578  0.00093  3.683192  0.001  0.148104  8.6e-05  3.950157  0.0  0.15976  0.000108  3.963131  0.0  0.059726  0.141008  0.000298  3.940187  0.0
C  C49  1  0.01925943  0.46848200  0.34081432  1  0.180685  0.00106  3.682776  0.001  0.148209  9e-05  3.949729  0.0  0.159866  0.00011  3.962707  0.0  0.05983  0.141112  0.000297  3.939761  0.0
C  C50  1  0.82848929  0.58710735  0.54954342  1  0.353155  0.000685  3.757479  0.0  0.337744  0.000152  4.034433  0.0  0.352606  0.000228  4.047073  0.0  0.242983  0.328053  0.000135  4.026049  0.0
C  C51  1  0.17151999  0.41289022  0.45046917  1  0.353116  0.000793  3.757592  0.001  0.337638  0.000151  4.034582  0.0  0.352534  0.00023  4.047182  0.0  0.242935  0.327946  0.000135  4.026203  0.0
C  C52  1  0.38764748  0.32828680  0.10990134  1  0.344756  0.000259  3.815093  0.0  0.332974  0.000349  4.101655  0.0  0.347365  0.000395  4.117007  0.0  0.23755  0.323386  0.00032  4.0912  0.0
C  C53  1  0.61235017  0.67170274  0.89010007  1  0.344583  0.000254  3.815231  0.0  0.332935  0.000348  4.101591  0.0  0.347327  0.000392  4.116939  0.0  0.237486  0.323342  0.00032  4.091139  0.0
C  C54  1  0.44579034  0.27826441  0.28133154  1  0.18296  -0.000107  3.680184  0.0  0.153584  -0.0002  3.942712  0.0  0.165139  -0.000164  3.95368  0.0  0.058365  0.146169  -0.000152  3.93581  0.0
C  C55  1  0.55418572  0.72174606  0.71867321  1  0.183163  -0.00015  3.679975  0.0  0.153851  -0.0002  3.94245  0.0  0.165423  -0.000166  3.953387  0.0  0.058373  0.14643  -0.000151  3.935553  0.0
C  C56  1  0.59121161  0.28034388  0.21163336  1  -0.192118  0.00021  3.724032  0.0  -0.198203  4.9e-05  3.967867  0.0  -0.20751  0.000182  3.985449  0.0  -0.094556  -0.193268  -4.5e-05  3.957413  0.0
C  C57  1  0.40876142  0.71965859  0.78838470  1  -0.192451  0.000238  3.723548  0.0  -0.19858  5.2e-05  3.967458  0.0  -0.207846  0.000183  3.985065  0.0  -0.09462  -0.193644  -4.5e-05  3.957  0.0
C  C58  1  0.62428521  0.30986369  0.08630797  1  0.169905  -0.001911  3.70831  -0.002  0.140987  -0.001941  3.96419  -0.002  0.150463  -0.001464  3.977398  -0.002  0.052313  0.135394  -0.002143  3.954402  -0.003
C  C59  1  0.37570885  0.69012285  0.91370895  1  0.170188  -0.001894  3.707895  -0.002  0.141221  -0.001943  3.963767  -0.002  0.1507  -0.001466  3.976976  -0.002  0.052382  0.135642  -0.002143  3.953962  -0.003
S  S60  1  0.23900151  0.35635060  0.05474785  1  -0.009107  0.003357  2.559794  0.001  -0.028467  0.002585  2.959862  0.0  -0.032866  0.002967  2.948891  0.0  0.049511  -0.025478  0.002174  2.968511  0.0
S  S61  1  0.76100284  0.64364097  0.94525180  1  -0.009069  0.003347  2.559986  0.001  -0.028471  0.002582  2.959987  0.0  -0.032846  0.002967  2.949014  0.0  0.049513  -0.025481  0.002172  2.968622  0.0
S  S62  1  0.33669955  0.40885777  0.86809979  1  0.040738  0.002714  2.532123  0.001  0.027678  0.000664  2.924591  0.0  0.033055  0.00084  2.915574  0.0  0.065988  0.022652  0.000667  2.930654  0.0
S  S63  1  0.66332469  0.59113785  0.13189299  1  0.040711  0.002712  2.532181  0.001  0.027671  0.000663  2.924691  0.0  0.033044  0.000839  2.91568  0.0  0.065976  0.022638  0.000667  2.93076  0.0
S  S64  1  0.77678671  0.68527508  0.41881979  1  0.001499  -0.000196  2.545386  0.0  -0.010201  0.000183  2.943187  0.0  -0.003654  0.00063  2.933252  0.0  0.053818  -0.015617  -0.000561  2.949679  -0.001
S  S65  1  0.22322581  0.31472250  0.58119271  1  0.001391  -0.000202  2.545382  0.0  -0.010295  0.000183  2.943208  0.0  -0.003759  0.000631  2.933265  0.0  0.053741  -0.015713  -0.000559  2.949702  -0.001
S  S66  1  0.94695465  0.83137520  0.30281842  1  0.012756  0.002359  2.468364  0.0  -0.014043  0.001817  2.858556  -0.001  -0.018532  0.00215  2.853078  -0.001  0.053599  -0.009705  0.001263  2.862255  -0.001
S  S67  1  0.05305680  0.16862238  0.69719201  1  0.012758  0.002354  2.468222  0.0  -0.014037  0.001816  2.85844  -0.001  -0.018539  0.00215  2.852938  -0.001  0.053565  -0.0097  0.001263  2.862128  -0.001
N  N68  1  0.99314513  0.06653823  0.29501369  1  -0.363262  -0.064668  3.329243  -0.083  -0.303675  -0.056831  3.604691  -0.075  -0.337759  -0.04898  3.625879  -0.069  -0.345491  -0.284365  -0.057183  3.592762  -0.073
N  N69  1  0.00686336  0.93345135  0.70497535  1  -0.363168  -0.064664  3.329263  -0.083  -0.303555  -0.056827  3.604624  -0.075  -0.337642  -0.048976  3.625807  -0.069  -0.345386  -0.28425  -0.057186  3.592681  -0.073
N  N70  1  0.79725289  0.92138521  0.47180287  1  -0.365772  -0.011369  3.093182  -0.014  -0.323067  -0.007413  3.351275  -0.009  -0.34182  -0.005286  3.366278  -0.007  -0.307471  -0.310595  -0.009101  3.341473  -0.011
N  N71  1  0.20274732  0.07861834  0.52819411  1  -0.36593  -0.011345  3.093561  -0.014  -0.32318  -0.00741  3.351667  -0.009  -0.341953  -0.005284  3.366653  -0.007  -0.307569  -0.310715  -0.009097  3.341866  -0.011
N  N72  1  0.27001994  0.14097057  0.94792941  1  -0.34663  -0.069583  3.342617  -0.089  -0.289893  -0.057777  3.619727  -0.076  -0.32537  -0.049492  3.643815  -0.07  -0.342486  -0.268952  -0.059297  3.604812  -0.075
N  N73  1  0.72999463  0.85904602  0.05205167  1  -0.34655  -0.069561  3.342526  -0.089  -0.289894  -0.057781  3.619755  -0.076  -0.325354  -0.049496  3.643846  -0.07  -0.342447  -0.268952  -0.0593  3.604852  -0.075
N  N74  1  0.43559654  0.27102878  0.74321815  1  -0.354556  -0.020889  3.28696  -0.027  -0.285083  -0.008486  3.571698  -0.011  -0.297652  -0.005989  3.573787  -0.008  -0.348007  -0.27836  -0.012338  3.570221  -0.015
N  N75  1  0.56442929  0.72898184  0.25676692  1  -0.354742  -0.020865  3.28756  -0.027  -0.285113  -0.008484  3.572188  -0.011  -0.297636  -0.005986  3.574236  -0.008  -0.348095  -0.278396  -0.012331  3.570725  -0.015
N  N76  1  0.52194949  0.33320231  0.03397638  1  -0.378355  0.000118  3.070892  0.0  -0.341963  -2.7e-05  3.336668  0.0  -0.357888  0.000153  3.352461  0.0  -0.3188  -0.330966  -0.000285  3.325221  0.0
N  N77  1  0.47804796  0.66677523  0.96603833  1  -0.37832  0.000123  3.070507  0.0  -0.34197  -2.6e-05  3.336271  0.0  -0.357898  0.000156  3.352062  0.0  -0.318698  -0.330978  -0.000285  3.324823  0.0
N  N78  1  0.34195932  0.30265101  0.23049394  1  -0.36493  0.000178  3.016729  0.0  -0.329103  4.7e-05  3.289163  0.0  -0.345516  0.000166  3.304095  0.0  -0.314446  -0.317845  -8.2e-05  3.278904  0.0
N  N79  1  0.65802121  0.69735049  0.76950751  1  -0.364962  0.000197  3.017064  0.0  -0.329207  4.7e-05  3.28945  0.0  -0.345618  0.000169  3.304376  0.0  -0.31444  -0.317952  -8.2e-05  3.27919  0.0
N  N80  1  0.72624695  0.48399968  0.63660103  1  -0.369381  -0.002317  3.3184  -0.003  -0.298761  -0.000433  3.623282  -0.001  -0.310521  -0.000198  3.626037  0.0  -0.360131  -0.292874  -0.00125  3.620403  -0.001
N  N81  1  0.27376247  0.51598890  0.36341022  1  -0.369241  -0.002373  3.318018  -0.003  -0.298609  -0.000431  3.622932  -0.001  -0.310378  -0.000199  3.625656  0.0  -0.360177  -0.292722  -0.001248  3.620069  -0.001
N  N82  1  0.95335722  0.61461438  0.55607544  1  -0.363554  -0.000994  3.065034  -0.001  -0.328771  -0.000293  3.337436  0.0  -0.345419  -0.000193  3.352996  0.0  -0.314915  -0.317118  -0.000697  3.326232  -0.001
N  N83  1  0.04664432  0.38539216  0.44395157  1  -0.363575  -0.001079  3.064839  -0.001  -0.328772  -0.000291  3.337276  0.0  -0.345436  -0.000195  3.352832  0.0  -0.314839  -0.317112  -0.000697  3.326068  -0.001
Cl  Cl84  1  0.29148535  0.97180270  0.20053089  1  -0.5248  -0.111272  0.916237  -0.136  -0.504584  -0.085181  1.175896  -0.109  -0.535402  -0.067677  1.158748  -0.094  -0.331254  -0.491493  -0.089338  1.190031  -0.109
Cl  Cl85  1  0.70853592  0.02820591  0.79946089  1  -0.524784  -0.111274  0.916242  -0.136  -0.50461  -0.085182  1.175938  -0.109  -0.535414  -0.067678  1.158815  -0.094  -0.331269  -0.491524  -0.089346  1.190067  -0.109
Cl  Cl86  1  0.95849069  0.20211394  0.03997005  1  -0.559469  -0.091676  0.937891  -0.112  -0.537542  -0.073888  1.197326  -0.094  -0.565974  -0.058319  1.177058  -0.081  -0.335606  -0.524769  -0.078398  1.213043  -0.096
Cl  Cl87  1  0.04151351  0.79786563  0.96002237  1  -0.559423  -0.091681  0.9379  -0.112  -0.537532  -0.073888  1.197361  -0.094  -0.565948  -0.05832  1.1771  -0.081  -0.335612  -0.524758  -0.078404  1.213069  -0.096
Cl  Cl88  1  0.37801654  0.60164079  0.56732395  1  -0.567723  -0.005598  1.240503  -0.007  -0.513203  -0.00088  1.584835  -0.001  -0.533193  -0.000228  1.561632  0.0  -0.314834  -0.497018  -0.003311  1.596137  -0.004
Cl  Cl89  1  0.62199372  0.39836579  0.43266919  1  -0.567741  -0.005599  1.240632  -0.007  -0.513206  -0.00088  1.584963  -0.001  -0.533195  -0.000227  1.561763  0.0  -0.314827  -0.49702  -0.00331  1.596262  -0.004
