# generated using pymatgen
data_CdH14C20S2(NO)4
_symmetry_space_group_name_H-M   'P 1'
_cell_length_a   8.93876608
_cell_length_b   16.75880197
_cell_length_c   19.32330365
_cell_angle_alpha   90.00025845
_cell_angle_beta   89.99968149
_cell_angle_gamma   101.40432883
_symmetry_Int_Tables_number   1
_chemical_formula_structural   CdH14C20S2(NO)4
_chemical_formula_sum   'Cd4 H56 C80 S8 N16 O16'
_cell_volume   2837.53700909
_cell_formula_units_Z   4
loop_
 _symmetry_equiv_pos_site_id
 _symmetry_equiv_pos_as_xyz
  1  'x, y, z'
loop_
 _atom_site_type_symbol
 _atom_site_label
 _atom_site_symmetry_multiplicity
 _atom_site_fract_x
 _atom_site_fract_y
 _atom_site_fract_z
 _atom_site_occupancy
 _atom_site_pbe_bader_charge
 _atom_site_pbe_bader_spin_density
 _atom_site_pbe_cm5_charge
 _atom_site_pbe_ddec_charge
 _atom_site_pbe_ddec_spin_density
 _atom_site_pbe_ddec_sum_bond_order
 _atom_site_pbe_magmom
Cd  Cd0  1  0.81389358  0.98531294  0.55815388  1  1.277782  0  0.775634  0.876002  0  2.177526  0
Cd  Cd1  1  0.18611514  0.51468163  0.05815283  1  1.277802  0  0.775612  0.87595  0  2.177524  0
Cd  Cd2  1  0.18611348  0.01468467  0.44184556  1  1.277765  0  0.775646  0.876004  0  2.177591  0
Cd  Cd3  1  0.81387566  0.48532380  0.94184764  1  1.277816  0  0.775603  0.875977  0  2.177417  0
H  H4  1  0.80381544  0.66506131  0.89138976  1  0.120838  0  0.117222  0.091839  0  1.005193  0
H  H5  1  0.19618981  0.83493463  0.39139149  1  0.120727  0  0.11725  0.091891  0  1.005136  0
H  H6  1  0.19618865  0.33494054  0.10860916  1  0.120794  0  0.117212  0.091879  0  1.005177  0
H  H7  1  0.80381699  0.16506541  0.60860743  1  0.1208  0  0.1172  0.091827  0  1.005208  0
H  H8  1  0.89829741  0.76111272  0.79437018  1  0.067508  0  0.101778  0.108215  0  1.029577  0
H  H9  1  0.10170815  0.73888403  0.29437178  1  0.067371  0  0.101752  0.108223  0  1.029572  0
H  H10  1  0.10170624  0.23888791  0.20562770  1  0.067498  0  0.101807  0.108273  0  1.029597  0
H  H11  1  0.89829438  0.26111660  0.70562765  1  0.067408  0  0.101762  0.10823  0  1.029553  0
H  H12  1  0.18886341  0.59643616  0.73285594  1  0.11643  0  0.110467  0.119441  0  1.026747  0
H  H13  1  0.81114189  0.90356094  0.23285945  1  0.11644  0  0.11038  0.119312  0  1.026629  0
H  H14  1  0.81114003  0.40356387  0.26714246  1  0.116469  0  0.110431  0.119444  0  1.026829  0
H  H15  1  0.18886155  0.09643908  0.76714258  1  0.116384  0  0.11035  0.119281  0  1.026667  0
H  H16  1  0.08143971  0.50686379  0.83342877  1  0.11109  0  0.111108  0.080643  0  1.03536  0
H  H17  1  0.91856566  0.99313373  0.33343287  1  0.111143  0  0.111067  0.080669  0  1.035302  0
H  H18  1  0.91856303  0.49313744  0.16656964  1  0.111062  0  0.111089  0.080606  0  1.035405  0
H  H19  1  0.08143644  0.00686568  0.66656916  1  0.111146  0  0.11108  0.080636  0  1.035336  0
H  H20  1  0.35750859  0.75432474  0.50683412  1  0.05045  0  0.093909  0.139515  0  0.988012  0
H  H21  1  0.64249738  0.74567933  0.00683641  1  0.050637  0  0.093906  0.139468  0  0.987968  0
H  H22  1  0.64249800  0.24567470  0.49316480  1  0.050635  0  0.093893  0.139484  0  0.988008  0
H  H23  1  0.35750132  0.25432311  0.99316406  1  0.050643  0  0.0939  0.139466  0  0.98797  0
H  H24  1  0.47005566  0.83237230  0.55527149  1  0.090347  0  0.095384  0.144959  0  1.030398  0
H  H25  1  0.52994825  0.66763074  0.05527274  1  0.090404  0  0.095395  0.144943  0  1.030439  0
H  H26  1  0.52994757  0.16762712  0.44472743  1  0.09037  0  0.095383  0.144919  0  1.030437  0
H  H27  1  0.47005337  0.33237049  0.94472721  1  0.090376  0  0.095358  0.144885  0  1.030489  0
H  H28  1  0.45952905  0.72849042  0.58060652  1  0.055291  0  0.094379  0.140535  0  0.990042  0
H  H29  1  0.54047459  0.77151272  0.08060866  1  0.055213  0  0.094331  0.140512  0  0.990072  0
H  H30  1  0.54047439  0.27150960  0.41939395  1  0.055291  0  0.094352  0.140489  0  0.990087  0
H  H31  1  0.45952143  0.22848848  0.91939181  1  0.055262  0  0.094337  0.140465  0  0.990075  0
H  H32  1  0.43113901  0.54237141  0.93311165  1  0.153026  0  0.122526  0.106684  0  1.004002  0
H  H33  1  0.56885989  0.95763014  0.43310979  1  0.152851  0  0.122519  0.106643  0  1.003957  0
H  H34  1  0.56885610  0.45763039  0.06689193  1  0.15294  0  0.122551  0.106697  0  1.004091  0
H  H35  1  0.43113580  0.04236377  0.56689068  1  0.15288  0  0.122496  0.106612  0  1.003898  0
H  H36  1  0.52361004  0.64130523  0.84061201  1  0.103613  0  0.108816  0.120548  0  1.005221  0
H  H37  1  0.47639702  0.85869415  0.34060897  1  0.10373  0  0.108819  0.120553  0  1.005187  0
H  H38  1  0.47639046  0.35869599  0.15939053  1  0.103552  0  0.108821  0.120548  0  1.005141  0
H  H39  1  0.52360427  0.14129978  0.65939150  1  0.103635  0  0.108854  0.120596  0  1.005089  0
H  H40  1  0.22746971  0.79408552  0.92203614  1  0.127928  0  0.112421  0.124113  0  0.997539  0
H  H41  1  0.77253245  0.70591539  0.42203950  1  0.127951  0  0.112455  0.124172  0  0.997497  0
H  H42  1  0.77253230  0.20591997  0.07796330  1  0.128016  0  0.112396  0.124061  0  0.997572  0
H  H43  1  0.22747729  0.29408345  0.57795994  1  0.128069  0  0.112427  0.12411  0  0.997495  0
H  H44  1  0.14599528  0.68712796  0.01332341  1  0.10505  0  0.114884  0.087335  0  1.004266  0
H  H45  1  0.85399674  0.81287484  0.51332730  1  0.105072  0  0.114867  0.087283  0  1.004334  0
H  H46  1  0.85399712  0.31287565  0.98667499  1  0.105069  0  0.114889  0.087291  0  1.004338  0
H  H47  1  0.14600313  0.18712456  0.48667317  1  0.10498  0  0.114866  0.087262  0  1.004309  0
H  H48  1  0.40543177  0.02628564  0.77238919  1  0.053426  0  0.099733  0.147101  0  0.969557  0
H  H49  1  0.59457101  0.47370822  0.27239095  1  0.053388  0  0.099688  0.147056  0  0.969532  0
H  H50  1  0.59457172  0.97371134  0.22761128  1  0.053437  0  0.09969  0.147051  0  0.969599  0
H  H51  1  0.40541635  0.52628747  0.72761211  1  0.053531  0  0.099731  0.147082  0  0.96961  0
H  H52  1  0.22530121  0.96009675  0.76094600  1  0.050345  0  0.092004  0.131027  0  1.014983  0
H  H53  1  0.77469953  0.53990106  0.26094870  1  0.050495  0  0.092015  0.131063  0  1.014984  0
H  H54  1  0.77470318  0.03989964  0.23905395  1  0.050313  0  0.092005  0.131035  0  1.014957  0
H  H55  1  0.22528736  0.46009645  0.73905591  1  0.050884  0  0.092037  0.130997  0  1.014988  0
H  H56  1  0.35360027  0.98721685  0.68881950  1  0.098507  0  0.092817  0.139243  0  1.039554  0
H  H57  1  0.64640416  0.51277946  0.18882140  1  0.098851  0  0.092824  0.139268  0  1.039441  0
H  H58  1  0.64640136  0.01278438  0.31117941  1  0.098576  0  0.092831  0.139278  0  1.039516  0
H  H59  1  0.35358790  0.48721686  0.81118063  1  0.098364  0  0.092802  0.139248  0  1.039577  0
C  C60  1  0.88877560  0.65238747  0.85459416  1  0.458191  0  0.04489  0.091353  0  3.95757  0
C  C61  1  0.11122709  0.84760952  0.35459771  1  0.458596  0  0.044911  0.091421  0  3.957577  0
C  C62  1  0.11122624  0.34761437  0.14540321  1  0.458355  0  0.044905  0.091345  0  3.957447  0
C  C63  1  0.88877992  0.15239113  0.64540431  1  0.45812  0  0.0449  0.091414  0  3.957645  0
C  C64  1  0.94180550  0.70518230  0.80060187  1  0.038556  0  -0.085633  -0.173938  0  3.946638  0
C  C65  1  0.05820091  0.79481387  0.30060380  1  0.038535  0  -0.085619  -0.173968  0  3.946294  0
C  C66  1  0.05819703  0.29481832  0.19939756  1  0.038585  0  -0.085629  -0.173979  0  3.946609  0
C  C67  1  0.94180077  0.20518432  0.69939512  1  0.038506  0  -0.085582  -0.173911  0  3.946388  0
C  C68  1  0.05115652  0.68535417  0.75487064  1  -0.062717  0  0.011029  0.101003  0  4.009265  0
C  C69  1  0.94884450  0.81464422  0.25487448  1  -0.062511  0  0.01105  0.101063  0  4.008995  0
C  C70  1  0.94884601  0.31464646  0.24512724  1  -0.062728  0  0.011029  0.10104  0  4.009263  0
C  C71  1  0.05115889  0.18535884  0.74512754  1  -0.062703  0  0.011009  0.100998  0  4.00908  0
C  C72  1  0.10360894  0.61301190  0.76717785  1  0.043259  0  -0.077877  -0.153162  0  3.910372  0
C  C73  1  0.89639670  0.88698414  0.26718263  1  0.043258  0  -0.077865  -0.15306  0  3.910226  0
C  C74  1  0.89639093  0.38698750  0.23282107  1  0.043304  0  -0.07791  -0.153267  0  3.910345  0
C  C75  1  0.10360674  0.11301589  0.73281784  1  0.043484  0  -0.077777  -0.152957  0  3.910358  0
C  C76  1  0.04456878  0.56375067  0.82227659  1  0.462364  0  0.046281  0.099359  0  3.948626  0
C  C77  1  0.95543511  0.93624863  0.32228141  1  0.462419  0  0.046368  0.099398  0  3.948366  0
C  C78  1  0.95543327  0.43625178  0.17772026  1  0.462397  0  0.046393  0.099554  0  3.948422  0
C  C79  1  0.04456897  0.06375323  0.67772114  1  0.462395  0  0.046308  0.099355  0  3.948414  0
C  C80  1  0.11127578  0.73560051  0.69562820  1  0.424469  0  0.114178  0.10075  0  4.05571  0
C  C81  1  0.88872784  0.76440008  0.19563097  1  0.424837  0  0.114197  0.100663  0  4.055756  0
C  C82  1  0.88872830  0.26440134  0.30437072  1  0.424828  0  0.114179  0.100716  0  4.055712  0
C  C83  1  0.11127155  0.23560114  0.80437054  1  0.424821  0  0.114159  0.100639  0  4.055937  0
C  C84  1  0.16436297  0.83097290  0.60029835  1  -0.187483  0  -0.027368  -0.227522  0  3.916206  0
C  C85  1  0.83563358  0.66902664  0.10030243  1  -0.187318  0  -0.027363  -0.227532  0  3.916221  0
C  C86  1  0.83563534  0.16902527  0.39969850  1  -0.187504  0  -0.027395  -0.227528  0  3.916111  0
C  C87  1  0.16436490  0.33097518  0.89970114  1  -0.187545  0  -0.027404  -0.227507  0  3.916257  0
C  C88  1  0.26296172  0.77609534  0.60573145  1  0.491623  0  0.110141  0.297596  0  3.975975  0
C  C89  1  0.73703856  0.72390546  0.10573445  1  0.491209  0  0.110153  0.297616  0  3.975945  0
C  C90  1  0.73704263  0.22390408  0.39426643  1  0.491257  0  0.110132  0.297538  0  3.975994  0
C  C91  1  0.26295922  0.27609757  0.89426654  1  0.491578  0  0.110169  0.297643  0  3.976065  0
C  C92  1  0.16311287  0.89570487  0.54857078  1  1.560722  0  0.189894  0.58518  0  4.269601  0
C  C93  1  0.83687728  0.60429381  0.04857254  1  1.560776  0  0.190026  0.585321  0  4.269384  0
C  C94  1  0.83688837  0.10429210  0.45142659  1  1.560847  0  0.189962  0.585308  0  4.269404  0
C  C95  1  0.16312077  0.39570679  0.95143052  1  1.56046  0  0.189806  0.584991  0  4.26973  0
C  C96  1  0.39537588  0.77235171  0.55968738  1  -0.050926  0  -0.241801  -0.437674  0  3.944678  0
C  C97  1  0.60462820  0.72765196  0.05969023  1  -0.050986  0  -0.241769  -0.437585  0  3.944636  0
C  C98  1  0.60462734  0.22764771  0.44031153  1  -0.051043  0  -0.241757  -0.43754  0  3.944604  0
C  C99  1  0.39537050  0.27235048  0.94031076  1  -0.051006  0  -0.241696  -0.437449  0  3.944603  0
C  C100  1  0.38819125  0.59875502  0.92939299  1  0.514636  0  0.054032  0.106729  0  3.920267  0
C  C101  1  0.61181446  0.90124352  0.42939028  1  0.515171  0  0.0541  0.106873  0  3.92058  0
C  C102  1  0.61180611  0.40124680  0.07060955  1  0.514626  0  0.054048  0.106751  0  3.920335  0
C  C103  1  0.38818700  0.09875407  0.57060968  1  0.514655  0  0.054155  0.106946  0  3.920533  0
C  C104  1  0.44050559  0.65514878  0.87775641  1  -0.105946  0  -0.08146  -0.17038  0  3.924132  0
C  C105  1  0.55949388  0.84485254  0.37775673  1  -0.106005  0  -0.081483  -0.170396  0  3.924057  0
C  C106  1  0.55949224  0.34485122  0.12224561  1  -0.105941  0  -0.081532  -0.170407  0  3.924119  0
C  C107  1  0.44050448  0.15514259  0.62224168  1  -0.105987  0  -0.081588  -0.170544  0  3.924312  0
C  C108  1  0.38243779  0.72694164  0.87370556  1  0.00496  0  0.009754  0.090661  0  4.026066  0
C  C109  1  0.61756829  0.77305605  0.37370441  1  0.005088  0  0.009802  0.090726  0  4.025898  0
C  C110  1  0.61756518  0.27306020  0.12629594  1  0.004911  0  0.009774  0.090632  0  4.026156  0
C  C111  1  0.38243723  0.22694034  0.62629555  1  0.00499  0  0.0098  0.090726  0  4.025808  0
C  C112  1  0.27445188  0.73896162  0.92367958  1  0.04356  0  -0.077268  -0.152217  0  3.918595  0
C  C113  1  0.72554466  0.76103927  0.42368172  1  0.043537  0  -0.077308  -0.152353  0  3.918827  0
C  C114  1  0.72554724  0.26104203  0.07632037  1  0.043883  0  -0.077192  -0.152084  0  3.918628  0
C  C115  1  0.27445728  0.23895650  0.57631668  1  0.044202  0  -0.077287  -0.1523  0  3.918954  0
C  C116  1  0.22915247  0.68001776  0.97366011  1  0.434008  0  0.046001  0.097276  0  3.953061  0
C  C117  1  0.77084803  0.81998336  0.47366185  1  0.433951  0  0.045971  0.097353  0  3.952992  0
C  C118  1  0.77084798  0.31998650  0.02633984  1  0.433765  0  0.045992  0.097328  0  3.953144  0
C  C119  1  0.22915722  0.18001547  0.52634173  1  0.433317  0  0.045958  0.09736  0  3.953317  0
C  C120  1  0.42617831  0.78882194  0.82038917  1  0.417642  0  0.114412  0.103451  0  4.060294  0
C  C121  1  0.57382651  0.71117674  0.32039048  1  0.417235  0  0.114392  0.103514  0  4.060098  0
C  C122  1  0.57382737  0.21117810  0.17961078  1  0.417633  0  0.114394  0.103514  0  4.060184  0
C  C123  1  0.42617224  0.28882265  0.67961051  1  0.417552  0  0.114456  0.103546  0  4.060187  0
C  C124  1  0.53429891  0.87699825  0.72526417  1  -0.15664  0  -0.018904  -0.189883  0  3.880175  0
C  C125  1  0.46569910  0.62299696  0.22526696  1  -0.157087  0  -0.018908  -0.18985  0  3.8802  0
C  C126  1  0.46570345  0.12299873  0.27473372  1  -0.156886  0  -0.018897  -0.189827  0  3.880085  0
C  C127  1  0.53429020  0.37700421  0.77473558  1  -0.157316  0  -0.018866  -0.189828  0  3.880055  0
C  C128  1  0.41261431  0.90010143  0.75961926  1  0.49335  0  0.104485  0.282709  0  3.980954  0
C  C129  1  0.58738670  0.59989394  0.25962165  1  0.493079  0  0.104488  0.282708  0  3.980954  0
C  C130  1  0.58739030  0.09989557  0.24037707  1  0.493059  0  0.104542  0.282818  0  3.980843  0
C  C131  1  0.41260200  0.40010236  0.74037986  1  0.492956  0  0.104536  0.282847  0  3.980819  0
C  C132  1  0.62718009  0.91596238  0.66625765  1  1.574312  0  0.181158  0.579253  0  4.282646  0
C  C133  1  0.37282578  0.58402777  0.16626053  1  1.575683  0  0.181042  0.579002  0  4.283152  0
C  C134  1  0.37282227  0.08403460  0.33374075  1  1.575515  0  0.18109  0.579017  0  4.283042  0
C  C135  1  0.62716208  0.41597886  0.83374149  1  1.576836  0  0.181042  0.579066  0  4.283021  0
C  C136  1  0.34470804  0.97253193  0.74400984  1  -0.082737  0  -0.239517  -0.443092  0  3.957235  0
C  C137  1  0.65529490  0.52746521  0.24401229  1  -0.082974  0  -0.239451  -0.443063  0  3.957075  0
C  C138  1  0.65529432  0.02746505  0.25598856  1  -0.082551  0  -0.23948  -0.443078  0  3.957169  0
C  C139  1  0.34469466  0.47253353  0.75599025  1  -0.083071  0  -0.239487  -0.443026  0  3.957172  0
S  S140  1  0.02967657  0.81391184  0.66510521  1  0.277589  0  0.125647  0.170725  0  2.908779  0
S  S141  1  0.97032069  0.68608555  0.16510850  1  0.277814  0  0.125637  0.17073  0  2.908804  0
S  S142  1  0.97032330  0.18608756  0.33489164  1  0.277801  0  0.125631  0.170689  0  2.90872  0
S  S143  1  0.02967400  0.31391504  0.83489508  1  0.277623  0  0.125642  0.170707  0  2.908735  0
S  S144  1  0.57253540  0.78939154  0.76162057  1  0.247237  0  0.104945  0.119223  0  2.846349  0
S  S145  1  0.42746603  0.71060505  0.26162277  1  0.247415  0  0.104979  0.119264  0  2.846226  0
S  S146  1  0.42746895  0.21060788  0.23838042  1  0.24733  0  0.104947  0.119205  0  2.846208  0
S  S147  1  0.57253336  0.28939617  0.73837771  1  0.247518  0  0.104941  0.119188  0  2.846164  0
N  N148  1  0.93859109  0.58263081  0.86533901  1  -1.215944  0  -0.331055  -0.234935  0  3.507666  0
N  N149  1  0.06141667  0.91736504  0.36534193  1  -1.216496  0  -0.331092  -0.235079  0  3.507781  0
N  N150  1  0.06141144  0.41736982  0.13465990  1  -1.21622  0  -0.331129  -0.235071  0  3.50769  0
N  N151  1  0.93858746  0.08263378  0.63465750  1  -1.215956  0  -0.331037  -0.235006  0  3.507456  0
N  N152  1  0.23014820  0.72254569  0.65932367  1  -1.16839  0  -0.324367  -0.34896  0  3.274035  0
N  N153  1  0.76985441  0.77745717  0.15932628  1  -1.168714  0  -0.324384  -0.348981  0  3.273936  0
N  N154  1  0.76985476  0.27745615  0.34067576  1  -1.168705  0  -0.324326  -0.348882  0  3.273984  0
N  N155  1  0.23014717  0.22254710  0.84067471  1  -1.168643  0  -0.324332  -0.348911  0  3.274106  0
N  N156  1  0.28355595  0.61064767  0.97636907  1  -1.224953  0  -0.330507  -0.23898  0  3.517519  0
N  N157  1  0.71643978  0.88935587  0.47636863  1  -1.225203  0  -0.330555  -0.239114  0  3.517558  0
N  N158  1  0.71643693  0.38935412  0.02363140  1  -1.225017  0  -0.330542  -0.239056  0  3.5175  0
N  N159  1  0.28355741  0.11064230  0.52362977  1  -1.224823  0  -0.33053  -0.239044  0  3.517445  0
N  N160  1  0.35406607  0.85013807  0.81288187  1  -1.17079  0  -0.324883  -0.340906  0  3.265641  0
N  N161  1  0.64593930  0.64985876  0.31288430  1  -1.170678  0  -0.32491  -0.341021  0  3.265532  0
N  N162  1  0.64593827  0.14986136  0.18711498  1  -1.170863  0  -0.324944  -0.34107  0  3.265662  0
N  N163  1  0.35405500  0.35013757  0.68711669  1  -1.170691  0  -0.325003  -0.341114  0  3.265648  0
O  O164  1  0.05869744  0.93808581  0.55211542  1  -1.192498  0  -0.341378  -0.601628  0  2.307333  0
O  O165  1  0.94129358  0.56191229  0.05212088  1  -1.192406  0  -0.341481  -0.601749  0  2.307253  0
O  O166  1  0.94130402  0.06191178  0.44787936  1  -1.192656  0  -0.341494  -0.601762  0  2.307278  0
O  O167  1  0.05870004  0.43808525  0.94788373  1  -1.192444  0  -0.341407  -0.601672  0  2.307352  0
O  O168  1  0.26671730  0.90668746  0.50232392  1  -1.134875  0  -0.317458  -0.529481  0  2.186726  0
O  O169  1  0.73328044  0.59331532  0.00232590  1  -1.135011  0  -0.317515  -0.529514  0  2.186755  0
O  O170  1  0.73328481  0.09331195  0.49767449  1  -1.134744  0  -0.317431  -0.529501  0  2.186639  0
O  O171  1  0.26672204  0.40668834  0.99767819  1  -1.134763  0  -0.317386  -0.529337  0  2.186775  0
O  O172  1  0.74091209  0.88512406  0.64794639  1  -1.162522  0  -0.350893  -0.591445  0  2.224974  0
O  O173  1  0.25908961  0.61487267  0.14794762  1  -1.163198  0  -0.350792  -0.591305  0  2.224892  0
O  O174  1  0.25909337  0.11487537  0.35205253  1  -1.163309  0  -0.350866  -0.591354  0  2.225145  0
O  O175  1  0.74090093  0.38513519  0.85205337  1  -1.163636  0  -0.350878  -0.591382  0  2.225022  0
O  O176  1  0.59020284  0.97723633  0.63681824  1  -1.151788  0  -0.329522  -0.548221  0  2.144266  0
O  O177  1  0.40979769  0.52275670  0.13682182  1  -1.152016  0  -0.329523  -0.548136  0  2.144595  0
O  O178  1  0.40979819  0.02276004  0.36318017  1  -1.151833  0  -0.329496  -0.548115  0  2.144339  0
O  O179  1  0.59018280  0.47724806  0.86318073  1  -1.152467  0  -0.329435  -0.548106  0  2.144347  0
