# generated using pymatgen
data_La2H11C15O16
_symmetry_space_group_name_H-M   'P 1'
_cell_length_a   10.47098227
_cell_length_b   14.20743978
_cell_length_c   16.46126770
_cell_angle_alpha   72.33179468
_cell_angle_beta   71.46704623
_cell_angle_gamma   68.38898515
_symmetry_Int_Tables_number   1
_chemical_formula_structural   La2H11C15O16
_chemical_formula_sum   'La8 H44 C60 O64'
_cell_volume   2109.82830492
_cell_formula_units_Z   4
loop_
 _symmetry_equiv_pos_site_id
 _symmetry_equiv_pos_as_xyz
  1  'x, y, z'
loop_
 _atom_site_type_symbol
 _atom_site_label
 _atom_site_symmetry_multiplicity
 _atom_site_fract_x
 _atom_site_fract_y
 _atom_site_fract_z
 _atom_site_occupancy
 _atom_site_pbe_bader_charge
 _atom_site_pbe_bader_spin_density
 _atom_site_pbe_cm5_charge
 _atom_site_pbe_ddec_charge
 _atom_site_pbe_ddec_spin_density
 _atom_site_pbe_ddec_sum_bond_order
 _atom_site_pbe_magmom
La  La0  1  0.75606603  0.20435443  0.12711808  1  2.278023  0  1.422948  1.985697  0  2.309242  0
La  La1  1  0.08763458  0.29561376  0.37287064  1  2.278856  0  1.423203  1.984739  0  2.309661  0
La  La2  1  0.24393459  0.79564823  0.87288344  1  2.278088  0  1.422899  1.985631  0  2.309189  0
La  La3  1  0.91236857  0.70438465  0.62714312  1  2.278689  0  1.42323  1.98479  0  2.309644  0
La  La4  1  0.05826607  0.06433099  0.28012521  1  2.260377  0  1.416474  1.934486  0  2.334908  0
La  La5  1  0.40274196  0.43565443  0.21990051  1  2.264727  0  1.416486  1.933965  0  2.336209  0
La  La6  1  0.94173646  0.93566936  0.71987718  1  2.260308  0  1.416455  1.934347  0  2.33514  0
La  La7  1  0.59726150  0.56434118  0.78010000  1  2.264631  0  1.416463  1.933924  0  2.336263  0
H  H8  1  0.88850258  0.12729986  0.94873243  1  0.65093  0  0.292916  0.382813  0  0.967897  0
H  H9  1  0.96476431  0.37278934  0.55119415  1  0.657795  0  0.294103  0.384312  0  0.966196  0
H  H10  1  0.11149147  0.87269176  0.05126559  1  0.651049  0  0.292875  0.382784  0  0.967948  0
H  H11  1  0.03529175  0.62718848  0.44878824  1  0.657581  0  0.294121  0.38438  0  0.966117  0
H  H12  1  0.02339734  0.07120088  0.99290358  1  0.622867  0  0.327572  0.412808  0  0.880089  0
H  H13  1  0.08748325  0.42907587  0.50699887  1  0.613773  0  0.326018  0.409811  0  0.882678  0
H  H14  1  0.97662297  0.92884859  0.00707603  1  0.62265  0  0.327506  0.412883  0  0.880201  0
H  H15  1  0.91223232  0.57119044  0.49289407  1  0.614749  0  0.326441  0.410131  0  0.881899  0
H  H16  1  0.55276074  0.38948487  0.01727642  1  0.636243  0  0.33379  0.420242  0  0.876702  0
H  H17  1  0.95970327  0.11044640  0.48276190  1  0.642349  0  0.334105  0.420308  0  0.876334  0
H  H18  1  0.44723585  0.61051779  0.98272528  1  0.636222  0  0.333781  0.420219  0  0.876724  0
H  H19  1  0.04029657  0.88955315  0.51724004  1  0.642378  0  0.33411  0.420324  0  0.876327  0
H  H20  1  0.45518434  0.31779761  0.07091450  1  0.668734  0  0.317531  0.412841  0  0.90685  0
H  H21  1  0.84401923  0.18219708  0.42918122  1  0.640533  0  0.317976  0.413384  0  0.906096  0
H  H22  1  0.54481489  0.68220350  0.92908712  1  0.668727  0  0.317519  0.412811  0  0.906881  0
H  H23  1  0.15598265  0.81780244  0.57081972  1  0.640584  0  0.317943  0.413242  0  0.906277  0
H  H24  1  0.64059563  0.07440273  0.08112059  1  0.621087  0  0.308095  0.391722  0  0.925826  0
H  H25  1  0.79624444  0.42539927  0.41887452  1  0.621396  0  0.308587  0.392475  0  0.92458  0
H  H26  1  0.35940559  0.92559598  0.91887949  1  0.621157  0  0.308122  0.391767  0  0.925772  0
H  H27  1  0.20374735  0.57458782  0.58112765  1  0.621215  0  0.308578  0.392517  0  0.924551  0
H  H28  1  0.65787820  0.14365655  0.98555522  1  0.650312  0  0.3012  0.402866  0  0.923316  0
H  H29  1  0.78736824  0.35623090  0.51446344  1  0.646013  0  0.301694  0.402565  0  0.923925  0
H  H30  1  0.34212532  0.85633899  0.01444347  1  0.650317  0  0.301237  0.402899  0  0.923289  0
H  H31  1  0.21263755  0.64376877  0.48554155  1  0.645599  0  0.301582  0.402333  0  0.924197  0
H  H32  1  0.31626790  0.05105974  0.10666432  1  0.636546  0  0.335521  0.413593  0  0.870908  0
H  H33  1  0.47402676  0.44882079  0.39337772  1  0.592775  0  0.335529  0.413096  0  0.871521  0
H  H34  1  0.68373337  0.94894133  0.89333630  1  0.636523  0  0.335517  0.413552  0  0.870952  0
H  H35  1  0.52594001  0.55116823  0.60663492  1  0.593244  0  0.33552  0.413146  0  0.871463  0
H  H36  1  0.29180073  0.16221628  0.12203358  1  0.662013  0  0.311457  0.414893  0  0.898173  0
H  H37  1  0.57619002  0.33773698  0.37794733  1  0.653011  0  0.311974  0.414974  0  0.898069  0
H  H38  1  0.70820207  0.83778334  0.87797018  1  0.662091  0  0.311466  0.414904  0  0.898142  0
H  H39  1  0.42380532  0.66226639  0.62205199  1  0.652961  0  0.311991  0.415056  0  0.897945  0
H  H40  1  0.67834380  0.79934858  0.45670987  1  0.120159  0  0.114109  0.117185  0  0.99837  0
H  H41  1  0.93459454  0.70065422  0.04316002  1  0.098625  0  0.114045  0.117606  0  0.997589  0
H  H42  1  0.32164419  0.20065035  0.54329640  1  0.1203  0  0.114155  0.117254  0  0.998337  0
H  H43  1  0.06539847  0.29934712  0.95684823  1  0.098583  0  0.114031  0.117569  0  0.997614  0
H  H44  1  0.44359327  0.85399945  0.41917332  1  0.128808  0  0.113913  0.127599  0  0.99422  0
H  H45  1  0.71686849  0.64606924  0.08085998  1  0.131123  0  0.113537  0.126573  0  0.993748  0
H  H46  1  0.55639778  0.14599942  0.58083115  1  0.128663  0  0.113888  0.127547  0  0.99433  0
H  H47  1  0.28312946  0.35392736  0.91914680  1  0.130799  0  0.113535  0.126589  0  0.9937  0
H  H48  1  0.70391229  0.84733081  0.22602496  1  0.105037  0  0.110998  0.120385  0  0.986925  0
H  H49  1  0.77716725  0.65250853  0.27456092  1  0.100372  0  0.111117  0.121359  0  0.987402  0
H  H50  1  0.29609177  0.15267093  0.77397249  1  0.104845  0  0.111  0.120426  0  0.986817  0
H  H51  1  0.22282750  0.34749394  0.72543513  1  0.100397  0  0.111138  0.121398  0  0.987445  0
C  C52  1  0.69896498  0.95248339  0.41375979  1  0.00756  0  -0.004356  -0.063233  0  3.933784  0
C  C53  1  0.06530826  0.54751687  0.08611942  1  -0.05718  0  -0.004406  -0.063255  0  3.932937  0
C  C54  1  0.30103711  0.04751064  0.58624022  1  0.007088  0  -0.004312  -0.063295  0  3.933623  0
C  C55  1  0.93468979  0.45248203  0.91388609  1  -0.056851  0  -0.004354  -0.063314  0  3.933029  0
C  C56  1  0.62911360  0.87962733  0.42799014  1  -0.071598  0  -0.071803  -0.074051  0  3.969785  0
C  C57  1  0.93687861  0.62039004  0.07190035  1  -0.032356  0  -0.072594  -0.076652  0  3.966459  0
C  C58  1  0.37088113  0.12036993  0.57201285  1  -0.071426  0  -0.071773  -0.073973  0  3.969595  0
C  C59  1  0.06311479  0.37961044  0.92810564  1  -0.032702  0  -0.072551  -0.076598  0  3.966268  0
C  C60  1  0.49933962  0.90972538  0.40759419  1  0.058228  0  -0.073689  -0.082473  0  3.959751  0
C  C61  1  0.81674006  0.59031705  0.09237843  1  0.020438  0  -0.07264  -0.079598  0  3.954812  0
C  C62  1  0.50065620  0.09027419  0.59240792  1  0.058322  0  -0.073684  -0.08237  0  3.95979  0
C  C63  1  0.18326098  0.40968187  0.90762770  1  0.020997  0  -0.072639  -0.079597  0  3.954668  0
C  C64  1  0.43427994  0.01402779  0.37422403  1  0.010155  0  -0.000978  -0.039463  0  3.934979  0
C  C65  1  0.82252306  0.48603429  0.12576631  1  0.03952  0  -0.001464  -0.040165  0  3.932854  0
C  C66  1  0.56572006  0.98597400  0.62577482  1  0.010326  0  -0.000986  -0.039565  0  3.935071  0
C  C67  1  0.17748123  0.51396152  0.87424005  1  0.038991  0  -0.001402  -0.04011  0  3.932834  0
C  C68  1  0.50307472  0.08815184  0.35910908  1  -0.060166  0  0.009902  -0.055004  0  3.880064  0
C  C69  1  0.95034694  0.41187981  0.14081936  1  -0.056434  0  0.011399  -0.05356  0  3.874378  0
C  C70  1  0.49692877  0.91184373  0.64089022  1  -0.060418  0  0.009955  -0.055016  0  3.880054  0
C  C71  1  0.04964873  0.58811995  0.85918820  1  -0.056551  0  0.011401  -0.053634  0  3.874415  0
C  C72  1  0.63596019  0.05720577  0.37860242  1  -0.037252  0  0.008326  -0.059628  0  3.895381  0
C  C73  1  0.07180368  0.44276601  0.12129512  1  0.034038  0  0.006963  -0.062392  0  3.896127  0
C  C74  1  0.36404753  0.94278672  0.62139813  1  -0.036695  0  0.008366  -0.059462  0  3.895346  0
C  C75  1  0.92819516  0.55723597  0.87870937  1  0.034403  0  0.006983  -0.062321  0  3.896293  0
C  C76  1  0.83799416  0.91434339  0.43915617  1  1.600797  0  0.239759  0.638936  0  4.153566  0
C  C77  1  0.19162948  0.58561384  0.06083040  1  1.603349  0  0.242025  0.642375  0  4.151069  0
C  C78  1  0.16201010  0.08564280  0.56084258  1  1.601098  0  0.239657  0.638718  0  4.153768  0
C  C79  1  0.80837630  0.41438100  0.93917048  1  1.603141  0  0.241984  0.64244  0  4.150918  0
C  C80  1  0.70475603  0.14019286  0.36161299  1  1.605741  0  0.233495  0.610548  0  4.200948  0
C  C81  1  0.20652258  0.35976740  0.13832493  1  1.60849  0  0.233645  0.613684  0  4.200334  0
C  C82  1  0.29525151  0.85980268  0.63838552  1  1.605566  0  0.23347  0.610403  0  4.201089  0
C  C83  1  0.79348022  0.64023223  0.86167884  1  1.608179  0  0.233624  0.61381  0  4.200195  0
C  C84  1  0.44884196  0.20103900  0.31854437  1  1.602701  0  0.241251  0.640568  0  4.139859  0
C  C85  1  0.96833682  0.29900579  0.18140910  1  1.58582  0  0.239077  0.639289  0  4.142589  0
C  C86  1  0.55116336  0.79895960  0.68145250  1  1.602726  0  0.241342  0.64076  0  4.139602  0
C  C87  1  0.03166584  0.70099161  0.81859775  1  1.585684  0  0.239084  0.63933  0  4.142687  0
C  C88  1  0.29302658  0.04100003  0.35614808  1  1.549266  0  0.211995  0.583511  0  4.193647  0
C  C89  1  0.69016566  0.45903880  0.14392876  1  1.538674  0  0.21324  0.586738  0  4.193784  0
C  C90  1  0.70697260  0.95899872  0.64385299  1  1.549234  0  0.21196  0.583521  0  4.193761  0
C  C91  1  0.30984140  0.54095530  0.85607329  1  1.538925  0  0.213304  0.586893  0  4.193481  0
C  C92  1  0.80975917  0.80324873  0.23567081  1  -0.000998  0  -0.077432  -0.080695  0  3.974661  0
C  C93  1  0.84855871  0.69667993  0.26477134  1  -0.072686  0  -0.079116  -0.085663  0  3.978083  0
C  C94  1  0.19023360  0.19675853  0.76432852  1  -0.001031  0  -0.0775  -0.080866  0  3.974733  0
C  C95  1  0.15143709  0.30332732  0.73522741  1  -0.072584  0  -0.079052  -0.085576  0  3.978307  0
C  C96  1  0.90834341  0.85646366  0.21733675  1  -0.033306  0  -0.015101  -0.072296  0  3.971514  0
C  C97  1  0.98214953  0.64349842  0.28285921  1  -0.016261  0  -0.011218  -0.065223  0  3.967862  0
C  C98  1  0.09164498  0.14354202  0.78266207  1  -0.033041  0  -0.014997  -0.072124  0  3.971534  0
C  C99  1  0.01784573  0.35650263  0.71714077  1  -0.016617  0  -0.011165  -0.065077  0  3.967922  0
C  C100  1  0.04586085  0.80296634  0.23028348  1  -0.042102  0  0.008142  -0.049154  0  3.864159  0
C  C101  1  0.07911225  0.69703872  0.26977087  1  0.012808  0  0.007246  -0.052113  0  3.863929  0
C  C102  1  0.95414018  0.19704066  0.76970823  1  -0.041266  0  0.008138  -0.049211  0  3.864237  0
C  C103  1  0.92088748  0.30296904  0.73022028  1  0.012689  0  0.007209  -0.052181  0  3.864221  0
C  C104  1  0.86275682  0.97132258  0.18777853  1  1.544898  0  0.20958  0.579539  0  4.226846  0
C  C105  1  0.02195179  0.52864139  0.31231294  1  1.556476  0  0.208837  0.577582  0  4.220655  0
C  C106  1  0.13724013  0.02868167  0.81222387  1  1.544604  0  0.209565  0.57941  0  4.226951  0
C  C107  1  0.97803801  0.47136544  0.68769622  1  1.555836  0  0.208853  0.577654  0  4.219896  0
C  C108  1  0.15842115  0.85803542  0.19425201  1  1.636502  0  0.225896  0.62747  0  4.216279  0
C  C109  1  0.21078326  0.64194408  0.30576171  1  1.626138  0  0.224912  0.625853  0  4.216463  0
C  C110  1  0.84158475  0.14196451  0.80573830  1  1.635459  0  0.225682  0.627159  0  4.216144  0
C  C111  1  0.78922297  0.35806512  0.69422592  1  1.626025  0  0.225009  0.625914  0  4.216801  0
O  O112  1  0.92689831  0.96519562  0.40396021  1  -1.196549  0  -0.385659  -0.628763  0  2.296231  0
O  O113  1  0.29604927  0.53473077  0.09613673  1  -1.210802  0  -0.386318  -0.630247  0  2.296647  0
O  O114  1  0.07310238  0.03479407  0.59604920  1  -1.196819  0  -0.385616  -0.628616  0  2.296299  0
O  O115  1  0.70395435  0.46526184  0.90386702  1  -1.210544  0  -0.386296  -0.63028  0  2.296576  0
O  O116  1  0.86068802  0.83103102  0.49631365  1  -1.208635  0  -0.391898  -0.621954  0  2.328316  0
O  O117  1  0.18833736  0.66891561  0.00368759  1  -1.204006  0  -0.393542  -0.624021  0  2.328187  0
O  O118  1  0.13932590  0.16894151  0.50367367  1  -1.208557  0  -0.391912  -0.62175  0  2.3285  0
O  O119  1  0.81167312  0.33107759  0.99631100  1  -1.204095  0  -0.393589  -0.624127  0  2.32821  0
O  O120  1  0.79589171  0.15090275  0.28814004  1  -1.222147  0  -0.413441  -0.696201  0  2.42496  0
O  O121  1  0.23484705  0.34902783  0.21182365  1  -1.214446  0  -0.412712  -0.696471  0  2.424699  0
O  O122  1  0.20411674  0.84909049  0.71185955  1  -1.222082  0  -0.413444  -0.696166  0  2.424912  0
O  O123  1  0.76515546  0.65097254  0.78817935  1  -1.214705  0  -0.412804  -0.696596  0  2.424758  0
O  O124  1  0.66858873  0.19556604  0.41660254  1  -1.156598  0  -0.281819  -0.515133  0  2.142617  0
O  O125  1  0.28068208  0.30439080  0.08333971  1  -1.163536  0  -0.281988  -0.516539  0  2.142423  0
O  O126  1  0.33141748  0.80443028  0.58339601  1  -1.156746  0  -0.281868  -0.515126  0  2.142695  0
O  O127  1  0.71932197  0.69561336  0.91666010  1  -1.163191  0  -0.281967  -0.516603  0  2.142231  0
O  O128  1  0.52113534  0.23264622  0.24290293  1  -1.2065  0  -0.383921  -0.635089  0  2.321921  0
O  O129  1  0.99658635  0.26741612  0.25705977  1  -1.201153  0  -0.383005  -0.633858  0  2.322771  0
O  O130  1  0.47886898  0.76734997  0.75709178  1  -1.206318  0  -0.383931  -0.635064  0  2.3217  0
O  O131  1  0.00341463  0.73258047  0.74294642  1  -1.200815  0  -0.382975  -0.633798  0  2.322866  0
O  O132  1  0.34616558  0.26451693  0.35921912  1  -1.19729  0  -0.370958  -0.634501  0  2.299356  0
O  O133  1  0.96975879  0.23552085  0.14073777  1  -1.197758  0  -0.369593  -0.63471  0  2.300017  0
O  O134  1  0.65384419  0.73548316  0.64077585  1  -1.197553  0  -0.371088  -0.634772  0  2.299317  0
O  O135  1  0.03024433  0.76447800  0.85926615  1  -1.197821  0  -0.369578  -0.634686  0  2.299912  0
O  O136  1  0.23554285  0.13400935  0.31680583  1  -1.21004  0  -0.412462  -0.666896  0  2.35408  0
O  O137  1  0.68639465  0.36598838  0.18317867  1  -1.212513  0  -0.412417  -0.667425  0  2.352348  0
O  O138  1  0.76445225  0.86598947  0.68319725  1  -1.210117  0  -0.412475  -0.666918  0  2.354159  0
O  O139  1  0.31361100  0.63400903  0.81682880  1  -1.212397  0  -0.412498  -0.667483  0  2.352298  0
O  O140  1  0.23193809  0.97197192  0.37761820  1  -1.165941  0  -0.348406  -0.552215  0  2.158349  0
O  O141  1  0.58145941  0.52808471  0.12258981  1  -1.164465  0  -0.349331  -0.55398  0  2.159742  0
O  O142  1  0.76806506  0.02802447  0.62238215  1  -1.165888  0  -0.348356  -0.552173  0  2.158377  0
O  O143  1  0.41855084  0.47190434  0.87740149  1  -1.16453  0  -0.349337  -0.554036  0  2.159502  0
O  O144  1  0.73935578  0.01727274  0.17426215  1  -1.191886  0  -0.355823  -0.607399  0  2.24089  0
O  O145  1  0.93096838  0.48266743  0.32589034  1  -1.192122  0  -0.355675  -0.606493  0  2.238808  0
O  O146  1  0.26063664  0.98273495  0.82574929  1  -1.191937  0  -0.355848  -0.607409  0  2.240863  0
O  O147  1  0.06900735  0.51734626  0.67413667  1  -1.190939  0  -0.355785  -0.606468  0  2.238569  0
O  O148  1  0.94757761  0.02253839  0.17753156  1  -1.19695  0  -0.382091  -0.65767  0  2.346571  0
O  O149  1  0.14779949  0.47743232  0.32242381  1  -1.20612  0  -0.382386  -0.657461  0  2.34275  0
O  O150  1  0.05242742  0.97746096  0.82246454  1  -1.196879  0  -0.382138  -0.657699  0  2.346687  0
O  O151  1  0.85219102  0.52257283  0.67758204  1  -1.20603  0  -0.382291  -0.657339  0  2.342517  0
O  O152  1  0.19054014  0.89322363  0.24469550  1  -1.18352  0  -0.390466  -0.613812  0  2.216303  0
O  O153  1  0.32852322  0.60683200  0.25532004  1  -1.193277  0  -0.389779  -0.61278  0  2.215572  0
O  O154  1  0.80947030  0.10677766  0.75528927  1  -1.182938  0  -0.390503  -0.613742  0  2.216203  0
O  O155  1  0.67147682  0.39317256  0.74466890  1  -1.193261  0  -0.389796  -0.61276  0  2.215634  0
O  O156  1  0.21265144  0.86436852  0.11275249  1  -1.190141  0  -0.304263  -0.565433  0  2.213073  0
O  O157  1  0.18983172  0.63544565  0.38730520  1  -1.179232  0  -0.304689  -0.565898  0  2.213295  0
O  O158  1  0.78735778  0.13562056  0.88723961  1  -1.190315  0  -0.304124  -0.565274  0  2.213054  0
O  O159  1  0.81016998  0.36457987  0.61268116  1  -1.179228  0  -0.304766  -0.565986  0  2.21335  0
O  O160  1  0.92579572  0.11461184  0.00182956  1  -1.276063  0  -0.622952  -0.824992  0  2.089389  0
O  O161  1  0.04258921  0.38532603  0.49817790  1  -1.272557  0  -0.62246  -0.822964  0  2.089181  0
O  O162  1  0.07418234  0.88534907  0.99818208  1  -1.275991  0  -0.622935  -0.82512  0  2.089293  0
O  O163  1  0.95762832  0.61449979  0.50187257  1  -1.273346  0  -0.622475  -0.823237  0  2.088963  0
O  O164  1  0.52290669  0.34873640  0.07578721  1  -1.271149  0  -0.602006  -0.827845  0  2.159749  0
O  O165  1  0.94753925  0.15122591  0.42426412  1  -1.249087  0  -0.603119  -0.829314  0  2.158702  0
O  O166  1  0.47709684  0.65126155  0.92421323  1  -1.271123  0  -0.601994  -0.827782  0  2.159817  0
O  O167  1  0.05246180  0.84876817  0.57573729  1  -1.24909  0  -0.603108  -0.829169  0  2.158785  0
O  O168  1  0.61302391  0.14580444  0.04800572  1  -1.255352  0  -0.605099  -0.790348  0  1.964472  0
O  O169  1  0.80712706  0.35399926  0.45202673  1  -1.251645  0  -0.606132  -0.790852  0  1.965562  0
O  O170  1  0.38698299  0.85419267  0.95199309  1  -1.255414  0  -0.605203  -0.790462  0  1.964398  0
O  O171  1  0.19286762  0.64599040  0.54798205  1  -1.251029  0  -0.605955  -0.790583  0  1.965662  0
O  O172  1  0.26889425  0.09611546  0.14830307  1  -1.277826  0  -0.600467  -0.801665  0  2.007486  0
O  O173  1  0.51359172  0.40386980  0.35165046  1  -1.224423  0  -0.601023  -0.800995  0  2.008014  0
O  O174  1  0.73111020  0.90388258  0.85170020  1  -1.277896  0  -0.600486  -0.801632  0  2.007515  0
O  O175  1  0.48641346  0.59613663  0.64834727  1  -1.22488  0  -0.601026  -0.801135  0  2.007883  0
