# generated using pymatgen
data_MnH60(C35N4)2
_symmetry_space_group_name_H-M   'P 1'
_cell_length_a   15.30743710
_cell_length_b   15.12460873
_cell_length_c   16.58198627
_cell_angle_alpha   89.35361770
_cell_angle_beta   115.62394547
_cell_angle_gamma   91.16484490
_symmetry_Int_Tables_number   1
_chemical_formula_structural   MnH60(C35N4)2
_chemical_formula_sum   'Mn2 H120 C140 N16'
_cell_volume   3460.75340460
_cell_formula_units_Z   2
loop_
 _symmetry_equiv_pos_site_id
 _symmetry_equiv_pos_as_xyz
  1  'x, y, z'
loop_
 _atom_site_type_symbol
 _atom_site_label
 _atom_site_symmetry_multiplicity
 _atom_site_fract_x
 _atom_site_fract_y
 _atom_site_fract_z
 _atom_site_occupancy
 _atom_site_pbe_bader_charge
 _atom_site_pbe_bader_spin_density
 _atom_site_pbe_cm5_charge
 _atom_site_pbe_ddec_charge
 _atom_site_pbe_ddec_spin_density
 _atom_site_pbe_ddec_sum_bond_order
 _atom_site_pbe_magmom
Mn  Mn0  1  0.99999954  0.99999813  0.00000005  1  1.651799  -3.52847  0.869727  0.930346  -3.658053  3.057898  -3.508
Mn  Mn1  1  0.50000304  0.49999901  0.50000434  1  1.656828  -3.516085  0.870265  0.927738  -3.646808  3.071581  -3.497
H  H2  1  0.28051691  0.92313865  0.91285097  1  0.108629  -9.8e-05  0.110806  0.126316  1.5e-05  1.01237  0.0
H  H3  1  0.71948629  0.07686005  0.08715596  1  0.108657  -9.8e-05  0.110825  0.126386  1.5e-05  1.012326  0.0
H  H4  1  0.11751347  0.92155730  0.75529673  1  0.087718  -0.000148  0.113659  0.130818  2.6e-05  0.997892  0.0
H  H5  1  0.88249046  0.07844280  0.24470507  1  0.087873  -0.000147  0.113624  0.130802  2.6e-05  0.997898  0.0
H  H6  1  0.74535200  0.93669889  0.67100389  1  0.07379  -0.000181  0.107967  0.121815  -1.5e-05  1.02776  0.0
H  H7  1  0.25464654  0.06331982  0.32899098  1  0.073833  -0.00018  0.107923  0.12178  -1.5e-05  1.027864  0.0
H  H8  1  0.63857055  0.98272334  0.75848304  1  0.116353  -0.000105  0.108306  0.125917  0.0  1.033895  0.0
H  H9  1  0.36143521  0.01729331  0.24151830  1  0.116337  -0.000105  0.10827  0.125875  0.0  1.033916  0.0
H  H10  1  0.85788414  0.06486642  0.49392515  1  0.041012  1.3e-05  0.096415  0.100791  1e-05  1.008111  0.0
H  H11  1  0.14210518  0.93512774  0.50607326  1  0.040905  1.3e-05  0.096456  0.100799  1e-05  1.008076  0.0
H  H12  1  0.91097566  0.78612005  0.52992034  1  0.08921  8e-06  0.093361  0.10178  1e-05  1.057557  0.0
H  H13  1  0.08902377  0.21387207  0.47008388  1  0.08921  8e-06  0.093386  0.101771  1e-05  1.057571  0.0
H  H14  1  0.96900228  0.13091803  0.70576307  1  0.106707  6e-05  0.090369  0.135496  9.8e-05  1.033025  0.0
H  H15  1  0.03098718  0.86908206  0.29423722  1  0.106459  6e-05  0.090366  0.135516  9.8e-05  1.033026  0.0
H  H16  1  0.86105577  0.15338084  0.60826132  1  0.031503  -6e-06  0.088748  0.124187  -1.5e-05  1.017275  0.0
H  H17  1  0.13893859  0.84661341  0.39173185  1  0.031473  -6e-06  0.088778  0.124251  -1.5e-05  1.017307  0.0
H  H18  1  0.85485133  0.10600732  0.70415059  1  0.044667  -5.6e-05  0.087559  0.126832  -1.8e-05  1.022513  0.0
H  H19  1  0.14513580  0.89398762  0.29583972  1  0.045827  -5.6e-05  0.087585  0.126911  -1.8e-05  1.022441  0.0
H  H20  1  0.84292136  0.85089076  0.37843511  1  0.074969  -1.7e-05  0.089869  0.130329  -2.7e-05  1.028622  0.0
H  H21  1  0.15706075  0.14910473  0.62156165  1  0.074843  -1.7e-05  0.089853  0.130326  -2.7e-05  1.028472  0.0
H  H22  1  0.80961321  0.96424478  0.36253903  1  0.019869  1e-06  0.08944  0.124306  5e-06  1.005894  0.0
H  H23  1  0.19037262  0.03575392  0.63746525  1  0.019727  1e-06  0.089495  0.124351  5e-06  1.005788  0.0
H  H24  1  0.93158210  0.93449172  0.39649418  1  0.078039  -9e-06  0.090944  0.135108  -8e-06  1.015225  0.0
H  H25  1  0.06840222  0.06550578  0.60350105  1  0.078529  -9e-06  0.090982  0.135186  -8e-06  1.015297  0.0
H  H26  1  0.94346667  0.78399528  0.76657861  1  0.032304  5.5e-05  0.086894  0.120467  8.9e-05  1.02296  0.0
H  H27  1  0.05653878  0.21600675  0.23342740  1  0.032505  5.5e-05  0.0869  0.120459  8.8e-05  1.022931  0.0
H  H28  1  0.90481492  0.71920437  0.66748788  1  0.049706  -4.2e-05  0.088866  0.125735  -4.3e-05  1.032156  0.0
H  H29  1  0.09517757  0.28080028  0.33251783  1  0.050018  -4.2e-05  0.088825  0.125744  -4.3e-05  1.032094  0.0
H  H30  1  0.02694241  0.75483096  0.72409671  1  0.058318  -6.7e-05  0.091443  0.129142  -5.3e-05  0.989586  0.0
H  H31  1  0.97305411  0.24516191  0.27590153  1  0.058468  -6.7e-05  0.091433  0.129141  -5.3e-05  0.989531  0.0
H  H32  1  0.50693029  0.78560781  0.17661172  1  0.081318  0.000106  0.099338  0.114066  9.9e-05  1.017823  0.0
H  H33  1  0.49306862  0.21439360  0.82338990  1  0.081275  0.000107  0.099334  0.114053  9.9e-05  1.017817  0.0
H  H34  1  0.55709441  0.04893548  0.10295400  1  0.049306  8e-06  0.094966  0.101114  -1e-06  1.014382  0.0
H  H35  1  0.44290732  0.95106332  0.89704572  1  0.049278  8e-06  0.094972  0.101107  -1e-06  1.014363  0.0
H  H36  1  0.29228387  0.81620481  0.18358470  1  0.044351  3e-06  0.090026  0.129596  1.6e-05  1.001631  0.0
H  H37  1  0.70771575  0.18379592  0.81641841  1  0.044384  3e-06  0.090029  0.1296  1.7e-05  1.001695  0.0
H  H38  1  0.35197610  0.73474634  0.14969844  1  0.060248  0.000189  0.089487  0.130468  0.000223  1.016599  0.0
H  H39  1  0.64802287  0.26525772  0.85030381  1  0.060194  0.000189  0.089477  0.130471  0.000223  1.01663  0.0
H  H40  1  0.24916966  0.79042855  0.06926095  1  0.051907  4.8e-05  0.090916  0.129984  8.1e-05  0.998035  0.0
H  H41  1  0.75082707  0.20957217  0.93074282  1  0.051872  4.8e-05  0.090921  0.129982  8.1e-05  0.998078  0.0
H  H42  1  0.68352713  0.88629485  0.25318036  1  0.059912  -3e-06  0.092225  0.127878  6e-06  1.025551  0.0
H  H43  1  0.31647235  0.11370135  0.74681605  1  0.05987  -3e-06  0.092216  0.127892  6e-06  1.025433  0.0
H  H44  1  0.69140733  0.95009738  0.16636805  1  0.04099  -3e-05  0.086832  0.121959  -4e-06  1.02879  0.0
H  H45  1  0.30859297  0.04990207  0.83363291  1  0.040986  -3e-05  0.086833  0.121949  -4e-06  1.028745  0.0
H  H46  1  0.66288908  0.83559688  0.15161782  1  0.05431  0.00012  0.087855  0.11871  0.000119  1.0446  0.0
H  H47  1  0.33710903  0.16440264  0.84837744  1  0.054332  0.00012  0.087834  0.118695  0.000119  1.044468  0.0
H  H48  1  0.31339047  0.10239868  0.97399137  1  0.046964  0.000209  0.087813  0.12105  0.000302  1.042627  0.0
H  H49  1  0.68661183  0.89759422  0.02600555  1  0.046979  0.000209  0.087776  0.120932  0.000302  1.042717  0.0
H  H50  1  0.43042302  0.14944054  0.03747344  1  0.037223  1.8e-05  0.092167  0.132362  -2.2e-05  0.990221  0.0
H  H51  1  0.56957795  0.85055766  0.96252235  1  0.037294  1.8e-05  0.092152  0.132333  -2.2e-05  0.990257  0.0
H  H52  1  0.34374287  0.14223650  0.08229738  1  0.018243  0.00035  0.086888  0.118986  0.000577  1.036942  0.0
H  H53  1  0.65625523  0.85776303  0.91769728  1  0.018184  0.00035  0.08683  0.118904  0.000577  1.036982  0.0
H  H54  1  0.74960247  0.75291129  0.52177651  1  0.130262  -8.4e-05  0.10772  0.121935  8e-06  1.042043  0.0
H  H55  1  0.25039127  0.24708899  0.47821160  1  0.130363  -8.4e-05  0.107722  0.121979  8e-06  1.041938  0.0
H  H56  1  0.61728921  0.82986115  0.56564569  1  0.093907  -0.000136  0.111291  0.126115  1.8e-05  1.013584  0.0
H  H57  1  0.38271104  0.17013773  0.43434861  1  0.093896  -0.000136  0.111278  0.126074  1.8e-05  1.013562  0.0
H  H58  1  0.30674174  0.72396348  0.59774741  1  0.11521  -0.000125  0.113246  0.132804  2e-06  0.994885  0.0
H  H59  1  0.69326006  0.27603865  0.40225113  1  0.115225  -0.000124  0.113247  0.13283  2e-06  0.994839  0.0
H  H60  1  0.21706764  0.56442943  0.58865549  1  0.122058  -7.8e-05  0.112171  0.127879  2.5e-05  1.010249  0.0
H  H61  1  0.78292913  0.43557471  0.41134047  1  0.121988  -7.8e-05  0.112218  0.127972  2.5e-05  1.010085  0.0
H  H62  1  0.47870259  0.95276303  0.73337716  1  0.089188  3e-06  0.092411  0.099809  -1e-06  1.055376  0.0
H  H63  1  0.52129634  0.04724113  0.26661723  1  0.089092  3e-06  0.092465  0.09988  -1e-06  1.055218  0.0
H  H64  1  0.34472051  0.98841252  0.44823419  1  0.027033  -2.9e-05  0.093843  0.099689  -8e-06  1.031535  0.0
H  H65  1  0.65526878  0.01158103  0.55176059  1  0.026959  -2.9e-05  0.093825  0.099698  -8e-06  1.031595  0.0
H  H66  1  0.61020029  0.79204290  0.76251315  1  0.032785  -8.2e-05  0.088203  0.128194  -6.4e-05  1.010758  0.0
H  H67  1  0.38980229  0.20796115  0.23748992  1  0.032834  -8.2e-05  0.088173  0.128185  -6.4e-05  1.010736  0.0
H  H68  1  0.51370206  0.80210651  0.79318110  1  0.060263  -1e-06  0.092435  0.134633  -4e-05  1.001057  0.0
H  H69  1  0.48629903  0.19789626  0.20681837  1  0.059863  -1e-06  0.092448  0.134661  -4e-05  1.000935  0.0
H  H70  1  0.51528874  0.71199333  0.72587450  1  0.022324  0.000152  0.085135  0.1182  0.000325  1.03641  0.0
H  H71  1  0.48471600  0.28801005  0.27412943  1  0.022393  0.000151  0.085164  0.118276  0.000324  1.036414  0.0
H  H72  1  0.31956690  0.09590207  0.56225328  1  0.040176  -4.5e-05  0.088868  0.129765  -3.3e-05  1.018319  0.0
H  H73  1  0.68042600  0.90409219  0.43773872  1  0.040215  -4.5e-05  0.088881  0.129788  -3.3e-05  1.018349  0.0
H  H74  1  0.41142500  0.09157789  0.67468952  1  0.077883  -1.4e-05  0.088005  0.126744  -1e-05  1.039699  0.0
H  H75  1  0.58857240  0.90842300  0.32530245  1  0.077762  -1.4e-05  0.088021  0.126773  -1e-05  1.039761  0.0
H  H76  1  0.44162000  0.12079276  0.58627699  1  0.033066  -0.000173  0.087157  0.125275  -0.000137  1.032536  0.0
H  H77  1  0.55837446  0.87920682  0.41371321  1  0.033046  -0.000174  0.087162  0.125283  -0.000137  1.032488  0.0
H  H78  1  0.42008672  0.78706078  0.39070388  1  0.031594  -6e-06  0.090355  0.127811  4e-05  1.012164  0.0
H  H79  1  0.57990043  0.21293339  0.60929427  1  0.031444  -6e-06  0.090309  0.127759  4e-05  1.012077  0.0
H  H80  1  0.30390080  0.77346401  0.38692319  1  0.028218  2e-05  0.092801  0.131934  4.7e-05  0.989675  0.0
H  H81  1  0.69608990  0.22652611  0.61308058  1  0.028571  2e-05  0.092784  0.13191  4.7e-05  0.989792  0.0
H  H82  1  0.33597427  0.87475390  0.35046305  1  0.02437  -0.000189  0.087179  0.121991  -0.000198  1.029122  0.0
H  H83  1  0.66401136  0.12523692  0.64953691  1  0.025711  -0.000189  0.087221  0.122061  -0.000198  1.029057  0.0
H  H84  1  0.85832574  0.70869541  0.31712311  1  0.079157  0.00025  0.095652  0.106625  0.000401  1.059028  0.0
H  H85  1  0.14166457  0.29130995  0.68287813  1  0.079182  0.00025  0.095645  0.106598  0.000402  1.059118  0.0
H  H86  1  0.03768703  0.59945012  0.57555706  1  0.028854  1.3e-05  0.095293  0.101665  1.8e-05  1.010185  0.0
H  H87  1  0.96231233  0.40054220  0.42443326  1  0.028872  1.3e-05  0.095354  0.101727  1.8e-05  1.010101  0.0
H  H88  1  0.63408933  0.69194365  0.33380737  1  0.039605  -3.6e-05  0.08897  0.12827  -3.3e-05  1.007225  0.0
H  H89  1  0.36590146  0.30805185  0.66619042  1  0.039647  -3.6e-05  0.088981  0.128279  -3.3e-05  1.007358  0.0
H  H90  1  0.64839896  0.60024789  0.27654984  1  0.073627  0.000203  0.089694  0.132705  0.000274  1.013005  0.0
H  H91  1  0.35160568  0.39975229  0.72344680  1  0.073962  0.000203  0.089689  0.132727  0.000274  1.013026  0.0
H  H92  1  0.68945763  0.70587863  0.25966778  1  0.035717  1e-06  0.092355  0.132996  -2.4e-05  1.013181  0.0
H  H93  1  0.31053559  0.29412741  0.74033340  1  0.036038  1e-06  0.092364  0.13296  -2.4e-05  1.013198  0.0
H  H94  1  0.03187831  0.70502102  0.36734862  1  0.067207  0.000128  0.094242  0.134495  0.00018  0.996677  0.0
H  H95  1  0.96811294  0.29496542  0.63263607  1  0.068294  0.000129  0.094142  0.134366  0.000181  0.996717  0.0
H  H96  1  0.10891133  0.65280808  0.47007109  1  0.025881  -0.00017  0.083519  0.114195  -0.00017  1.055826  0.0
H  H97  1  0.89107851  0.34718035  0.52991244  1  0.025618  -0.00017  0.083491  0.114167  -0.00017  1.055712  0.0
H  H98  1  0.06578346  0.76048918  0.47007256  1  0.048285  -8e-06  0.091782  0.128256  -5e-06  0.996353  0.0
H  H99  1  0.93421508  0.23950133  0.52990597  1  0.047999  -8e-06  0.091776  0.128231  -5e-06  0.99633  0.0
H  H100  1  0.85655100  0.56940857  0.64971707  1  0.029459  3.7e-05  0.088902  0.122409  6.6e-05  1.026001  0.0
H  H101  1  0.14345062  0.43058699  0.35027778  1  0.029192  3.7e-05  0.088873  0.122412  6.5e-05  1.025995  0.0
H  H102  1  0.97187040  0.53154705  0.66417058  1  0.011917  1e-05  0.092503  0.13112  0.0  0.991126  0.0
H  H103  1  0.02812760  0.46844854  0.33582162  1  -0.003948  1e-05  0.092468  0.131087  0.0  0.991061  0.0
H  H104  1  0.86482410  0.46824970  0.60226252  1  0.043849  -3.2e-05  0.090981  0.130113  -1.4e-05  1.013521  0.0
H  H105  1  0.13517460  0.53174454  0.39773177  1  0.043904  -3.2e-05  0.091002  0.130151  -1.4e-05  1.013441  0.0
H  H106  1  0.15732237  0.25678061  0.10614272  1  0.056344  -0.000479  0.100746  0.10931  -0.000966  1.015033  0.0
H  H107  1  0.84268032  0.74322735  0.89386403  1  0.056197  -0.000479  0.10074  0.109327  -0.000966  1.015033  0.0
H  H108  1  0.38210730  0.45349006  0.04487008  1  0.093522  -0.000139  0.103625  0.112343  -0.000741  1.017653  0.0
H  H109  1  0.61790673  0.54650730  0.95513994  1  0.093677  -0.000139  0.103625  0.112405  -0.000742  1.017557  0.0
H  H110  1  0.32124120  0.35088828  0.30233000  1  0.077392  0.001128  0.090586  0.128705  0.00087  1.040869  0.001
H  H111  1  0.67876492  0.64911107  0.69767869  1  0.07746  0.001129  0.090626  0.128782  0.000871  1.040752  0.001
H  H112  1  0.22582092  0.42652376  0.25513461  1  0.051905  0.001579  0.095082  0.136001  0.001169  0.993583  0.001
H  H113  1  0.77418887  0.57347755  0.74487553  1  0.051403  0.001581  0.095095  0.136013  0.00117  0.993595  0.001
H  H114  1  0.20048574  0.31082540  0.24452783  1  0.042665  -0.00032  0.092121  0.130252  -0.000348  1.012759  0.0
H  H115  1  0.79952265  0.68917860  0.75547935  1  0.042625  -0.00032  0.092113  0.130255  -0.000348  1.012682  0.0
H  H116  1  0.34822483  0.39450381  0.91179523  1  0.06351  6e-06  0.097679  0.14203  -3.9e-05  0.991818  0.0
H  H117  1  0.65178843  0.60549089  0.08821628  1  0.063546  6e-06  0.097624  0.141983  -3.9e-05  0.991678  0.0
H  H118  1  0.31463581  0.28118143  0.89795250  1  0.034104  0.001323  0.09278  0.128935  0.000898  1.02689  0.001
H  H119  1  0.68537383  0.71881256  0.10206120  1  0.034051  0.001322  0.092695  0.128783  0.000898  1.026884  0.001
H  H120  1  0.22494476  0.36172220  0.84878094  1  0.041554  0.001587  0.094977  0.134419  0.001127  0.995963  0.001
H  H121  1  0.77506858  0.63827649  0.15122880  1  0.041238  0.001586  0.094932  0.134288  0.001127  0.995981  0.001
C  C122  1  0.17785950  0.95866882  0.97004677  1  0.429517  -0.013394  0.102404  0.183306  -0.010855  4.033063  -0.01
C  C123  1  0.82214155  0.04133125  0.02995630  1  0.429122  -0.013398  0.102441  0.183418  -0.010857  4.033121  -0.01
C  C124  1  0.20637417  0.93560013  0.90104641  1  -0.08502  -0.01186  -0.090879  -0.169247  -0.009084  3.966241  -0.006
C  C125  1  0.79363046  0.06439794  0.09895928  1  -0.084547  -0.011856  -0.090973  -0.169439  -0.009083  3.966355  -0.006
C  C126  1  0.12443504  0.93438012  0.82206876  1  -0.017308  -0.013609  -0.086046  -0.151737  -0.010606  3.94381  -0.007
C  C127  1  0.87557115  0.06562394  0.17793394  1  -0.017632  -0.013613  -0.086056  -0.151795  -0.010607  3.943751  -0.007
C  C128  1  0.04452089  0.95319561  0.84257746  1  0.418674  -0.011043  0.102453  0.188444  -0.008824  4.018627  -0.008
C  C129  1  0.95548234  0.04680516  0.15742405  1  0.418494  -0.01104  0.102549  0.188632  -0.008821  4.018493  -0.008
C  C130  1  0.94745327  0.95143573  0.77982442  1  0.059714  0.006345  0.010446  -0.04073  0.006672  3.962414  0.005
C  C131  1  0.05254931  0.04856902  0.22017564  1  0.059859  0.00634  0.010339  -0.040857  0.006667  3.962381  0.005
C  C132  1  0.87072007  0.96334140  0.80280046  1  0.374812  -0.011228  0.098836  0.178744  -0.009033  4.046545  -0.009
C  C133  1  0.12928103  0.03666137  0.19719901  1  0.374756  -0.011225  0.098811  0.178666  -0.00903  4.046791  -0.009
C  C134  1  0.77033212  0.95645945  0.74021009  1  0.009622  -0.014046  -0.093387  -0.172761  -0.010909  3.970352  -0.007
C  C135  1  0.22966630  0.04355397  0.25978472  1  0.009522  -0.014046  -0.093338  -0.172689  -0.010906  3.970514  -0.007
C  C136  1  0.71680027  0.97952969  0.78448496  1  -0.069888  -0.011  -0.09074  -0.161836  -0.008414  3.948285  -0.005
C  C137  1  0.28320326  0.02048500  0.21551429  1  -0.069895  -0.010996  -0.090708  -0.161793  -0.008414  3.94814  -0.005
C  C138  1  0.78422685  0.99945582  0.87510365  1  0.356977  -0.013737  0.100821  0.182418  -0.011149  4.027272  -0.01
C  C139  1  0.21577716  0.00054828  0.12489637  1  0.357154  -0.013734  0.100799  0.182306  -0.011146  4.027376  -0.01
C  C140  1  0.24310032  0.97203181  0.05938309  1  0.041467  0.007695  0.012013  -0.036483  0.008063  3.955448  0.006
C  C141  1  0.75690290  0.02796897  0.94061722  1  0.041635  0.007697  0.012042  -0.03649  0.008064  3.955481  0.006
C  C142  1  0.92402840  0.94041538  0.68322688  1  -0.050483  -0.000527  -0.019124  -0.071676  -0.000251  3.957864  -0.001
C  C143  1  0.07598280  0.05958534  0.31677900  1  -0.050639  -0.000527  -0.018983  -0.071532  -0.000251  3.957629  -0.001
C  C144  1  0.89817086  0.01605006  0.62725028  1  -0.043676  0.000302  -0.008192  0.133726  0.000337  3.986823  0.0
C  C145  1  0.10183156  0.98394742  0.37274971  1  -0.04342  0.000301  -0.008183  0.13384  0.000336  3.986627  0.0
C  C146  1  0.87818582  0.00650356  0.53720735  1  -0.031892  -6e-06  -0.101324  -0.224731  -8e-06  3.969969  0.0
C  C147  1  0.12180646  0.99349323  0.46279284  1  -0.031824  -6e-06  -0.101391  -0.224765  -8e-06  3.970005  0.0
C  C148  1  0.88376265  0.92484613  0.50089005  1  -0.05391  7.8e-05  -0.011908  0.181532  8.2e-05  4.028949  0.0
C  C149  1  0.11623253  0.07515133  0.49911009  1  -0.05405  7.8e-05  -0.011819  0.181532  8.2e-05  4.028937  0.0
C  C150  1  0.90783089  0.85082085  0.55716730  1  -0.081644  1e-06  -0.108568  -0.236093  1.8e-05  3.954916  0.0
C  C151  1  0.09217081  0.14917591  0.44283662  1  -0.0813  1e-06  -0.108664  -0.236023  1.8e-05  3.954862  0.0
C  C152  1  0.92767008  0.85713531  0.64783522  1  -0.004711  0.000263  -0.013931  0.124925  0.000309  3.997343  0.0
C  C153  1  0.07233822  0.14286541  0.35217012  1  -0.004821  0.000263  -0.01396  0.124797  0.000309  3.99732  0.0
C  C154  1  0.89521701  0.10622801  0.66323535  1  -0.122635  0.000134  -0.245817  -0.421779  0.000167  3.965006  0.0
C  C155  1  0.10477594  0.89376752  0.33676028  1  -0.123596  0.000134  -0.245838  -0.421977  0.000167  3.964996  0.0
C  C156  1  0.86548281  0.91791102  0.40458705  1  -0.095333  -1.2e-05  -0.241614  -0.415727  -3e-06  3.950702  0.0
C  C157  1  0.13450221  0.08208513  0.59541087  1  -0.095527  -1.2e-05  -0.241718  -0.415831  -3e-06  3.950614  0.0
C  C158  1  0.95168312  0.77468443  0.70472205  1  -0.089545  -1.8e-05  -0.242028  -0.410072  -4e-06  3.976801  0.0
C  C159  1  0.04831794  0.22531561  0.29528344  1  -0.090377  -1.8e-05  -0.242036  -0.410112  -4e-06  3.976624  0.0
C  C160  1  0.34752300  0.95293493  0.08747096  1  -0.011337  -0.000405  -0.01976  -0.07344  -0.000157  3.964035  -0.001
C  C161  1  0.65248176  0.04706980  0.91253118  1  -0.011228  -0.000405  -0.019735  -0.073384  -0.000157  3.964021  -0.001
C  C162  1  0.38223302  0.86866650  0.12285046  1  0.006596  0.000296  -0.008782  0.136398  0.000334  3.983826  0.0
C  C163  1  0.61776732  0.13133423  0.87715293  1  0.006678  0.000296  -0.008803  0.136312  0.000334  3.983999  0.0
C  C164  1  0.48041292  0.85131810  0.15053604  1  -0.068531  0.000152  -0.101206  -0.225236  0.00015  3.943965  0.0
C  C165  1  0.51958449  0.14868133  0.84946498  1  -0.069039  0.000152  -0.101188  -0.225168  0.00015  3.943928  0.0
C  C166  1  0.54482067  0.91573364  0.14523529  1  -0.063765  0.000103  -0.014992  0.175273  6.1e-05  4.030582  0.0
C  C167  1  0.45517959  0.08426381  0.85476625  1  -0.063277  0.000103  -0.014945  0.175318  6.1e-05  4.030698  0.0
C  C168  1  0.50825825  0.99828719  0.10886823  1  -0.058539  4.2e-05  -0.104387  -0.228756  -7e-06  3.9787  0.0
C  C169  1  0.49174639  0.00171225  0.89113324  1  -0.058533  4.2e-05  -0.104426  -0.228805  -7e-06  3.978947  0.0
C  C170  1  0.41023618  0.01817881  0.07952930  1  -0.048432  0.000225  -0.01219  0.127492  0.000213  3.998095  0.0
C  C171  1  0.58976780  0.98182328  0.92047252  1  -0.048637  0.000225  -0.012184  0.127459  0.000213  3.998235  0.0
C  C172  1  0.31560982  0.79856531  0.13171744  1  -0.088148  9.7e-05  -0.239681  -0.407316  0.000228  3.964189  0.0
C  C173  1  0.68438982  0.20143675  0.86828567  1  -0.088074  9.7e-05  -0.239683  -0.407302  0.000228  3.964345  0.0
C  C174  1  0.65073811  0.89645343  0.18041150  1  -0.076723  5.3e-05  -0.241296  -0.416149  0.000199  3.968648  0.0
C  C175  1  0.34926288  0.10354539  0.81958733  1  -0.07665  5.3e-05  -0.241306  -0.416188  0.000198  3.968333  0.0
C  C176  1  0.37289239  0.10777381  0.04145770  1  -0.044683  0.000293  -0.244226  -0.418255  0.000617  3.975837  0.0
C  C177  1  0.62710934  0.89222567  0.95854141  1  -0.044711  0.000293  -0.24413  -0.417995  0.000617  3.975817  0.0
C  C178  1  0.65533253  0.63226758  0.50298283  1  0.382051  -0.011551  0.101371  0.182205  -0.009299  4.025997  -0.009
C  C179  1  0.34466409  0.36772992  0.49701426  1  0.381793  -0.011551  0.101286  0.182047  -0.009298  4.026119  -0.009
C  C180  1  0.68570611  0.72295618  0.52417462  1  -0.051374  -0.014555  -0.088463  -0.15934  -0.011263  3.940316  -0.007
C  C181  1  0.31429343  0.27704337  0.47581880  1  -0.051534  -0.014551  -0.088473  -0.159322  -0.01126  3.940416  -0.007
C  C182  1  0.61892855  0.76205338  0.54584853  1  -0.072137  -0.012356  -0.089053  -0.1666  -0.009469  3.964276  -0.006
C  C183  1  0.38106888  0.23794739  0.45415190  1  -0.072166  -0.012351  -0.089047  -0.166581  -0.009465  3.964429  -0.006
C  C184  1  0.54762723  0.69555218  0.53874361  1  0.39685  -0.013111  0.099029  0.174192  -0.01077  4.054026  -0.01
C  C185  1  0.45237453  0.30444723  0.46125974  1  0.396632  -0.013114  0.099018  0.174115  -0.010773  4.053921  -0.01
C  C186  1  0.46740529  0.71134132  0.55556880  1  0.011075  0.006359  0.009963  -0.042054  0.006648  3.969584  0.005
C  C187  1  0.53259859  0.28865613  0.44443358  1  0.011462  0.006357  0.009997  -0.041933  0.006646  3.969474  0.005
C  C188  1  0.40298009  0.64520215  0.55664903  1  0.416805  -0.012507  0.100598  0.183118  -0.01008  4.038507  -0.01
C  C189  1  0.59702309  0.35479592  0.44335548  1  0.416918  -0.012507  0.100533  0.182947  -0.01008  4.038648  -0.01
C  C190  1  0.32399600  0.66008684  0.57972006  1  -0.098365  -0.010006  -0.090175  -0.164307  -0.007593  3.954234  -0.005
C  C191  1  0.67600576  0.33991327  0.42028088  1  -0.098536  -0.010007  -0.090131  -0.164236  -0.007593  3.954088  -0.005
C  C192  1  0.27883916  0.58013744  0.57495184  1  -0.062965  -0.01148  -0.092056  -0.169697  -0.008882  3.971835  -0.006
C  C193  1  0.72116194  0.41986533  0.42504823  1  -0.062948  -0.011479  -0.092159  -0.169855  -0.008882  3.971753  -0.006
C  C194  1  0.32801214  0.51633093  0.54636260  1  0.41906  -0.011176  0.101879  0.18733  -0.008861  4.026583  -0.009
C  C195  1  0.67198744  0.48366851  0.45363807  1  0.419096  -0.011176  0.101835  0.187263  -0.008863  4.026586  -0.009
C  C196  1  0.70295811  0.57153031  0.47372269  1  0.05319  0.005718  0.012424  -0.035701  0.00603  3.9517  0.004
C  C197  1  0.29704218  0.42846918  0.52627525  1  0.053064  0.005721  0.012422  -0.035698  0.006034  3.951601  0.004
C  C198  1  0.44806862  0.80470513  0.56976819  1  -0.090162  -0.000601  -0.020109  -0.072591  -0.000323  3.969406  -0.001
C  C199  1  0.55193241  0.19529430  0.43023366  1  -0.089861  -0.000601  -0.020051  -0.072457  -0.000323  3.969246  -0.001
C  C200  1  0.47732306  0.83834914  0.65646193  1  0.060347  0.000248  -0.013663  0.128058  0.000256  3.997317  0.0
C  C201  1  0.52268166  0.16165360  0.34354018  1  0.06043  0.000248  -0.013748  0.127916  0.000256  3.997468  0.0
C  C202  1  0.45762728  0.92669277  0.66619263  1  -0.107392  -8.2e-05  -0.108594  -0.234147  -7.1e-05  3.961892  0.0
C  C203  1  0.54237378  0.07330938  0.33380442  1  -0.107331  -8.2e-05  -0.108667  -0.234251  -7e-05  3.961871  0.0
C  C204  1  0.41149817  0.98211126  0.59247696  1  0.031541  1.2e-05  -0.012559  0.184863  3.6e-05  4.024151  0.0
C  C205  1  0.58850354  0.01788828  0.40751732  1  0.031596  1.2e-05  -0.012541  0.18488  3.6e-05  4.023991  0.0
C  C206  1  0.38241051  0.94668650  0.50680067  1  -0.095737  -8e-05  -0.102919  -0.219775  -6.7e-05  3.95493  0.0
C  C207  1  0.61758390  0.05330970  0.49319494  1  -0.095745  -8e-05  -0.10288  -0.219734  -6.7e-05  3.954823  0.0
C  C208  1  0.39919240  0.85875230  0.49384646  1  -0.005685  0.00029  -0.010949  0.130124  0.000333  3.985036  0.0
C  C209  1  0.60080274  0.14124320  0.50615184  1  -0.005816  0.00029  -0.010918  0.130145  0.000333  3.985038  0.0
C  C210  1  0.53132922  0.78283576  0.73843495  1  -0.067993  5.8e-05  -0.243465  -0.412237  0.000257  3.965027  0.0
C  C211  1  0.46867261  0.21716698  0.26156722  1  -0.06809  5.8e-05  -0.243426  -0.41227  0.000257  3.964981  0.0
C  C212  1  0.39474324  0.07738405  0.60483805  1  -0.079264  -0.000337  -0.243972  -0.414582  -0.000323  3.939954  0.0
C  C213  1  0.60525335  0.92261354  0.39515299  1  -0.07923  -0.000337  -0.244023  -0.414661  -0.000323  3.940033  0.0
C  C214  1  0.36325551  0.82197019  0.40067474  1  -0.032778  -0.000166  -0.241122  -0.411755  -6.5e-05  3.97583  0.0
C  C215  1  0.63673156  0.17802068  0.59932218  1  -0.034207  -0.000167  -0.241149  -0.411812  -6.6e-05  3.975839  0.0
C  C216  1  0.79147245  0.60131139  0.46396906  1  -0.053446  -0.000462  -0.01953  -0.073864  -0.000221  3.962677  -0.001
C  C217  1  0.20852569  0.39869014  0.53602502  1  -0.053418  -0.000462  -0.019571  -0.073629  -0.000221  3.962734  -0.001
C  C218  1  0.78171005  0.64566307  0.38537392  1  -0.023403  0.000254  -0.009748  0.136338  0.000273  3.989148  0.0
C  C219  1  0.21828604  0.35434304  0.61462297  1  -0.023393  0.000254  -0.009715  0.136384  0.000273  3.989103  0.0
C  C220  1  0.86544576  0.67308929  0.37731960  1  -0.057777  0.000265  -0.10516  -0.235321  0.000253  3.960102  0.0
C  C221  1  0.13455022  0.32691222  0.62267482  1  -0.057919  0.000265  -0.105138  -0.235297  0.000253  3.960262  0.0
C  C222  1  0.95804876  0.65822532  0.44533258  1  -0.023048  4e-06  -0.013955  0.180457  3e-06  4.026104  0.0
C  C223  1  0.04194791  0.34177557  0.55465910  1  -0.022328  4e-06  -0.013943  0.180417  3e-06  4.025917  0.0
C  C224  1  0.96598945  0.61255720  0.52201339  1  -0.042516  6.5e-05  -0.104238  -0.229322  6.1e-05  3.973348  0.0
C  C225  1  0.03400643  0.38744108  0.47797617  1  -0.042689  6.5e-05  -0.104266  -0.229131  6.1e-05  3.973504  0.0
C  C226  1  0.88411888  0.58379052  0.53269812  1  0.010664  0.000196  -0.012781  0.124405  0.000231  4.001236  0.0
C  C227  1  0.11587771  0.41620636  0.46729655  1  0.010615  0.000196  -0.012829  0.123707  0.000231  4.002317  0.0
C  C228  1  0.68367149  0.66206876  0.31024912  1  -0.072511  0.000254  -0.244139  -0.414465  0.000282  3.965512  0.0
C  C229  1  0.31632452  0.33793336  0.68974894  1  -0.073092  0.000255  -0.244114  -0.414415  0.000283  3.965608  0.0
C  C230  1  0.04585899  0.69526859  0.43751653  1  -0.094307  -0.000152  -0.239424  -0.409985  -9.4e-05  3.958178  0.0
C  C231  1  0.95413670  0.30472249  0.56246751  1  -0.09518  -0.000152  -0.239312  -0.409838  -9.4e-05  3.958035  0.0
C  C232  1  0.89526379  0.53584082  0.61660826  1  -0.048152  4.4e-05  -0.240053  -0.411716  9.1e-05  3.975914  0.0
C  C233  1  0.10473490  0.46415276  0.38338663  1  -0.032173  4.4e-05  -0.240012  -0.411543  9.1e-05  3.976006  0.0
C  C234  1  0.07511912  0.18409873  0.96106447  1  0.776407  -0.026108  0.198651  0.287224  -0.023893  4.04918  -0.035
C  C235  1  0.92488579  0.81591120  0.03894437  1  0.777166  -0.026128  0.198663  0.287174  -0.023911  4.049311  -0.035
C  C236  1  0.14520658  0.23145005  0.94475190  1  0.192666  0.129409  -0.013029  -0.11338  0.135993  4.110909  0.083
C  C237  1  0.85479115  0.76856326  0.05525048  1  0.192258  0.129416  -0.013168  -0.113539  0.135994  4.111227  0.083
C  C238  1  0.14168973  0.21018498  0.86069085  1  0.819382  -0.006927  0.17875  0.240604  -0.004873  4.091825  -0.015
C  C239  1  0.85830436  0.78982767  0.13931009  1  0.819965  -0.006933  0.178746  0.240598  -0.004875  4.09153  -0.015
C  C240  1  0.21037292  0.29362557  0.00872217  1  0.018045  0.062991  0.002075  0.048264  0.063694  4.017826  0.034
C  C241  1  0.78963121  0.70638244  0.99128153  1  0.018371  0.063022  0.002105  0.04834  0.063714  4.018039  0.034
C  C242  1  0.20680430  0.30098794  0.09263206  1  -0.078852  0.024571  -0.09598  -0.204075  0.025798  3.962128  0.012
C  C243  1  0.79320125  0.69901870  0.90737461  1  -0.056197  0.024609  -0.095975  -0.20408  0.025785  3.962146  0.012
C  C244  1  0.26163316  0.36094384  0.15823710  1  0.025832  0.036248  -0.00735  0.128112  0.037254  3.9675  0.02
C  C245  1  0.73837452  0.63906013  0.84177222  1  0.00311  0.036222  -0.007252  0.128203  0.037279  3.967562  0.02
C  C246  1  0.32573114  0.41981304  0.14040015  1  0.005414  0.064069  0.001581  0.049228  0.064561  4.011312  0.034
C  C247  1  0.67427722  0.58018894  0.85961003  1  0.004921  0.064055  0.00151  0.049138  0.06455  4.011675  0.034
C  C248  1  0.33187638  0.41010255  0.05799704  1  -0.011301  0.022564  -0.093753  -0.196433  0.024059  3.950837  0.011
C  C249  1  0.66813347  0.58990142  0.94201253  1  -0.037428  0.022516  -0.093752  -0.196497  0.024076  3.950838  0.011
C  C250  1  0.27783053  0.34965531  0.99267939  1  0.001304  0.034657  -0.005868  0.132309  0.035923  3.952175  0.02
C  C251  1  0.72218148  0.65034868  0.00732983  1  0.027163  0.034702  -0.005823  0.132318  0.035913  3.952166  0.02
C  C252  1  0.25173053  0.36245727  0.24433850  1  -0.087821  -0.000621  -0.241141  -0.414964  -0.000933  3.962202  -0.001
C  C253  1  0.74827782  0.63754473  0.75566927  1  -0.087394  -0.000621  -0.241217  -0.415078  -0.000932  3.962145  -0.001
C  C254  1  0.29189204  0.34677636  0.90853940  1  -0.04097  -0.000192  -0.237414  -0.413429  -0.000545  3.959568  -0.001
C  C255  1  0.70811980  0.65322036  0.09146854  1  -0.040499  -0.000192  -0.237226  -0.413056  -0.000546  3.9592  -0.001
C  C256  1  0.43621567  0.54911109  0.17043766  1  0.798777  -0.005299  0.17382  0.239195  -0.003935  4.100061  -0.013
C  C257  1  0.56379271  0.45089294  0.82956771  1  0.797756  -0.005309  0.17374  0.238977  -0.003941  4.100213  -0.013
C  C258  1  0.38346596  0.48907891  0.19966612  1  0.206384  0.128509  -0.01308  -0.112392  0.135742  4.105205  0.082
C  C259  1  0.61653944  0.51091973  0.80034530  1  0.206932  0.128603  -0.012995  -0.11235  0.135837  4.104916  0.082
C  C260  1  0.39263734  0.50805939  0.28510781  1  0.765675  -0.019693  0.197926  0.286507  -0.018514  4.056714  -0.032
C  C261  1  0.60737442  0.49193548  0.71489104  1  0.766094  -0.019664  0.198113  0.286754  -0.018487  4.057194  -0.032
N  N262  1  0.07850663  0.96867438  0.93330244  1  -1.22921  0.009249  -0.360731  -0.353876  0.022243  3.420629  0.034
N  N263  1  0.92149590  0.03132702  0.06670122  1  -1.229164  0.009249  -0.360733  -0.353954  0.022243  3.420666  0.034
N  N264  1  0.87791930  0.98736592  0.88567098  1  -1.210716  0.009365  -0.362192  -0.351249  0.022745  3.430001  0.034
N  N265  1  0.12208529  0.01263153  0.11433108  1  -1.210707  0.009381  -0.36215  -0.351172  0.022751  3.430084  0.034
N  N266  1  0.57142629  0.61615062  0.51346412  1  -1.212091  0.006489  -0.363747  -0.353981  0.019752  3.430424  0.032
N  N267  1  0.42857401  0.38384880  0.48653865  1  -1.211898  0.006484  -0.363693  -0.353859  0.019756  3.430363  0.032
N  N268  1  0.40507300  0.55686305  0.53743043  1  -1.213027  0.01052  -0.359918  -0.350801  0.023327  3.431207  0.034
N  N269  1  0.59492944  0.44313435  0.46257560  1  -1.213126  0.010511  -0.35984  -0.350691  0.023331  3.431154  0.034
N  N270  1  0.01397207  0.14298794  0.97060681  1  -1.209129  0.02848  -0.325657  -0.411266  0.033503  3.021222  0.034
N  N271  1  0.98603634  0.85701741  0.02939918  1  -1.209928  0.028472  -0.325657  -0.411173  0.033511  3.021385  0.034
N  N272  1  0.13390404  0.18740216  0.79039713  1  -1.149418  0.07725  -0.302801  -0.372138  0.076245  2.806541  0.056
N  N273  1  0.86608570  0.81260980  0.20960510  1  -1.149851  0.077261  -0.302778  -0.372154  0.076257  2.806108  0.056
N  N274  1  0.47838440  0.59913982  0.14492962  1  -1.141426  0.0646  -0.315464  -0.386692  0.06333  2.759935  0.046
N  N275  1  0.52162310  0.40085692  0.85507660  1  -1.140534  0.064706  -0.315463  -0.386592  0.063431  2.759678  0.046
N  N276  1  0.40392032  0.52991660  0.35710783  1  -1.204339  0.03702  -0.326149  -0.41245  0.041257  3.03951  0.039
N  N277  1  0.59609595  0.47008267  0.64290789  1  -1.204461  0.036901  -0.326295  -0.412587  0.041134  3.040626  0.039
