# generated using pymatgen
data_GdCu3H21(C8O7)3
_symmetry_space_group_name_H-M   'P 1'
_cell_length_a   9.65343903
_cell_length_b   12.21260617
_cell_length_c   12.61872243
_cell_angle_alpha   116.54981577
_cell_angle_beta   96.14119902
_cell_angle_gamma   90.65936824
_symmetry_Int_Tables_number   1
_chemical_formula_structural   GdCu3H21(C8O7)3
_chemical_formula_sum   'Gd2 Cu6 H42 C48 O42'
_cell_volume   1320.20320549
_cell_formula_units_Z   2
loop_
 _symmetry_equiv_pos_site_id
 _symmetry_equiv_pos_as_xyz
  1  'x, y, z'
loop_
 _atom_site_type_symbol
 _atom_site_label
 _atom_site_symmetry_multiplicity
 _atom_site_fract_x
 _atom_site_fract_y
 _atom_site_fract_z
 _atom_site_occupancy
 _atom_site_hle17_ddec_charge
 _atom_site_hle17_ddec_spin_density
 _atom_site_hle17_ddec_sum_bond_order
 _atom_site_hle17_magmom
 _atom_site_hse06_10hf_ddec_charge
 _atom_site_hse06_10hf_ddec_spin_density
 _atom_site_hse06_10hf_ddec_sum_bond_order
 _atom_site_hse06_10hf_magmom
 _atom_site_hse06_ddec_charge
 _atom_site_hse06_ddec_spin_density
 _atom_site_hse06_ddec_sum_bond_order
 _atom_site_hse06_magmom
 _atom_site_pbe_cm5_charge
 _atom_site_pbe_ddec_charge
 _atom_site_pbe_ddec_spin_density
 _atom_site_pbe_ddec_sum_bond_order
 _atom_site_pbe_magmom
Gd  Gd0  1  0.25111576  0.70120560  0.22464989  1  2.234642  -0.000224  1.649717  0.0  2.164924  -0.000985  1.967039  -0.001  2.207121  -0.000521  1.926193  0.0  1.443466  2.130132  -0.001205  2.003321  -0.001
Gd  Gd1  1  0.74888668  0.29879322  0.77535208  1  2.234775  -0.000812  1.649549  -0.001  2.164951  -0.00079  1.967064  -0.001  2.207163  -0.000487  1.926196  -0.001  1.443437  2.130055  -0.000813  2.00347  -0.001
Cu  Cu2  1  0.32471498  0.09763032  0.13008639  1  0.975985  0.547772  1.796989  0.41  0.977983  0.74814  2.20889  0.607  1.078677  0.852366  2.129752  0.714  0.711589  0.897663  0.5604  2.278435  0.448
Cu  Cu3  1  0.67528692  0.90234198  0.86992163  1  0.976045  0.547574  1.79742  0.41  0.978019  0.747929  2.209313  0.607  1.078717  0.852177  2.13016  0.714  0.711636  0.897701  0.560179  2.278881  0.448
Cu  Cu4  1  0.27134273  0.32514404  0.10172804  1  1.003413  -0.571739  1.784074  -0.435  1.014092  -0.768624  2.17998  -0.632  1.1052  -0.871945  2.117443  -0.74  0.720889  0.934196  -0.577506  2.244046  -0.468
Cu  Cu5  1  0.72867287  0.67489498  0.89828749  1  1.003441  -0.571501  1.78422  -0.435  1.014028  -0.768311  2.180177  -0.632  1.105128  -0.871664  2.117631  -0.74  0.720957  0.934313  -0.577263  2.244014  -0.468
Cu  Cu6  1  0.03244478  0.88239737  0.00735345  1  0.979865  -0.548799  1.798789  -0.416  0.983351  -0.742912  2.218146  -0.608  1.087296  -0.849227  2.133646  -0.717  0.70127  0.900675  -0.551202  2.290632  -0.445
Cu  Cu7  1  0.96754329  0.11759145  0.99263031  1  0.979714  0.555272  1.798923  0.416  0.983278  0.748785  2.218157  0.608  1.087195  0.85437  2.133782  0.717  0.701195  0.900553  0.556322  2.290631  0.445
H  H8  1  0.35790168  0.29561897  0.59712490  1  0.095938  -0.000169  0.965872  0.0  0.101644  -0.000171  1.036193  0.0  0.10473  -0.000119  1.032421  0.0  0.10987  0.099637  -0.00017  1.038766  0.0
H  H9  1  0.64208727  0.70437999  0.40287120  1  0.096032  -0.000161  0.965857  0.0  0.101743  -0.000171  1.036169  0.0  0.104829  -0.000119  1.0324  0.0  0.109922  0.099737  -0.00017  1.038736  0.0
H  H10  1  0.30399325  0.62654897  0.56222326  1  0.09991  0.000281  0.961557  0.0  0.10887  0.000252  1.025575  0.0  0.110919  0.000182  1.023393  0.0  0.108729  0.107611  0.000243  1.026819  0.0
H  H11  1  0.69596798  0.37343298  0.43777268  1  0.099831  0.000282  0.961442  0.0  0.108815  0.000252  1.025458  0.0  0.110876  0.000183  1.023251  0.0  0.108654  0.10755  0.000242  1.026696  0.0
H  H12  1  0.25630872  0.13037940  0.63829247  1  0.106306  0.000155  0.953161  0.0  0.113234  0.000178  1.019096  0.0  0.116633  0.000135  1.015659  0.0  0.110534  0.111142  0.000162  1.021166  0.0
H  H13  1  0.74369519  0.86962497  0.36172230  1  0.106377  0.000151  0.953101  0.0  0.113328  0.000171  1.018995  0.0  0.116731  0.000129  1.015572  0.0  0.110548  0.111236  0.000156  1.021059  0.0
H  H14  1  0.34218530  0.80388550  0.67438421  1  0.09699  -0.000245  0.961768  0.0  0.107342  -0.000201  1.023332  0.0  0.110051  -0.000144  1.02049  0.0  0.107774  0.105706  -0.000189  1.025147  0.0
H  H15  1  0.65781996  0.19614358  0.32563092  1  0.096922  -0.000234  0.961664  0.0  0.107348  -0.000193  1.023172  0.0  0.110053  -0.000136  1.020349  0.0  0.107667  0.105711  -0.000183  1.024979  0.0
H  H16  1  0.32878700  0.52037678  0.69218288  1  0.114051  2.9e-05  0.938985  0.0  0.124995  1.9e-05  0.993836  0.0  0.128046  1.1e-05  0.993334  0.0  0.107592  0.122654  2e-05  0.994647  0.0
H  H17  1  0.67118690  0.47960584  0.30780176  1  0.113945  1.3e-05  0.938913  0.0  0.124953  8e-06  0.993711  0.0  0.128005  4e-06  0.993211  0.0  0.107564  0.122611  9e-06  0.994524  0.0
H  H18  1  0.29787559  0.90724487  0.54339342  1  0.113668  -6.7e-05  0.957573  0.0  0.123483  -5.7e-05  1.016936  0.0  0.127805  -3.8e-05  1.014627  0.0  0.112404  0.120553  -6e-05  1.018536  0.0
H  H19  1  0.70211554  0.09276796  0.45662622  1  0.113636  -2.7e-05  0.957534  0.0  0.123514  -0.0  1.016876  0.0  0.127841  -2e-06  1.014558  0.0  0.112364  0.120596  2e-06  1.018466  0.0
H  H20  1  0.99877107  0.28417805  0.57228349  1  0.107948  -2.4e-05  0.97628  0.0  0.116941  -1e-05  1.036873  0.0  0.121017  -5e-06  1.034852  0.0  0.108122  0.11405  -1.1e-05  1.03837  0.0
H  H21  1  0.00123653  0.71582976  0.42770453  1  0.107921  3.4e-05  0.976232  0.0  0.116961  2.8e-05  1.036808  0.0  0.121043  1.9e-05  1.034774  0.0  0.108074  0.114059  2.7e-05  1.038299  0.0
H  H22  1  0.05613689  0.06484088  0.47376037  1  0.103265  0.000247  0.944813  0.0  0.114293  0.000217  1.005228  0.0  0.116875  0.000156  1.002703  0.0  0.111229  0.112696  0.000207  1.006872  0.0
H  H23  1  0.94387125  0.93516239  0.52623527  1  0.103343  -0.000249  0.944792  0.0  0.114412  -0.00022  1.005099  0.0  0.117012  -0.000158  1.002567  0.0  0.111224  0.112812  -0.00021  1.006751  0.0
H  H24  1  0.96742779  0.39771222  0.45041946  1  0.104134  -0.000167  0.954069  0.0  0.111718  -0.000182  1.020169  0.0  0.114777  -0.000141  1.017137  0.0  0.109453  0.109751  -0.00016  1.021978  0.0
H  H25  1  0.03256520  0.60228382  0.54955830  1  0.104099  0.000158  0.953929  0.0  0.111677  0.000172  1.020084  0.0  0.114741  0.00013  1.017053  0.0  0.109419  0.109714  0.000154  1.021883  0.0
H  H26  1  0.01571765  0.54157445  0.24338849  1  0.438861  -0.000116  0.862876  0.0  0.408256  -4.7e-05  0.926028  0.0  0.419989  -3.3e-05  0.90885  0.0  0.295981  0.399804  -3.8e-05  0.938394  0.0
H  H27  1  0.98427624  0.45842070  0.75659532  1  0.439076  0.000141  0.862597  0.0  0.408416  6.6e-05  0.925839  0.0  0.420147  4.9e-05  0.908663  0.0  0.296095  0.39996  5.6e-05  0.93821  0.0
H  H28  1  0.17760043  0.50022547  0.97873503  1  0.448495  -0.000183  0.841503  0.0  0.41655  -0.000193  0.906528  0.0  0.42868  -9.7e-05  0.888567  0.0  0.306888  0.407913  -0.000223  0.919269  0.0
H  H29  1  0.82242695  0.49977304  0.02127292  1  0.448434  -0.000204  0.841566  0.0  0.416503  -0.000206  0.906565  0.0  0.428627  -0.000107  0.888612  0.0  0.306885  0.407856  -0.000233  0.919316  0.0
H  H30  1  0.34872340  0.84284000  0.08232339  1  0.444705  2.6e-05  0.855086  0.0  0.414373  4.6e-05  0.917026  0.0  0.425156  -1.5e-05  0.901462  0.0  0.300919  0.406752  8.2e-05  0.927961  0.0
H  H31  1  0.65126400  0.15716546  0.91768328  1  0.444704  -6e-06  0.855093  0.0  0.414342  7e-06  0.917058  0.0  0.425121  -4.6e-05  0.901503  0.0  0.300938  0.406712  4.6e-05  0.928003  0.0
H  H32  1  0.56504273  0.31969278  0.10876774  1  0.427296  -7.6e-05  0.87571  0.0  0.396781  -7e-06  0.939237  0.0  0.408512  0.0  0.921961  0.0  0.289809  0.388277  -1.1e-05  0.951654  0.0
H  H33  1  0.43497737  0.68031684  0.89124274  1  0.427135  -8.4e-05  0.875921  0.0  0.396639  -1.6e-05  0.939403  0.0  0.408369  -9e-06  0.922128  0.0  0.289788  0.38814  -1.7e-05  0.951815  0.0
H  H34  1  0.48824338  0.85776999  0.42796734  1  0.443791  9.7e-05  0.852894  0.0  0.413434  0.000107  0.915587  0.0  0.423906  5.9e-05  0.900428  0.0  0.303963  0.406027  0.00013  0.926276  0.0
H  H35  1  0.51174955  0.14222808  0.57204061  1  0.443918  9.8e-05  0.852715  0.0  0.413544  0.000108  0.915435  0.0  0.424022  5.9e-05  0.900274  0.0  0.303961  0.406112  0.000131  0.926159  0.0
H  H36  1  0.53561664  0.34247858  0.99626087  1  0.429367  -6e-06  0.849017  0.0  0.404274  1.1e-05  0.91495  0.0  0.414586  8e-06  0.899622  0.0  0.302267  0.396575  1e-05  0.92636  0.0
H  H37  1  0.46439616  0.65753115  0.00375062  1  0.429397  -1e-05  0.849036  0.0  0.404284  9e-06  0.914952  0.0  0.414596  4e-06  0.899624  0.0  0.302311  0.396585  9e-06  0.926363  0.0
H  H38  1  0.93389824  0.64415537  0.22696356  1  0.435475  5.8e-05  0.866563  0.0  0.408316  2e-06  0.923536  0.0  0.418178  5e-06  0.909186  0.0  0.300121  0.401356  -6e-06  0.933665  0.0
H  H39  1  0.06610134  0.35585724  0.77304167  1  0.435367  6e-05  0.866738  0.0  0.408302  9e-06  0.923569  0.0  0.418163  1e-05  0.90922  0.0  0.300096  0.401336  1e-06  0.933707  0.0
H  H40  1  0.48920074  0.52002039  0.14534841  1  0.449691  3e-06  0.846009  0.0  0.41983  8e-06  0.906999  0.0  0.430096  3e-06  0.891903  0.0  0.29627  0.412544  1e-05  0.91764  0.0
H  H41  1  0.51080276  0.47999039  0.85466510  1  0.449747  3e-06  0.845921  0.0  0.419906  8e-06  0.906894  0.0  0.430174  3e-06  0.891792  0.0  0.296307  0.412611  1e-05  0.917547  0.0
H  H42  1  0.12586109  0.62006861  0.96574098  1  0.462472  -8.5e-05  0.812396  0.0  0.435634  -0.000117  0.867419  0.0  0.446362  -5.2e-05  0.851588  0.0  0.314125  0.427954  -0.000143  0.878706  0.0
H  H43  1  0.87417840  0.37992511  0.03425964  1  0.462644  5e-05  0.812167  0.0  0.435831  8.1e-05  0.867134  0.0  0.446557  1.5e-05  0.851303  0.0  0.314218  0.428141  0.000112  0.878431  0.0
H  H44  1  0.57102447  0.64923315  0.20513641  1  0.431344  -5.7e-05  0.863511  0.0  0.406533  -8e-05  0.917223  0.0  0.415418  -4.7e-05  0.904319  0.0  0.304619  0.400165  -9.5e-05  0.926482  0.0
H  H45  1  0.42898204  0.35077669  0.79488013  1  0.431404  -5.6e-05  0.863444  0.0  0.406622  -7.9e-05  0.917101  0.0  0.415501  -4.5e-05  0.904209  0.0  0.304667  0.400251  -9.3e-05  0.926364  0.0
H  H46  1  0.39924468  0.95034763  0.39556893  1  0.435127  -8.5e-05  0.868621  0.0  0.401657  -2.9e-05  0.936488  0.0  0.414176  -2.3e-05  0.918289  0.0  0.296527  0.392783  -2e-05  0.949341  0.0
H  H47  1  0.60075224  0.04964854  0.60443777  1  0.435164  -7.9e-05  0.868554  0.0  0.40164  -1.6e-05  0.936479  0.0  0.41419  -1.5e-05  0.918245  0.0  0.296501  0.392787  -6e-06  0.949296  0.0
H  H48  1  0.43944041  0.86662845  0.20184642  1  0.434922  2.6e-05  0.836033  0.0  0.409119  2.9e-05  0.906098  0.0  0.418257  -0.0  0.895976  0.0  0.311835  0.402514  4.6e-05  0.91348  0.0
H  H49  1  0.56055084  0.13339528  0.79816046  1  0.434918  3.2e-05  0.836167  0.0  0.409132  3.5e-05  0.906172  0.0  0.41827  7e-06  0.896046  0.0  0.311868  0.402524  5.1e-05  0.91356  0.0
C  C50  1  0.34780099  0.27560927  0.41943975  1  -0.22677  -0.002218  3.731732  -0.002  -0.209339  -0.002139  3.973244  -0.002  -0.228788  -0.001866  3.997982  -0.002  -0.036654  -0.196256  -0.001809  3.956598  -0.002
C  C51  1  0.65220760  0.72440055  0.58057696  1  -0.226536  -0.002168  3.731286  -0.002  -0.20905  -0.002146  3.972818  -0.002  -0.228461  -0.001866  3.997522  -0.002  -0.036508  -0.195958  -0.001817  3.95614  -0.002
C  C52  1  0.36657142  0.14252643  0.37571310  1  0.678091  -0.002597  3.835623  -0.005  0.629815  0.000377  4.130486  -0.001  0.670253  0.000319  4.122556  -0.001  0.220724  0.601095  0.000388  4.137465  -0.001
C  C53  1  0.63342768  0.85748065  0.62428497  1  0.678379  -0.00257  3.835365  -0.005  0.630044  0.000397  4.130285  -0.001  0.670467  0.000335  4.122366  -0.001  0.220868  0.601363  0.000404  4.137241  -0.001
C  C54  1  0.23751735  0.27897481  0.85748171  1  0.661882  0.001563  3.856403  0.003  0.61499  -0.001126  4.148812  0.0  0.654375  -0.000874  4.139501  0.0  0.216988  0.587103  -0.001253  4.155168  0.0
C  C55  1  0.76248757  0.72101758  0.14252248  1  0.66182  0.001579  3.856292  0.003  0.614869  -0.001106  4.148742  0.0  0.654261  -0.000857  4.139431  0.0  0.216985  0.586983  -0.001233  4.155111  0.0
C  C56  1  0.31245395  0.46442349  0.39992399  1  -0.208113  0.003091  3.725235  0.003  -0.189478  0.002868  3.960851  0.003  -0.208984  0.002457  3.984818  0.003  -0.031606  -0.176382  0.002456  3.944565  0.003
C  C57  1  0.68754694  0.53557081  0.60008542  1  -0.208402  0.00307  3.725089  0.003  -0.189636  0.002871  3.960723  0.003  -0.209128  0.002466  3.984693  0.003  -0.031577  -0.176544  0.002441  3.944437  0.003
C  C58  1  0.26788824  0.14815873  0.81543271  1  -0.226911  0.002856  3.7401  0.003  -0.210522  0.002298  3.98479  0.003  -0.228578  0.00205  4.007692  0.002  -0.04297  -0.198705  0.001946  3.97047  0.002
C  C59  1  0.73211610  0.85184924  0.18457253  1  -0.226887  0.002955  3.740086  0.003  -0.210463  0.00237  3.984674  0.003  -0.228509  0.002108  4.007574  0.002  -0.042942  -0.198651  0.002023  3.97036  0.002
C  C60  1  0.31561606  0.96124844  0.83529958  1  -0.229725  -0.003245  3.743624  -0.003  -0.216181  -0.002682  3.994913  -0.003  -0.236363  -0.00227  4.021209  -0.002  -0.045567  -0.202647  -0.002254  3.977537  -0.002
C  C61  1  0.68438922  0.03874661  0.16469230  1  -0.229301  -0.003252  3.743415  -0.003  -0.215831  -0.002715  3.994703  -0.003  -0.235994  -0.002313  4.020996  -0.002  -0.045485  -0.202303  -0.002278  3.977318  -0.002
C  C62  1  0.34762539  0.34448484  0.54308436  1  0.010286  -0.000872  3.708212  -0.001  -0.020998  -0.00075  3.967657  -0.001  -0.012532  -0.000624  3.984445  -0.001  -0.064543  -0.026414  -0.00064  3.955936  -0.001
C  C63  1  0.65237193  0.65551496  0.45691679  1  0.009966  -0.000996  3.707658  -0.001  -0.021365  -0.000769  3.96718  -0.001  -0.012913  -0.000638  3.983963  -0.001  -0.064613  -0.026778  -0.000669  3.955454  -0.001
C  C64  1  0.33772807  0.88459685  0.89913316  1  0.657611  -0.001119  3.867621  -0.002  0.602849  0.00102  4.184019  0.001  0.641183  0.000939  4.174595  0.001  0.20655  0.576407  0.000939  4.188442  0.0
C  C65  1  0.66225921  0.11540673  0.10086557  1  0.657641  -0.001447  3.86733  -0.002  0.602897  0.000602  4.183714  0.0  0.64122  0.000554  4.174289  0.001  0.206498  0.576459  0.000575  4.188124  0.0
C  C66  1  0.32592330  0.33530469  0.34505002  1  0.362006  -0.00028  3.75801  -0.001  0.347559  -9.4e-05  4.014778  0.0  0.372178  -0.000137  4.031494  -0.001  0.101439  0.329693  -2.5e-05  4.000768  0.0
C  C67  1  0.67409475  0.66470591  0.65496705  1  0.361863  -0.000401  3.757947  -0.001  0.347281  -0.00013  4.014884  0.0  0.371873  -0.000168  4.031615  -0.001  0.101281  0.329423  -7e-05  4.000867  0.0
C  C68  1  0.31630397  0.52845177  0.52430983  1  0.007992  0.000501  3.699741  0.001  -0.022132  0.000554  3.955665  0.001  -0.014095  0.000445  3.973784  0.001  -0.061986  -0.027423  0.000479  3.943092  0.001
C  C69  1  0.68368103  0.47153902  0.47568957  1  0.008211  0.000513  3.699658  0.001  -0.021956  0.000565  3.955552  0.001  -0.013929  0.00045  3.973683  0.001  -0.061902  -0.02723  0.00049  3.942961  0.001
C  C70  1  0.28750498  0.08739771  0.88887400  1  0.355829  0.000337  3.769698  0.001  0.338211  -9e-06  4.038106  0.0  0.361864  4e-06  4.054815  0.0  0.089197  0.320798  -2e-05  4.024478  0.0
C  C71  1  0.71249695  0.91259460  0.11111325  1  0.355398  0.000576  3.769725  0.001  0.337848  0.000348  4.038039  0.0  0.36149  0.00036  4.054761  0.0  0.089041  0.320446  0.000261  4.024411  0.0
C  C72  1  0.29086597  0.53840427  0.33465722  1  0.681405  0.001234  3.841403  0.002  0.638525  -0.000633  4.128839  0.0  0.679468  -0.000633  4.116856  0.0  0.212607  0.609845  -0.000514  4.136485  0.0
C  C73  1  0.70913234  0.46158455  0.66534804  1  0.681357  0.001229  3.841422  0.002  0.638258  -0.000637  4.129126  0.0  0.67919  -0.000637  4.117165  0.0  0.212438  0.609577  -0.000514  4.136763  0.0
C  C74  1  0.27310213  0.08144986  0.69210205  1  -0.009709  -0.000237  3.709833  0.0  -0.036899  0.000411  3.962703  0.001  -0.028145  0.000353  3.976635  0.001  -0.071448  -0.042353  0.0003  3.953349  0.001
C  C75  1  0.72690418  0.91854618  0.30790302  1  -0.009783  -0.000272  3.709875  0.0  -0.036993  0.000393  3.962737  0.001  -0.028261  0.000346  3.976691  0.001  -0.071487  -0.042435  0.00028  3.953381  0.001
C  C76  1  0.04206895  0.05255032  0.29862646  1  -0.218062  0.002712  3.731859  0.003  -0.196155  0.002336  3.963878  0.003  -0.214622  0.002014  3.988685  0.002  -0.039358  -0.183868  0.001992  3.949297  0.002
C  C77  1  0.95792745  0.94743838  0.70135718  1  -0.217772  -0.002961  3.73125  -0.003  -0.196072  -0.002458  3.963489  -0.003  -0.21453  -0.002127  3.988278  -0.002  -0.039498  -0.183862  -0.002083  3.949  -0.002
C  C78  1  0.32015831  0.90007874  0.71169357  1  0.003496  -0.000235  3.729584  0.0  -0.026538  -0.000541  3.984947  -0.001  -0.018413  -0.000489  4.002257  -0.001  -0.069911  -0.032127  -0.000448  3.974251  -0.001
C  C79  1  0.67984509  0.09992916  0.28829888  1  0.003346  -0.000221  3.728782  0.0  -0.026687  -0.000483  3.984133  -0.001  -0.018583  -0.000428  4.00147  -0.001  -0.069782  -0.032287  -0.000414  3.973478  -0.001
C  C80  1  0.08297373  0.92406424  0.25236428  1  0.67669  0.002151  3.851575  0.004  0.632452  -0.000368  4.14829  0.001  0.673164  -0.000374  4.137774  0.0  0.211672  0.603913  -0.000305  4.155552  0.001
C  C81  1  0.91702336  0.07593180  0.74762256  1  0.676508  -0.002096  3.85157  -0.004  0.632377  0.000355  4.148187  -0.001  0.673087  0.000356  4.137674  0.0  0.211657  0.603856  0.000302  4.155431  -0.001
C  C82  1  0.33151016  0.46969972  0.59645183  1  -0.091755  -0.000112  3.737165  0.0  -0.109983  -2e-06  4.002654  0.0  -0.118961  -1e-05  4.024214  0.0  -0.096042  -0.104331  1e-05  3.98849  0.0
C  C83  1  0.66847299  0.53028288  0.40354946  1  -0.091589  -0.000143  3.736743  0.0  -0.109855  -2.5e-05  4.002235  0.0  -0.118837  -2e-05  4.023812  0.0  -0.096076  -0.104203  -1.8e-05  3.988063  0.0
C  C84  1  0.29730736  0.95780236  0.63928398  1  -0.091279  0.000836  3.747685  0.001  -0.105546  9.9e-05  4.003712  0.0  -0.112426  6.1e-05  4.021666  0.0  -0.098094  -0.101261  0.00013  3.992594  0.0
C  C85  1  0.70268495  0.04220031  0.36072667  1  -0.091135  0.000871  3.746601  0.001  -0.105497  0.000132  4.002685  0.0  -0.112367  6.6e-05  4.020634  0.0  -0.09804  -0.101228  0.000172  3.991562  0.0
C  C86  1  0.00563299  0.23777139  0.47701677  1  -0.089661  0.000263  3.742073  0.0  -0.104512  8.1e-05  4.000262  0.0  -0.112304  3.9e-05  4.020246  0.0  -0.094975  -0.099423  0.000127  3.986825  0.0
C  C87  1  0.99436972  0.76222917  0.52297328  1  -0.08965  -0.000317  3.742163  0.0  -0.104553  -5.2e-05  4.000356  0.0  -0.112356  -1.6e-05  4.020356  0.0  -0.094927  -0.099443  -5.5e-05  3.986899  0.0
C  C88  1  0.03579510  0.11553397  0.42200616  1  0.000496  0.000388  3.706214  0.001  -0.028357  0.000576  3.957207  0.001  -0.020538  0.000505  3.97402  0.001  -0.066503  -0.033959  0.000451  3.946925  0.001
C  C89  1  0.96420678  0.88446841  0.57797904  1  0.0004  -0.000341  3.706004  -0.001  -0.028386  -0.00055  3.956922  -0.001  -0.020588  -0.000478  3.973756  -0.001  -0.066356  -0.033965  -0.000435  3.946656  -0.001
C  C90  1  0.99078921  0.24330072  0.28491086  1  -0.215576  -0.003024  3.712145  -0.003  -0.198428  -0.002493  3.954495  -0.003  -0.216632  -0.002117  3.979821  -0.002  -0.040247  -0.18653  -0.002174  3.937936  -0.002
C  C91  1  0.00920246  0.75669359  0.71507873  1  -0.215926  0.002676  3.712553  0.003  -0.198789  0.00237  3.954879  0.003  -0.216985  0.002042  3.980192  0.002  -0.040302  -0.186895  0.002043  3.938325  0.002
C  C92  1  0.01538095  0.11619304  0.22814195  1  0.334244  -0.000513  3.783932  -0.001  0.316151  -0.000375  4.05069  0.0  0.337762  -0.000378  4.070587  0.0  0.08666  0.300117  -0.000293  4.035843  0.0
C  C93  1  0.98460691  0.88379398  0.77184579  1  0.334253  3e-06  3.783951  0.0  0.316203  -8.8e-05  4.050728  0.0  0.337812  -8.6e-05  4.070624  0.0  0.086623  0.300192  -4.5e-05  4.035896  0.0
C  C94  1  0.98612293  0.30054315  0.40864791  1  -0.001747  -0.000363  3.704189  -0.001  -0.02936  -0.000519  3.957269  -0.001  -0.021885  -0.000476  3.97462  -0.001  -0.066265  -0.03418  -0.000379  3.944918  -0.001
C  C95  1  0.01387373  0.69945931  0.59133847  1  -0.001535  0.000394  3.704141  0.001  -0.029155  0.000503  3.957207  0.001  -0.021701  0.00046  3.974592  0.001  -0.066239  -0.033969  0.000377  3.944857  0.001
C  C96  1  0.97467550  0.32544948  0.22516465  1  0.666439  -0.00242  3.841792  -0.004  0.617079  0.000675  4.149438  -0.001  0.656752  0.000739  4.139807  0.0  0.211999  0.589435  0.0005  4.155425  -0.001
C  C97  1  0.02531148  0.67453840  0.77481386  1  0.666683  0.002801  3.841486  0.005  0.61745  -0.000229  4.148936  0.001  0.657118  -0.00033  4.139309  0.0  0.212199  0.589807  -0.000121  4.154943  0.001
O  O98  1  0.26315410  0.49076534  0.21841186  1  -0.69852  -0.04304  2.198084  -0.061  -0.661044  -0.037589  2.492801  -0.057  -0.701815  -0.03136  2.47732  -0.049  -0.376975  -0.62946  -0.032773  2.502737  -0.048
O  O99  1  0.73686116  0.50923698  0.78159350  1  -0.698477  -0.042991  2.197794  -0.061  -0.66087  -0.03758  2.492498  -0.057  -0.701644  -0.031355  2.477034  -0.049  -0.376761  -0.629313  -0.032761  2.502396  -0.048
O  O100  1  0.36157473  0.06652626  0.26350629  1  -0.616532  0.068671  2.133558  0.095  -0.590274  0.051858  2.439518  0.077  -0.637196  0.04203  2.428306  0.066  -0.331505  -0.556702  0.045798  2.450151  0.066
O  O101  1  0.63842365  0.93346348  0.73650096  1  -0.616727  0.068599  2.133551  0.095  -0.590376  0.051785  2.439301  0.077  -0.637298  0.041962  2.428081  0.066  -0.331486  -0.556791  0.045743  2.449917  0.066
O  O102  1  0.20924982  0.34871193  0.96450159  1  -0.610007  -0.056424  2.11261  -0.079  -0.57535  -0.043246  2.395301  -0.065  -0.617622  -0.034431  2.380757  -0.054  -0.317924  -0.54309  -0.038821  2.404884  -0.057
O  O103  1  0.79076523  0.65129861  0.03550014  1  -0.609903  -0.056276  2.11252  -0.079  -0.575238  -0.04306  2.395253  -0.065  -0.617512  -0.034248  2.38071  -0.054  -0.317892  -0.543021  -0.038671  2.40482  -0.056
O  O104  1  0.27929327  0.14884524  0.00628644  1  -0.632773  -0.004964  2.359144  -0.007  -0.632582  -0.001275  2.73703  -0.001  -0.692063  6e-05  2.729886  0.001  -0.35633  -0.581233  -0.001454  2.736552  -0.002
O  O105  1  0.72069881  0.85114168  0.99369449  1  -0.63259  -0.003736  2.359638  -0.007  -0.632357  0.00037  2.737479  -0.001  -0.691844  0.001851  2.730352  0.002  -0.356294  -0.58106  -0.000257  2.737016  -0.001
O  O106  1  0.38813889  0.10046401  0.45118029  1  -0.61087  0.01314  2.020322  0.018  -0.542625  0.00837  2.233187  0.012  -0.572341  0.005006  2.224985  0.008  -0.288321  -0.521706  0.009166  2.239229  0.013
O  O107  1  0.61186097  0.89951732  0.54880288  1  -0.61089  0.013136  2.020162  0.018  -0.542569  0.008393  2.233053  0.012  -0.57226  0.005016  2.224784  0.008  -0.288387  -0.521768  0.009195  2.239149  0.013
O  O108  1  0.32624152  0.92987204  0.01372876  1  -0.668789  0.048251  2.177132  0.066  -0.63409  0.041449  2.487937  0.061  -0.676701  0.034596  2.46879  0.053  -0.339599  -0.600828  0.036616  2.499845  0.052
O  O109  1  0.67373101  0.07011891  0.98626725  1  -0.66894  0.046923  2.177034  0.066  -0.634194  0.039788  2.487732  0.06  -0.676829  0.032758  2.468666  0.052  -0.33961  -0.600921  0.035431  2.499628  0.052
O  O110  1  0.23563893  0.32306739  0.78332624  1  -0.614487  -0.015325  1.950527  -0.021  -0.55572  -0.009431  2.157794  -0.014  -0.581436  -0.005681  2.14705  -0.009  -0.306558  -0.537826  -0.010676  2.165161  -0.015
O  O111  1  0.76436042  0.67694443  0.21669607  1  -0.614554  -0.015329  1.950725  -0.021  -0.555698  -0.009442  2.157993  -0.014  -0.581421  -0.005692  2.147246  -0.009  -0.306582  -0.537811  -0.010678  2.16537  -0.015
O  O112  1  0.31718303  0.27209994  0.22609441  1  -0.600501  0.006664  2.308921  0.009  -0.588932  0.006057  2.657056  0.009  -0.648647  0.005857  2.652108  0.009  -0.348829  -0.53931  0.004835  2.657481  0.007
O  O113  1  0.68285679  0.72790945  0.77392403  1  -0.600449  0.00671  2.309435  0.009  -0.588836  0.006169  2.657673  0.009  -0.648535  0.005969  2.652704  0.009  -0.348936  -0.539271  0.004908  2.658132  0.007
O  O114  1  0.29615689  0.65455000  0.39069038  1  -0.652675  -0.010228  1.96186  -0.014  -0.612687  -0.007259  2.198019  -0.011  -0.63937  -0.004437  2.189736  -0.007  -0.361865  -0.593847  -0.007859  2.2035  -0.011
O  O115  1  0.70381628  0.34543633  0.60929975  1  -0.652695  -0.010126  1.96176  -0.014  -0.612581  -0.007201  2.197949  -0.01  -0.639265  -0.004405  2.189674  -0.007  -0.361868  -0.59372  -0.007792  2.203415  -0.011
O  O116  1  0.07849752  0.84888953  0.13949012  1  -0.655865  -0.054057  2.126367  -0.076  -0.628105  -0.044423  2.43065  -0.067  -0.671831  -0.036896  2.415157  -0.058  -0.338924  -0.596134  -0.038505  2.442628  -0.056
O  O117  1  0.92150639  0.15111287  0.86050240  1  -0.655798  0.054698  2.126304  0.076  -0.62804  0.044732  2.430487  0.067  -0.671766  0.037094  2.415026  0.058  -0.338842  -0.59604  0.038796  2.442428  0.056
O  O118  1  0.12748370  0.88306919  0.32540012  1  -0.661361  -0.012545  1.955896  -0.017  -0.618207  -0.008666  2.192288  -0.013  -0.644285  -0.005226  2.182105  -0.008  -0.36513  -0.599001  -0.009326  2.198717  -0.013
O  O119  1  0.87251071  0.11693245  0.67459681  1  -0.661314  0.012523  1.956083  0.017  -0.618216  0.008696  2.192498  0.013  -0.644297  0.005255  2.182315  0.008  -0.365127  -0.599001  0.009334  2.198912  0.013
O  O120  1  0.41646946  0.86071591  0.36683908  1  -0.934821  0.000149  1.905223  0.0  -0.89329  0.000145  2.109056  0.0  -0.913344  6.7e-05  2.075294  0.0  -0.651902  -0.878158  0.000187  2.132597  0.0
O  O121  1  0.58352267  0.13928494  0.63317237  1  -0.934967  0.000136  1.905071  0.0  -0.89345  0.000141  2.10918  0.0  -0.913539  5.6e-05  2.075318  0.0  -0.651843  -0.878302  0.000199  2.132737  0.0
O  O122  1  0.38053847  0.80265882  0.13379844  1  -0.905995  0.000376  1.929423  0.001  -0.860707  0.00026  2.127439  0.0  -0.88076  8.6e-05  2.100208  0.0  -0.635938  -0.845769  0.00033  2.147122  0.0
O  O123  1  0.61946280  0.19735014  0.86621092  1  -0.906002  0.000433  1.929592  0.001  -0.860682  0.000266  2.12771  0.0  -0.880731  5.7e-05  2.100483  0.0  -0.63604  -0.845741  0.00036  2.147401  0.001
O  O124  1  0.01800210  0.05725447  0.10927162  1  -0.640938  0.002577  2.35717  0.004  -0.633253  0.000756  2.733592  0.002  -0.694122  0.000206  2.726688  0.001  -0.360301  -0.582708  0.000829  2.734599  0.002
O  O125  1  0.98197752  0.94272256  0.89071272  1  -0.640914  -0.003674  2.357363  -0.005  -0.63318  -0.002188  2.733648  -0.003  -0.694049  -0.001852  2.726758  -0.002  -0.360155  -0.582628  -0.001855  2.73463  -0.002
O  O126  1  0.47559121  0.61027254  0.17954567  1  -0.911541  -7.2e-05  1.850572  0.0  -0.865902  -6.2e-05  2.02984  0.0  -0.885054  -1.8e-05  2.001511  0.0  -0.639059  -0.851715  -8.3e-05  2.049679  0.0
O  O127  1  0.52441241  0.38974011  0.82047419  1  -0.911689  -8.3e-05  1.850465  0.0  -0.86609  -7.2e-05  2.029699  0.0  -0.88524  -2.7e-05  2.001372  0.0  -0.639156  -0.851887  -9.4e-05  2.049555  0.0
O  O128  1  0.97676766  0.43895334  0.28980037  1  -0.566572  0.017499  1.951265  0.023  -0.512781  0.010039  2.167658  0.015  -0.540351  0.005546  2.160445  0.009  -0.287504  -0.493039  0.011662  2.172137  0.016
O  O129  1  0.02321435  0.56103640  0.71017058  1  -0.566663  -0.017276  1.951262  -0.023  -0.512923  -0.009895  2.167623  -0.015  -0.540491  -0.005458  2.160418  -0.008  -0.287501  -0.493173  -0.0115  2.172103  -0.016
O  O130  1  0.02933927  0.61483167  0.22795863  1  -0.944691  -0.000117  1.89722  0.0  -0.905551  -0.000124  2.087735  0.0  -0.924021  -7.3e-05  2.054815  0.0  -0.65734  -0.891804  -0.000118  2.1106  0.0
O  O131  1  0.97066075  0.38517351  0.77203158  1  -0.944793  3e-06  1.897112  0.0  -0.905644  -1.4e-05  2.087522  0.0  -0.924116  1.4e-05  2.054616  0.0  -0.657442  -0.891884  -5.1e-05  2.110399  0.0
O  O132  1  0.96081971  0.28300470  0.10873761  1  -0.647801  0.067071  2.102124  0.092  -0.626671  0.051341  2.415989  0.076  -0.670496  0.041818  2.394466  0.065  -0.337127  -0.593507  0.044949  2.430315  0.065
O  O133  1  0.03916958  0.71698593  0.89124546  1  -0.647886  -0.065311  2.101635  -0.092  -0.62676  -0.049418  2.415368  -0.076  -0.670587  -0.039947  2.393809  -0.064  -0.337305  -0.593625  -0.043411  2.429742  -0.064
O  O134  1  0.18308792  0.59112467  0.01655897  1  -0.91174  -0.000339  1.843594  -0.001  -0.870664  -0.000218  2.025865  0.0  -0.888597  -3.2e-05  1.989731  0.0  -0.65034  -0.857264  -0.0003  2.051292  0.0
O  O135  1  0.81695283  0.40887083  0.98343697  1  -0.911904  -2.8e-05  1.843518  0.0  -0.870843  8e-06  2.025848  0.0  -0.888766  3e-06  1.989718  0.0  -0.650469  -0.857431  1.3e-05  2.051298  0.0
O  O136  1  0.51021614  0.37053059  0.07731093  1  -0.848916  0.001029  1.885777  0.0  -0.802634  0.001052  2.070792  0.001  -0.8216  0.001158  2.03431  0.001  -0.57652  -0.787169  0.000774  2.097245  0.0
O  O137  1  0.48980089  0.62948001  0.92270367  1  -0.848778  0.000981  1.885962  0.0  -0.802469  0.001013  2.070894  0.001  -0.821448  0.001116  2.034446  0.001  -0.576502  -0.787019  0.000748  2.097336  0.0
O  O138  1  0.36481043  0.77487268  0.84168457  1  -0.569395  0.013592  1.961084  0.018  -0.519937  0.008234  2.18869  0.012  -0.544675  0.004752  2.178045  0.008  -0.289978  -0.501506  0.009609  2.194604  0.014
O  O139  1  0.63520322  0.22514621  0.15833091  1  -0.569396  0.013504  1.96082  0.018  -0.51994  0.008098  2.188414  0.012  -0.544679  0.004653  2.177784  0.007  -0.289901  -0.501506  0.009492  2.194317  0.013
