# generated using pymatgen
data_MnH16C20S2(N5O3)2
_symmetry_space_group_name_H-M   'P 1'
_cell_length_a   7.49440340
_cell_length_b   11.57806805
_cell_length_c   14.40096734
_cell_angle_alpha   89.97749006
_cell_angle_beta   89.96362809
_cell_angle_gamma   103.34336763
_symmetry_Int_Tables_number   1
_chemical_formula_structural   MnH16C20S2(N5O3)2
_chemical_formula_sum   'Mn2 H32 C40 S4 N20 O12'
_cell_volume   1215.84862828
_cell_formula_units_Z   2
loop_
 _symmetry_equiv_pos_site_id
 _symmetry_equiv_pos_as_xyz
  1  'x, y, z'
loop_
 _atom_site_type_symbol
 _atom_site_label
 _atom_site_symmetry_multiplicity
 _atom_site_fract_x
 _atom_site_fract_y
 _atom_site_fract_z
 _atom_site_occupancy
 _atom_site_hle17_ddec_charge
 _atom_site_hle17_ddec_spin_density
 _atom_site_hle17_ddec_sum_bond_order
 _atom_site_hle17_magmom
 _atom_site_hse06_10hf_ddec_charge
 _atom_site_hse06_10hf_ddec_spin_density
 _atom_site_hse06_10hf_ddec_sum_bond_order
 _atom_site_hse06_10hf_magmom
 _atom_site_hse06_ddec_charge
 _atom_site_hse06_ddec_spin_density
 _atom_site_hse06_ddec_sum_bond_order
 _atom_site_hse06_magmom
 _atom_site_pbe_cm5_charge
 _atom_site_pbe_ddec_charge
 _atom_site_pbe_ddec_spin_density
 _atom_site_pbe_ddec_sum_bond_order
 _atom_site_pbe_magmom
Mn  Mn0  1  0.99998568  0.00000516  0.50000294  1  1.013919  -4.788668  1.968366  -4.649  0.837582  -4.699014  2.47232  -4.49  0.886294  -4.756765  2.414107  -4.567  0.627375  0.800442  -4.636325  2.515134  -4.411
Mn  Mn1  1  0.49997337  0.49999460  0.99999868  1  1.013721  4.788615  1.968935  4.649  0.837375  4.69897  2.472852  4.49  0.886075  4.756728  2.414591  4.567  0.627405  0.800282  4.636277  2.515648  4.411
H  H2  1  0.53645333  0.86838340  0.48526167  1  0.109805  0.000546  0.954083  0.0  0.111206  0.000295  1.029235  0.0  0.11513  0.000338  1.024224  0.0  0.13573  0.108232  0.000238  1.033034  0.0
H  H3  1  0.96332061  0.63153992  0.98521617  1  0.109844  -0.00054  0.953855  0.0  0.111108  -0.000294  1.029163  0.0  0.11504  -0.000338  1.024084  0.0  0.135712  0.108146  -0.000237  1.032953  0.0
H  H4  1  0.46358969  0.13159789  0.51476872  1  0.109875  0.000542  0.953932  0.0  0.111185  0.000296  1.029203  0.0  0.115111  0.000338  1.02416  0.0  0.135774  0.108262  0.000239  1.03295  0.0
H  H5  1  0.03666112  0.36846731  0.01479271  1  0.109775  -0.000544  0.954024  0.0  0.111027  -0.000294  1.029351  0.0  0.11495  -0.000338  1.024277  0.0  0.135688  0.108105  -0.000237  1.033104  0.0
H  H6  1  0.96660923  0.86017300  0.29750155  1  0.107975  8.4e-05  0.995702  0.0  0.111589  -8.4e-05  1.064052  0.0  0.115492  -3.6e-05  1.06057  0.0  0.113013  0.108753  -0.000131  1.066736  0.0
H  H7  1  0.53361040  0.63988426  0.79746389  1  0.107573  -8.9e-05  0.99573  0.0  0.111384  8.3e-05  1.063924  0.0  0.115297  3.5e-05  1.060424  0.0  0.113027  0.108548  0.00013  1.066613  0.0
H  H8  1  0.03340645  0.13981014  0.70252052  1  0.108136  8.2e-05  0.995331  0.0  0.111684  -8.4e-05  1.063762  0.0  0.115573  -3.5e-05  1.060336  0.0  0.113046  0.108846  -0.00013  1.066447  0.0
H  H9  1  0.46639055  0.36010605  0.20252415  1  0.107476  -8.6e-05  0.995693  0.0  0.111286  8.3e-05  1.063894  0.0  0.115191  3.5e-05  1.060392  0.0  0.112972  0.108448  0.00013  1.066581  0.0
H  H10  1  0.67055987  0.67217256  0.25701198  1  0.120592  -0.000208  0.995463  0.0  0.122078  -0.000125  1.068992  0.0  0.124948  -0.000153  1.06744  0.0  0.117572  0.120058  -9.3e-05  1.070124  0.0
H  H11  1  0.82980501  0.82801008  0.75701440  1  0.120474  0.000198  0.995357  0.0  0.121896  0.000127  1.069004  0.0  0.124752  0.000155  1.067472  0.0  0.117495  0.119874  9.5e-05  1.070153  0.0
H  H12  1  0.32942339  0.32784622  0.74297675  1  0.120657  -0.000202  0.995519  0.0  0.122171  -0.000125  1.069019  0.0  0.12504  -0.000153  1.067467  0.0  0.117551  0.120143  -9.2e-05  1.070143  0.0
H  H13  1  0.17018582  0.17198913  0.24298823  1  0.120535  0.000207  0.995376  0.0  0.12199  0.000128  1.068965  0.0  0.12485  0.000155  1.067409  0.0  0.11752  0.119973  9.5e-05  1.070099  0.0
H  H14  1  0.17970605  0.77329768  0.38189609  1  0.135464  0.000427  0.971499  0.0  0.141359  0.000502  1.037443  0.0  0.144546  0.0005  1.035862  0.0  0.11106  0.139045  0.000488  1.038599  0.0
H  H15  1  0.32018453  0.72675260  0.88184104  1  0.135715  -0.000432  0.971382  0.0  0.141619  -0.000502  1.037298  0.0  0.144823  -0.0005  1.035662  0.0  0.111294  0.139296  -0.000488  1.038489  0.0
H  H16  1  0.82031071  0.22670680  0.61809889  1  0.135496  0.000427  0.971489  0.0  0.141389  0.000502  1.037429  0.0  0.144573  0.000501  1.035893  0.0  0.111076  0.139076  0.000488  1.038582  0.0
H  H17  1  0.67978700  0.27324489  0.11816089  1  0.135667  -0.000432  0.971323  0.0  0.14156  -0.000502  1.037253  0.0  0.144772  -0.0005  1.035607  0.0  0.111213  0.139235  -0.000488  1.038442  0.0
H  H18  1  0.92398991  0.57178473  0.38935399  1  0.125076  1.7e-05  0.945599  0.0  0.132637  4e-06  1.011435  0.0  0.13569  1.2e-05  1.009717  0.0  0.10889  0.130452  -4e-06  1.012718  0.0
H  H19  1  0.57596322  0.92823863  0.88940681  1  0.124838  -2.3e-05  0.944966  0.0  0.132223  -4e-06  1.011052  0.0  0.135235  -1.1e-05  1.009398  0.0  0.108762  0.130046  4e-06  1.012347  0.0
H  H20  1  0.07601917  0.42822065  0.61063822  1  0.124975  2.7e-05  0.945769  0.0  0.132542  4e-06  1.011609  0.0  0.135593  1.1e-05  1.009887  0.0  0.108858  0.130356  -5e-06  1.0129  0.0
H  H21  1  0.42400840  0.07175175  0.11057846  1  0.124982  -2.6e-05  0.944741  0.0  0.132295  -4e-06  1.010917  0.0  0.135342  -1.1e-05  1.009205  0.0  0.1088  0.130121  4e-06  1.012206  0.0
H  H22  1  0.24815724  0.28646823  0.46934979  1  0.086954  0.000223  0.966627  0.0  0.09221  -8.7e-05  1.038566  0.0  0.094767  -1.3e-05  1.035453  0.0  0.129489  0.09033  -0.000172  1.04081  0.0
H  H23  1  0.25167155  0.21341965  0.96941533  1  0.086819  -0.000222  0.966355  0.0  0.091985  8.8e-05  1.03844  0.0  0.094606  1.3e-05  1.035267  0.0  0.12937  0.09011  0.000173  1.040671  0.0
H  H24  1  0.75185621  0.71353447  0.53065422  1  0.086908  0.000223  0.966513  0.0  0.092161  -8.7e-05  1.038489  0.0  0.094714  -1.3e-05  1.03539  0.0  0.12946  0.090281  -0.000173  1.040732  0.0
H  H25  1  0.74833816  0.78656174  0.03059633  1  0.086875  -0.00022  0.966308  0.0  0.091943  8.8e-05  1.038488  0.0  0.094585  1.3e-05  1.035285  0.0  0.129362  0.090068  0.000173  1.040723  0.0
H  H26  1  0.80333562  0.35930750  0.31663930  1  0.133272  -0.000168  0.980029  0.0  0.142931  -0.000177  1.038519  0.0  0.146209  -0.000159  1.036021  0.0  0.12349  0.140549  -0.000188  1.04045  0.0
H  H27  1  0.69677320  0.14076436  0.81655703  1  0.13335  0.000166  0.980113  0.0  0.142905  0.000177  1.038719  0.0  0.146163  0.00016  1.036292  0.0  0.123531  0.14052  0.000188  1.040652  0.0
H  H28  1  0.19667474  0.64067567  0.68336680  1  0.133041  -0.000169  0.980168  0.0  0.142744  -0.000177  1.038611  0.0  0.145997  -0.00016  1.036146  0.0  0.12346  0.140367  -0.000188  1.040528  0.0
H  H29  1  0.30320116  0.85924824  0.18340601  1  0.133391  0.000168  0.979961  0.0  0.142953  0.000177  1.038584  0.0  0.1462  0.00016  1.036122  0.0  0.123524  0.140562  0.000188  1.040525  0.0
H  H30  1  0.72804413  0.11956857  0.36263494  1  0.114892  0.000119  0.965207  0.0  0.120023  -0.000134  1.029852  0.0  0.122482  -2.6e-05  1.028976  0.0  0.117844  0.118305  -0.000244  1.030565  0.0
H  H31  1  0.77212721  0.38040269  0.86256286  1  0.114724  -0.000115  0.965273  0.0  0.119703  0.000134  1.030118  0.0  0.122157  2.7e-05  1.02925  0.0  0.11768  0.117981  0.000244  1.030841  0.0
H  H32  1  0.27197115  0.88042080  0.63736629  1  0.114863  0.000122  0.965302  0.0  0.120071  -0.000133  1.029836  0.0  0.122528  -2.6e-05  1.029  0.0  0.11788  0.118354  -0.000244  1.030549  0.0
H  H33  1  0.22784190  0.61960282  0.13740366  1  0.114721  -0.000115  0.965184  0.0  0.119706  0.000135  1.03004  0.0  0.122161  2.7e-05  1.029171  0.0  0.117616  0.117983  0.000245  1.030768  0.0
C  C34  1  0.61387061  0.84455970  0.42755577  1  0.168982  -0.007154  3.609123  -0.007  0.111805  -0.009096  3.874493  -0.008  0.125627  -0.007756  3.884717  -0.007  0.1434  0.102761  -0.010613  3.867333  -0.009
C  C35  1  0.88605801  0.65536537  0.92749507  1  0.168797  0.00714  3.608945  0.007  0.111968  0.009142  3.874389  0.008  0.125785  0.007798  3.884601  0.007  0.143204  0.102909  0.010664  3.867231  0.009
C  C36  1  0.38615340  0.15542431  0.57245935  1  0.168787  -0.007108  3.609137  -0.007  0.111598  -0.009101  3.874541  -0.008  0.125411  -0.00776  3.884752  -0.007  0.143093  0.102506  -0.01062  3.867357  -0.009
C  C37  1  0.11391540  0.34464099  0.07251242  1  0.168948  0.007176  3.608621  0.007  0.112168  0.009151  3.874133  0.008  0.125995  0.007808  3.88434  0.007  0.143299  0.103066  0.010675  3.866953  0.009
C  C38  1  0.83258476  0.83401426  0.32977221  1  -0.005872  -0.00226  3.744923  -0.003  -0.037491  -0.003588  4.015214  -0.003  -0.036615  -0.003095  4.034141  -0.003  -0.007254  -0.038128  -0.004109  4.002381  -0.004
C  C39  1  0.66754619  0.66601306  0.82972503  1  -0.004942  0.002244  3.745018  0.003  -0.036622  0.003604  4.01513  0.003  -0.035743  0.003108  4.034077  0.003  -0.007038  -0.03726  0.004126  4.002294  0.004
C  C40  1  0.16744132  0.16599019  0.67022971  1  -0.006093  -0.002216  3.744294  -0.003  -0.037649  -0.003591  4.014662  -0.003  -0.036764  -0.003097  4.033624  -0.003  -0.007223  -0.038283  -0.004112  4.001828  -0.004
C  C41  1  0.33243068  0.33398442  0.17027066  1  -0.004793  0.002266  3.745038  0.003  -0.03643  0.003607  4.015169  0.003  -0.035534  0.00311  4.034092  0.003  -0.006931  -0.037071  0.004129  4.002331  0.004
C  C42  1  0.68823004  0.74194675  0.30838910  1  -0.060761  0.00129  3.663072  0.001  -0.10269  0.000476  3.929274  0.0  -0.100678  0.000879  3.947179  0.001  -0.008092  -0.10394  0.000114  3.917204  0.0
C  C43  1  0.81192228  0.75812690  0.80834642  1  -0.061019  -0.001233  3.6631  -0.001  -0.102862  -0.000475  3.929723  0.0  -0.10086  -0.000881  3.9477  -0.001  -0.008251  -0.104093  -0.000112  3.917621  0.0
C  C44  1  0.31177086  0.25807287  0.69160936  1  -0.060849  0.001238  3.662979  0.001  -0.102885  0.000477  3.929119  0.0  -0.100872  0.000881  3.947016  0.001  -0.008145  -0.104111  0.000117  3.917022  0.0
C  C45  1  0.18807392  0.24186875  0.19165898  1  -0.061088  -0.001282  3.663157  -0.001  -0.102936  -0.000475  3.929724  0.0  -0.100929  -0.000882  3.947625  -0.001  -0.008302  -0.104159  -0.000112  3.917603  0.0
C  C46  1  0.38052004  0.66537353  0.37696484  1  0.081848  -0.000873  3.772644  -0.001  0.072665  -0.001039  4.050564  -0.001  0.07684  -0.000813  4.074122  -0.001  0.082843  0.06983  -0.001332  4.034611  -0.001
C  C47  1  0.11942338  0.83468457  0.87692503  1  0.081993  0.000819  3.773588  0.001  0.073126  0.001038  4.051395  0.001  0.077293  0.000812  4.074962  0.001  0.08283  0.070294  0.001332  4.035437  0.001
C  C48  1  0.61948142  0.33462921  0.62303293  1  0.082077  -0.000899  3.772398  -0.001  0.072759  -0.001037  4.050382  -0.001  0.076935  -0.000813  4.073943  -0.001  0.082813  0.069923  -0.001332  4.034429  -0.001
C  C49  1  0.88056607  0.16531820  0.12307829  1  0.082072  0.000823  3.773606  0.001  0.073103  0.001039  4.051583  0.001  0.077269  0.000812  4.075151  0.001  0.082785  0.070272  0.001332  4.035623  0.001
C  C50  1  0.20673290  0.68479097  0.38202842  1  -0.136384  0.000256  3.742398  0.0  -0.161133  -3.5e-05  4.003407  0.0  -0.163843  7.7e-05  4.023845  0.0  -0.100108  -0.159141  -0.000155  3.989472  0.0
C  C51  1  0.29316877  0.81523518  0.88199966  1  -0.136614  -0.000206  3.742382  0.0  -0.161419  3.7e-05  4.003252  0.0  -0.164128  -7.6e-05  4.023695  0.0  -0.100391  -0.15943  0.000157  3.989326  0.0
C  C52  1  0.79327518  0.31521531  0.61796448  1  -0.136609  0.000283  3.742382  0.0  -0.161316  -3.7e-05  4.003406  0.0  -0.164034  7.8e-05  4.023878  0.0  -0.100144  -0.159321  -0.000156  3.989469  0.0
C  C53  1  0.70680616  0.18475697  0.11799741  1  -0.136489  -0.000208  3.742167  0.0  -0.161201  3.7e-05  4.002969  0.0  -0.163912  -7.6e-05  4.02342  0.0  -0.100221  -0.159212  0.000157  3.989037  0.0
C  C54  1  0.07053669  0.57705408  0.38764946  1  -0.136136  -0.000398  3.759473  0.0  -0.165685  -0.000584  4.029985  0.0  -0.168087  -0.00048  4.048717  0.0  -0.102795  -0.163982  -0.000715  4.017204  -0.001
C  C55  1  0.42938040  0.92296355  0.88764592  1  -0.135363  0.000378  3.758697  0.0  -0.164771  0.000586  4.029404  0.0  -0.167127  0.000477  4.048171  0.0  -0.102569  -0.163095  0.000713  4.016651  0.001
C  C56  1  0.92948476  0.42294860  0.61234830  1  -0.135945  -0.000444  3.759576  0.0  -0.165525  -0.000585  4.030079  0.0  -0.167916  -0.000478  4.048801  0.0  -0.102756  -0.163828  -0.000714  4.017302  -0.001
C  C57  1  0.57060781  0.07703212  0.11234768  1  -0.1356  0.000398  3.75891  0.0  -0.164865  0.000585  4.029602  0.0  -0.167251  0.000477  4.048325  0.0  -0.102621  -0.163188  0.000713  4.016845  0.001
C  C58  1  0.14483795  0.47889748  0.38731163  1  0.086047  -0.000232  3.768201  0.0  0.075542  -0.000488  4.046848  0.0  0.081231  -0.000291  4.068626  0.0  0.084655  0.07172  -0.000733  4.0321  0.0
C  C59  1  0.35511321  0.02112696  0.88729016  1  0.085312  0.000271  3.76942  0.0  0.074833  0.000489  4.048081  0.0  0.080511  0.000296  4.069861  0.0  0.084396  0.071018  0.000737  4.033329  0.0
C  C60  1  0.85518290  0.52109988  0.61268752  1  0.086032  -0.000201  3.767936  0.0  0.07556  -0.000488  4.046583  0.0  0.081248  -0.000292  4.068358  0.0  0.084681  0.071737  -0.000734  4.031835  0.0
C  C61  1  0.64486568  0.97886874  0.11270136  1  0.08545  0.000254  3.769438  0.0  0.07476  0.00049  4.048351  0.0  0.080439  0.000296  4.070137  0.0  0.084352  0.070942  0.000737  4.033599  0.0
C  C62  1  0.11654453  0.27079026  0.43465623  1  0.160374  -0.004828  3.653233  -0.005  0.101022  -0.00695  3.923401  -0.006  0.114503  -0.006103  3.936532  -0.006  0.139629  0.092302  -0.00781  3.914018  -0.007
C  C63  1  0.38339630  0.22917277  0.93470378  1  0.160364  0.004817  3.652517  0.005  0.100992  0.006924  3.922908  0.006  0.114406  0.006075  3.936042  0.006  0.139779  0.092283  0.007782  3.913514  0.007
C  C64  1  0.88347499  0.72920710  0.56534430  1  0.16034  -0.004839  3.653088  -0.005  0.100981  -0.006939  3.923302  -0.006  0.114463  -0.006091  3.936465  -0.006  0.139593  0.092263  -0.007798  3.913916  -0.007
C  C65  1  0.61660202  0.77081398  0.06529468  1  0.160088  0.004793  3.652528  0.005  0.100804  0.006925  3.922945  0.006  0.114207  0.006076  3.936062  0.006  0.139648  0.092093  0.007783  3.913562  0.007
C  C66  1  0.88050550  0.30743595  0.35591814  1  -0.049809  0.000686  3.611633  0.001  -0.088243  8.8e-05  3.862837  0.0  -0.087105  0.000501  3.881374  0.0  0.002934  -0.088753  -0.000316  3.850244  0.0
C  C67  1  0.61955610  0.19258927  0.85589168  1  -0.050124  -0.000681  3.611461  -0.001  -0.088519  -8.7e-05  3.862662  0.0  -0.087403  -0.000499  3.881261  0.0  0.002817  -0.089018  0.000315  3.850053  0.0
C  C68  1  0.11952928  0.69256669  0.64408309  1  -0.049542  0.000712  3.611618  0.001  -0.088026  8.6e-05  3.862859  0.0  -0.086872  0.000499  3.881417  0.0  0.00293  -0.088533  -0.000317  3.850264  0.0
C  C69  1  0.38041875  0.80741000  0.14409150  1  -0.049914  -0.00068  3.611146  -0.001  -0.088315  -8.7e-05  3.862332  0.0  -0.087175  -0.000499  3.880898  0.0  0.002828  -0.088814  0.000315  3.849729  0.0
C  C70  1  0.84794976  0.18920461  0.37819130  1  0.013608  -0.001728  3.711273  -0.002  -0.018158  -0.003091  3.979564  -0.003  -0.016838  -0.002589  3.999668  -0.003  0.004009  -0.019162  -0.003585  3.965766  -0.004
C  C71  1  0.65213184  0.31079573  0.87818289  1  0.013655  0.001714  3.711626  0.002  -0.017916  0.003078  3.979897  0.003  -0.016586  0.002577  4.000026  0.003  0.004087  -0.018914  0.003571  3.966089  0.004
C  C72  1  0.15207145  0.81079007  0.62181827  1  0.013398  -0.001753  3.711933  -0.002  -0.018435  -0.003084  3.98027  -0.003  -0.017113  -0.002583  4.000397  -0.003  0.003826  -0.019445  -0.003578  3.966482  -0.004
C  C73  1  0.34785593  0.68920972  0.12179473  1  0.0135  0.001707  3.711845  0.002  -0.018103  0.003077  3.980155  0.003  -0.016776  0.002575  4.000276  0.003  0.004173  -0.019102  0.00357  3.966347  0.004
S  S74  1  0.38118101  0.51575566  0.37800274  1  0.070998  -0.000277  2.535393  0.0  0.070627  -0.000607  2.854899  0.0  0.067066  -0.000427  2.861665  0.0  0.100432  0.072726  -0.000822  2.850579  -0.001
S  S75  1  0.11879522  0.98427495  0.87794462  1  0.071091  0.000282  2.536034  0.0  0.070658  0.00061  2.855516  0.0  0.06709  0.00043  2.862325  0.0  0.100667  0.072764  0.000825  2.85119  0.001
S  S76  1  0.61881837  0.48425242  0.62199919  1  0.070861  -0.00028  2.535045  0.0  0.0705  -0.000609  2.854577  0.0  0.06694  -0.000429  2.861344  0.0  0.100377  0.072601  -0.000823  2.850258  -0.001
S  S77  1  0.88119953  0.01573136  0.12204620  1  0.070949  0.00028  2.535851  0.0  0.070613  0.00061  2.855453  0.0  0.067046  0.00043  2.862247  0.0  0.100607  0.072719  0.000826  2.851124  0.001
N  N78  1  0.78531390  0.89717930  0.40410680  1  -0.375338  -0.025042  3.213625  -0.012  -0.308102  -0.030116  3.500905  -0.013  -0.327258  -0.026805  3.515465  -0.01  -0.343986  -0.294091  -0.033312  3.490413  -0.016
N  N79  1  0.71468037  0.60277481  0.90402842  1  -0.375037  0.025071  3.214543  0.012  -0.307842  0.03009  3.501736  0.013  -0.327042  0.026781  3.51633  0.01  -0.34379  -0.293812  0.033282  3.49123  0.016
N  N80  1  0.21470740  0.10280828  0.59589235  1  -0.375008  -0.025062  3.213207  -0.012  -0.307777  -0.030105  3.500465  -0.013  -0.326928  -0.026795  3.515012  -0.01  -0.343843  -0.293765  -0.0333  3.489974  -0.016
N  N81  1  0.28530834  0.39723329  0.09597768  1  -0.375058  0.025057  3.214228  0.012  -0.307942  0.030089  3.501514  0.013  -0.327148  0.026779  3.516103  0.01  -0.343904  -0.293914  0.033282  3.491022  0.016
N  N82  1  0.54942770  0.74889281  0.37082208  1  -0.083682  -0.001596  3.642079  -0.002  0.005158  -0.003211  3.856732  -0.003  -0.009518  -0.002497  3.882878  -0.002  -0.231312  0.014907  -0.003957  3.838877  -0.004
N  N83  1  0.95057850  0.75111172  0.87076760  1  -0.084008  0.001603  3.642561  0.002  0.004238  0.003218  3.857808  0.003  -0.010435  0.002506  3.88395  0.002  -0.231412  0.013987  0.003969  3.839962  0.004
N  N84  1  0.45057738  0.25111259  0.62917985  1  -0.083802  -0.001604  3.641978  -0.002  0.005262  -0.003211  3.856419  -0.003  -0.009416  -0.002499  3.88257  -0.002  -0.231151  0.015007  -0.00396  3.838578  -0.004
N  N85  1  0.04941665  0.24888837  0.12923642  1  -0.084146  0.00161  3.64266  0.002  0.004094  0.003221  3.857964  0.003  -0.010579  0.002508  3.884103  0.002  -0.231386  0.01384  0.003971  3.840129  0.004
N  N86  1  0.05256945  0.35872109  0.39207115  1  -0.079346  -0.001489  3.661918  -0.002  0.01021  -0.002717  3.875142  -0.003  -0.004861  -0.002176  3.902288  -0.002  -0.226519  0.02025  -0.00327  3.856544  -0.003
N  N87  1  0.44739128  0.14127946  0.89206957  1  -0.078961  0.001479  3.662006  0.002  0.010586  0.002712  3.875205  0.003  -0.004488  0.002173  3.902379  0.002  -0.22654  0.020621  0.003264  3.856603  0.003
N  N88  1  0.94744533  0.64128161  0.60792452  1  -0.079286  -0.001487  3.661673  -0.002  0.01028  -0.002713  3.874912  -0.003  -0.004789  -0.002173  3.902051  -0.002  -0.226437  0.020319  -0.003266  3.856313  -0.003
N  N89  1  0.55261418  0.85872327  0.10791986  1  -0.079015  0.00149  3.661916  0.002  0.010599  0.002711  3.875118  0.003  -0.004474  0.002174  3.902286  0.002  -0.226406  0.020635  0.003264  3.856516  0.003
N  N90  1  0.99594179  0.16731058  0.42708362  1  -0.372044  -0.026173  3.234389  -0.013  -0.304199  -0.0298  3.525955  -0.012  -0.324389  -0.026922  3.541868  -0.009  -0.344191  -0.289302  -0.032442  3.514307  -0.014
N  N91  1  0.50408590  0.33265315  0.92712708  1  -0.371715  0.026173  3.233797  0.013  -0.30412  0.029835  3.525693  0.012  -0.324194  0.026949  3.54133  0.009  -0.344145  -0.28924  0.032484  3.514041  0.014
N  N92  1  0.00409440  0.83268495  0.57293011  1  -0.371837  -0.026143  3.23418  -0.013  -0.30403  -0.029793  3.525781  -0.012  -0.324234  -0.026918  3.541708  -0.009  -0.344025  -0.289123  -0.032434  3.514116  -0.014
N  N93  1  0.49590198  0.66734162  0.07287555  1  -0.371483  0.026178  3.233954  0.013  -0.303847  0.029828  3.525712  0.012  -0.323962  0.026943  3.541456  0.009  -0.344106  -0.288946  0.032476  3.514002  0.014
N  N94  1  0.70791756  0.97341045  0.65643725  1  0.690426  -0.009135  4.119761  -0.01  0.733597  -0.015254  4.40048  -0.016  0.74879  -0.010457  4.424424  -0.011  0.10159  0.713102  -0.020372  4.397408  -0.021
N  N95  1  0.79186544  0.52652763  0.15640416  1  0.689157  0.009154  4.11878  0.01  0.732248  0.015251  4.399855  0.016  0.76197  0.010439  4.403652  0.011  0.101197  0.71178  0.02036  4.396743  0.021
N  N96  1  0.29210513  0.02659934  0.34356468  1  0.69067  -0.009112  4.119095  -0.01  0.733407  -0.015242  4.400315  -0.016  0.763079  -0.010432  4.404123  -0.011  0.10146  0.712909  -0.020351  4.397247  -0.021
N  N97  1  0.20811063  0.47347873  0.84360264  1  0.689078  0.009151  4.11966  0.01  0.732255  0.015248  4.400544  0.016  0.761951  0.01044  4.404363  0.011  0.101167  0.711785  0.020355  4.397438  0.021
O  O98  1  0.77074475  0.03297528  0.58216285  1  -0.520529  -0.018571  1.860436  -0.005  -0.495466  -0.026087  2.114173  -0.008  -0.510946  -0.022972  2.108255  -0.006  -0.206916  -0.480413  -0.030152  2.121675  -0.012
O  O99  1  0.72907329  0.46694602  0.08219070  1  -0.520894  0.018534  1.860151  0.004  -0.495567  0.026037  2.113779  0.008  -0.515812  0.022944  2.10239  0.006  -0.207105  -0.48056  0.0301  2.121307  0.012
O  O100  1  0.22930298  0.96702999  0.41784393  1  -0.520542  -0.018559  1.86022  -0.005  -0.495324  -0.026062  2.113994  -0.008  -0.515504  -0.02297  2.102679  -0.006  -0.206837  -0.480267  -0.030124  2.121484  -0.012
O  O101  1  0.27087538  0.53303998  0.91782027  1  -0.520845  0.018557  1.860482  0.004  -0.49547  0.02606  2.113975  0.008  -0.515632  0.022958  2.102533  0.006  -0.206979  -0.480459  0.030122  2.121499  0.012
O  O102  1  0.77468403  0.01150351  0.73408247  1  -0.461378  -0.008172  1.793267  -0.009  -0.459855  -0.012065  2.007019  -0.013  -0.467095  -0.008976  2.005168  -0.01  -0.183419  -0.451887  -0.015371  2.012575  -0.016
O  O103  1  0.72499094  0.48852013  0.23412015  1  -0.460591  0.008174  1.79239  0.009  -0.459868  0.012063  2.007194  0.013  -0.472067  0.008983  1.999534  0.01  -0.183578  -0.451897  0.015366  2.012717  0.016
O  O104  1  0.22533971  0.98850183  0.26592085  1  -0.461449  -0.008179  1.793074  -0.009  -0.459783  -0.012054  2.006945  -0.013  -0.47194  -0.008969  1.99931  -0.01  -0.183296  -0.451817  -0.015356  2.012501  -0.016
O  O105  1  0.27499813  0.51148530  0.76590886  1  -0.460521  0.008181  1.793423  0.009  -0.459698  0.012058  2.008033  0.013  -0.471929  0.008981  2.000447  0.01  -0.183488  -0.451739  0.015361  2.013573  0.016
O  O106  1  0.58523475  0.87987913  0.64918663  1  -0.432054  -0.008947  1.730452  -0.01  -0.432151  -0.013174  1.93007  -0.014  -0.438875  -0.010084  1.93028  -0.011  -0.175509  -0.424474  -0.016605  1.934081  -0.017
O  O107  1  0.91457746  0.62007830  0.14906755  1  -0.43117  0.008908  1.729726  0.01  -0.430905  0.013154  1.929118  0.014  -0.442568  0.010067  1.923402  0.011  -0.174853  -0.423268  0.016577  1.933173  0.017
O  O108  1  0.41476836  0.12015026  0.35081113  1  -0.432331  -0.008925  1.730007  -0.01  -0.432279  -0.013162  1.929773  -0.014  -0.443951  -0.010074  1.924088  -0.011  -0.175636  -0.424607  -0.016589  1.933798  -0.017
O  O109  1  0.08540534  0.37992449  0.85092883  1  -0.431264  0.008897  1.729635  0.01  -0.431117  0.01315  1.929024  0.014  -0.442783  0.010063  1.923315  0.011  -0.175028  -0.423457  0.016573  1.933059  0.017
