# generated using pymatgen
data_AlH15C21(NO2)3
_symmetry_space_group_name_H-M   'P 1'
_cell_length_a   3.95830855
_cell_length_b   24.59161728
_cell_length_c   24.59158384
_cell_angle_alpha   119.99968842
_cell_angle_beta   90.00006579
_cell_angle_gamma   89.99992683
_symmetry_Int_Tables_number   1
_chemical_formula_structural   AlH15C21(NO2)3
_chemical_formula_sum   'Al2 H30 C42 N6 O12'
_cell_volume   2073.07603716
_cell_formula_units_Z   2
loop_
 _symmetry_equiv_pos_site_id
 _symmetry_equiv_pos_as_xyz
  1  'x, y, z'
loop_
 _atom_site_type_symbol
 _atom_site_label
 _atom_site_symmetry_multiplicity
 _atom_site_fract_x
 _atom_site_fract_y
 _atom_site_fract_z
 _atom_site_occupancy
 _atom_site_pbe_bader_charge
 _atom_site_pbe_bader_spin_density
 _atom_site_pbe_cm5_charge
 _atom_site_pbe_ddec_charge
 _atom_site_pbe_ddec_spin_density
 _atom_site_pbe_ddec_sum_bond_order
 _atom_site_pbe_magmom
Al  Al0  1  0.02842353  0.49999897  0.50000036  1  2.504051  0  0.422113  1.590798  0  2.575533  0
Al  Al1  1  0.02760761  0.16666655  0.83333532  1  2.503172  0  0.422156  1.589233  0  2.577648  0
H  H2  1  0.32369724  0.42895345  0.72393191  1  0.079644  0  0.097935  0.107366  0  1.014541  0
H  H3  1  0.32362434  0.23744699  0.60918901  1  0.078054  0  0.097587  0.106857  0  1.014998  0
H  H4  1  0.83583345  0.32400424  0.82029312  1  0.077872  0  0.105777  0.109573  0  0.989674  0
H  H5  1  0.85359815  0.38643231  0.76573666  1  0.058445  0  0.093768  0.096995  0  1.019991  0
H  H6  1  0.83630718  0.34252643  0.51287646  1  0.074263  0  0.10588  0.109594  0  0.990183  0
H  H7  1  0.85367617  0.28001513  0.56734782  1  0.05137  0  0.09376  0.097236  0  1.019557  0
H  H8  1  0.32370273  0.79497695  0.57104614  1  0.045773  0  0.097934  0.107391  0  1.014569  0
H  H9  1  0.32362986  0.87173843  0.76255158  1  0.044598  0  0.097563  0.106821  0  1.014971  0
H  H10  1  0.83584781  0.99628817  0.67599807  1  0.075132  0  0.105743  0.109534  0  0.989653  0
H  H11  1  0.85362333  0.87930541  0.61357008  1  0.05533  0  0.093771  0.097003  0  1.020084  0
H  H12  1  0.83632657  0.67034827  0.65747199  1  0.068397  0  0.105873  0.109647  0  0.99019  0
H  H13  1  0.85370748  0.78732908  0.71998163  1  0.060469  0  0.093705  0.097116  0  1.019729  0
H  H14  1  0.32373638  0.27606357  0.20502678  1  0.049438  0  0.097936  0.10742  0  1.014488  0
H  H15  1  0.32365477  0.39081160  0.12826120  1  0.045064  0  0.097562  0.106824  0  1.014875  0
H  H16  1  0.83581082  0.17970337  0.00371424  1  0.083553  0  0.105786  0.109624  0  0.989631  0
H  H17  1  0.85358124  0.23425882  0.12069712  1  0.05635  0  0.093734  0.096974  0  1.019995  0
H  H18  1  0.83629328  0.48712398  0.32965002  1  0.079135  0  0.105869  0.109573  0  0.990162  0
H  H19  1  0.85366665  0.43265055  0.21266888  1  0.05695  0  0.09372  0.097182  0  1.019682  0
H  H20  1  0.15738312  0.51590565  0.64481546  1  0.484385  0  0.303123  0.315355  0  0.969429  0
H  H21  1  0.07221065  0.50767467  0.70877100  1  0.441666  0  0.304148  0.300731  0  0.943826  0
H  H22  1  0.15675574  0.15063081  0.68842970  1  0.483539  0  0.30307  0.314888  0  0.969492  0
H  H23  1  0.07185304  0.15878964  0.62442594  1  0.442513  0  0.304025  0.300423  0  0.944516  0
H  H24  1  0.15737448  0.62890967  0.48409581  1  0.487308  0  0.303154  0.315353  0  0.969498  0
H  H25  1  0.07220399  0.70109649  0.49232786  1  0.43214  0  0.304169  0.300729  0  0.943839  0
H  H26  1  0.15674922  0.03779418  0.84936745  1  0.484313  0  0.303101  0.314926  0  0.969644  0
H  H27  1  0.07184545  0.96563186  0.84120810  1  0.438131  0  0.304078  0.300505  0  0.944507  0
H  H28  1  0.15741562  0.35518125  0.37109423  1  0.491752  0  0.303114  0.315362  0  0.969556  0
H  H29  1  0.07227319  0.29122285  0.29890921  1  0.423586  0  0.304164  0.300803  0  0.943867  0
H  H30  1  0.15677882  0.31157378  0.96220562  1  0.495062  0  0.30313  0.314906  0  0.969682  0
H  H31  1  0.07190302  0.37557907  0.03436745  1  0.42109  0  0.304087  0.300462  0  0.944371  0
C  C32  1  0.53508170  0.45180462  0.40258951  1  1.557989  0  0.26668  0.655272  0  4.054006  0
C  C33  1  0.53508477  0.45078052  0.54819420  1  1.506704  0  0.266782  0.655489  0  4.053769  0
C  C34  1  0.53508416  0.59741159  0.54921835  1  1.493189  0  0.266785  0.655523  0  4.053434  0
C  C35  1  0.53433377  0.21580492  0.78506295  1  1.503918  0  0.266531  0.655035  0  4.053992  0
C  C36  1  0.53433185  0.06925619  0.78419720  1  1.492884  0  0.266524  0.654963  0  4.054093  0
C  C37  1  0.53432673  0.21493849  0.93074501  1  1.498273  0  0.26651  0.654975  0  4.053805  0
C  C38  1  0.55074829  0.41841748  0.58487261  1  0.036751  0  -0.031236  -0.182575  0  3.941492  0
C  C39  1  0.55024939  0.24810102  0.74832135  1  0.034619  0  -0.031105  -0.182642  0  3.941603  0
C  C40  1  0.40021694  0.44370229  0.64536958  1  0.441698  0  0.108237  0.30816  0  4.073621  0
C  C41  1  0.43686922  0.40993940  0.67742467  1  -0.06068  0  -0.108978  -0.269526  0  3.945942  0
C  C42  1  0.39985928  0.22277603  0.68780764  1  0.434108  0  0.108211  0.308204  0  4.074126  0
C  C43  1  0.43673841  0.25648772  0.65570372  1  -0.036738  0  -0.108037  -0.268349  0  3.945562  0
C  C44  1  0.71737113  0.30631992  0.77450563  1  -0.083205  0  -0.081475  -0.056394  0  4.016181  0
C  C45  1  0.72775663  0.34093695  0.74416068  1  0.00907  0  -0.111612  -0.180881  0  4.030156  0
C  C46  1  0.71773138  0.36018000  0.55865242  1  -0.069366  0  -0.081784  -0.057124  0  4.016887  0
C  C47  1  0.72789507  0.32551533  0.58895067  1  0.049149  0  -0.111574  -0.180995  0  4.029004  0
C  C48  1  0.58893937  0.35101364  0.64962452  1  -0.0402  0  -0.000572  0.104647  0  4.020861  0
C  C49  1  0.58889164  0.31540712  0.68347688  1  -0.075367  0  -0.001358  0.103499  0  4.02179  0
C  C50  1  0.55075736  0.66645447  0.58158273  1  -0.023106  0  -0.031162  -0.182578  0  3.94169  0
C  C51  1  0.55025296  0.00021705  0.75189901  1  -0.028603  0  -0.031052  -0.182412  0  3.941499  0
C  C52  1  0.40022060  0.70166495  0.55629665  1  0.433369  0  0.108221  0.308187  0  4.07368  0
C  C53  1  0.43688005  0.76748455  0.59006095  1  -0.025446  0  -0.109049  -0.269665  0  3.946127  0
C  C54  1  0.39985906  0.96502932  0.77722457  1  0.36836  0  0.108186  0.308163  0  4.074161  0
C  C55  1  0.43674870  0.89921203  0.74351001  1  0.031591  0  -0.108055  -0.268365  0  3.945581  0
C  C56  1  0.71738325  0.96818632  0.69368265  1  -0.026886  0  -0.081455  -0.05643  0  4.016214  0
C  C57  1  0.72777672  0.90322178  0.65906330  1  0.024329  0  -0.111626  -0.180922  0  4.030234  0
C  C58  1  0.71775049  0.69846848  0.63981703  1  0.031389  0  -0.081766  -0.057162  0  4.016835  0
C  C59  1  0.72791883  0.76343401  0.67448338  1  -0.030042  0  -0.111494  -0.180803  0  4.028972  0
C  C60  1  0.58895772  0.79860793  0.64898419  1  -0.095212  0  -0.000625  0.10454  0  4.021121  0
C  C61  1  0.58890704  0.86806793  0.68459286  1  0.023441  0  -0.001285  0.103614  0  4.021792  0
C  C62  1  0.55076254  0.41512734  0.33354740  1  -0.058617  0  -0.031151  -0.182306  0  3.941363  0
C  C63  1  0.55025283  0.25167791  0.99978353  1  -0.008629  0  -0.031006  -0.182398  0  3.941478  0
C  C64  1  0.40024129  0.35462642  0.29833646  1  0.396593  0  0.108255  0.308114  0  4.073601  0
C  C65  1  0.43690078  0.32257227  0.23251776  1  0.023287  0  -0.108954  -0.269519  0  3.946067  0
C  C66  1  0.39987165  0.31219392  0.03497138  1  0.431236  0  0.10819  0.308128  0  4.074124  0
C  C67  1  0.43676126  0.34429484  0.10078803  1  -0.026901  0  -0.108116  -0.268401  0  3.945556  0
C  C68  1  0.71736115  0.22549120  0.03181549  1  0.020381  0  -0.08154  -0.056599  0  4.016262  0
C  C69  1  0.72775206  0.25583544  0.09677981  1  -0.044499  0  -0.111596  -0.180875  0  4.029964  0
C  C70  1  0.71773009  0.44134641  0.30153036  1  -0.045851  0  -0.0818  -0.057192  0  4.016873  0
C  C71  1  0.72789846  0.41104714  0.23656499  1  0.014518  0  -0.111538  -0.180961  0  4.028863  0
C  C72  1  0.58895287  0.35037212  0.20139314  1  0.008557  0  -0.000692  0.104556  0  4.021045  0
C  C73  1  0.58889718  0.31652185  0.13193297  1  -0.09402  0  -0.00128  0.103564  0  4.02181  0
N  N74  1  0.23706127  0.50072033  0.67433005  1  -1.268175  0  -0.59965  -0.624354  0  3.306656  0
N  N75  1  0.23660786  0.16576715  0.65888681  1  -1.266361  0  -0.599463  -0.623596  0  3.307855  0
N  N76  1  0.23705485  0.67361018  0.49928128  1  -1.241165  0  -0.599685  -0.624325  0  3.306774  0
N  N77  1  0.23660507  0.99311394  0.83423124  1  -1.244394  0  -0.599537  -0.623696  0  3.308088  0
N  N78  1  0.23710871  0.32566744  0.32639603  1  -1.246444  0  -0.599644  -0.624469  0  3.306947  0
N  N79  1  0.23664514  0.34111570  0.00688395  1  -1.241088  0  -0.599507  -0.623525  0  3.307988  0
O  O80  1  0.76143606  0.56796713  0.56166119  1  -1.268195  0  -0.248438  -0.610134  0  2.365095  0
O  O81  1  0.76142832  0.49369269  0.43203357  1  -1.269461  0  -0.248403  -0.61008  0  2.36526  0
O  O82  1  0.76143892  0.43833815  0.50630766  1  -1.269103  0  -0.248487  -0.610175  0  2.365318  0
O  O83  1  0.29442073  0.56940211  0.50957332  1  -1.254612  0  -0.238305  -0.604024  0  2.395527  0
O  O84  1  0.29441872  0.49042657  0.55982961  1  -1.260366  0  -0.238238  -0.603992  0  2.395637  0
O  O85  1  0.29441845  0.44016969  0.43059831  1  -1.263315  0  -0.23822  -0.603898  0  2.395829  0
O  O86  1  0.76055979  0.17302136  0.90131373  1  -1.265732  0  -0.248581  -0.610129  0  2.365546  0
O  O87  1  0.76056434  0.22829084  0.82697994  1  -1.26649  0  -0.248591  -0.61014  0  2.365649  0
O  O88  1  0.76056215  0.09868758  0.77171129  1  -1.264868  0  -0.24862  -0.610162  0  2.365677  0
O  O89  1  0.29354444  0.22653641  0.90273013  1  -1.258351  0  -0.238127  -0.603393  0  2.396214  0
O  O90  1  0.29354469  0.09727147  0.82381040  1  -1.25722  0  -0.238095  -0.60337  0  2.396327  0
O  O91  1  0.29354670  0.17619188  0.77346611  1  -1.259243  0  -0.238082  -0.603301  0  2.396264  0
