# generated using pymatgen
data_CdH20C12(N3O4)2
_symmetry_space_group_name_H-M   'P 1'
_cell_length_a   4.80401484
_cell_length_b   11.79274780
_cell_length_c   15.36195745
_cell_angle_alpha   94.81962236
_cell_angle_beta   90.01554772
_cell_angle_gamma   101.76202304
_symmetry_Int_Tables_number   1
_chemical_formula_structural   CdH20C12(N3O4)2
_chemical_formula_sum   'Cd2 H40 C24 N12 O16'
_cell_volume   848.87237854
_cell_formula_units_Z   2
loop_
 _symmetry_equiv_pos_site_id
 _symmetry_equiv_pos_as_xyz
  1  'x, y, z'
loop_
 _atom_site_type_symbol
 _atom_site_label
 _atom_site_symmetry_multiplicity
 _atom_site_fract_x
 _atom_site_fract_y
 _atom_site_fract_z
 _atom_site_occupancy
 _atom_site_hle17_bader_spin_density
 _atom_site_hle17_ddec_charge
 _atom_site_hle17_ddec_spin_density
 _atom_site_hle17_ddec_sum_bond_order
 _atom_site_hle17_magmom
 _atom_site_hse06_10hf_bader_spin_density
 _atom_site_hse06_10hf_ddec_charge
 _atom_site_hse06_10hf_ddec_spin_density
 _atom_site_hse06_10hf_ddec_sum_bond_order
 _atom_site_hse06_10hf_magmom
 _atom_site_hse06_bader_spin_density
 _atom_site_hse06_ddec_charge
 _atom_site_hse06_ddec_spin_density
 _atom_site_hse06_ddec_sum_bond_order
 _atom_site_hse06_magmom
 _atom_site_pbe_bader_spin_density
 _atom_site_pbe_cm5_charge
 _atom_site_pbe_ddec_charge
 _atom_site_pbe_ddec_spin_density
 _atom_site_pbe_ddec_sum_bond_order
 _atom_site_pbe_magmom
Cd  Cd0  1  0.99999876  0.99999783  0.49999797  1  0  1.168377  0  1.625782  0  0  0.99531  0  2.069412  0  0  1.045892  0  2.019945  0  0  0.774017  0.959271  0  2.103252  0
Cd  Cd1  1  0.00000530  0.00000018  0.99999985  1  0  1.167918  0  1.628437  0  0  0.995287  0  2.071904  0  0  1.045722  0  2.022549  0  0  0.774224  0.959354  0  2.105669  0
H  H2  1  0.65273819  0.74705868  0.51441797  1  0  0.092556  0  0.968143  0  0  0.10515  0  1.032001  0  0  0.106924  0  1.031843  0  0  0.112273  0.103854  0  1.032194  0
H  H3  1  0.90689129  0.25333802  0.98593183  1  0  0.092971  0  0.968174  0  0  0.104783  0  1.032651  0  0  0.106671  0  1.032439  0  0  0.112362  0.103435  0  1.032912  0
H  H4  1  0.34725900  0.25294391  0.48558438  1  0  0.092504  0  0.968227  0  0  0.105143  0  1.032078  0  0  0.106918  0  1.031918  0  0  0.112247  0.103847  0  1.032267  0
H  H5  1  0.09310624  0.74666110  0.01406962  1  0  0.092867  0  0.968223  0  0  0.104703  0  1.032687  0  0  0.106592  0  1.032475  0  0  0.112324  0.103355  0  1.032944  0
H  H6  1  0.67561375  0.81846721  0.61980777  1  0  0.095803  0  0.943744  0  0  0.112823  0  1.003363  0  0  0.114974  0  1.001554  0  0  0.113117  0.111145  0  1.004925  0
H  H7  1  0.85707137  0.18186239  0.88059461  1  0  0.09596  0  0.943517  0  0  0.112234  0  1.003817  0  0  0.114441  0  1.002  0  0  0.113115  0.110585  0  1.005367  0
H  H8  1  0.32439801  0.18153537  0.38019458  1  0  0.095777  0  0.943711  0  0  0.112843  0  1.003306  0  0  0.114999  0  1.001493  0  0  0.113133  0.111159  0  1.004872  0
H  H9  1  0.14292826  0.81813673  0.11940618  1  0  0.095906  0  0.943537  0  0  0.112172  0  1.003853  0  0  0.114381  0  1.002035  0  0  0.113083  0.11052  0  1.005404  0
H  H10  1  0.23845049  0.42338157  0.62020611  1  0  0.1157  0  0.918534  0  0  0.129152  0  0.976914  0  0  0.131497  0  0.975662  0  0  0.122295  0.127414  0  0.977965  0
H  H11  1  0.81504075  0.57637279  0.87916299  1  0  0.116127  0  0.917321  0  0  0.130025  0  0.975478  0  0  0.132347  0  0.974307  0  0  0.122595  0.128273  0  0.976504  0
H  H12  1  0.76155748  0.57661759  0.37979274  1  0  0.115688  0  0.918509  0  0  0.129152  0  0.97687  0  0  0.131491  0  0.975628  0  0  0.1223  0.127416  0  0.97792  0
H  H13  1  0.18493554  0.42362548  0.12083710  1  0  0.11615  0  0.917256  0  0  0.130053  0  0.975345  0  0  0.132379  0  0.974169  0  0  0.122637  0.128295  0  0.97638  0
H  H14  1  0.45057960  0.48966928  0.71226409  1  0  0.098271  0  0.946205  0  0  0.104588  0  1.020622  0  0  0.106791  0  1.019103  0  0  0.113996  0.102953  0  1.021832  0
H  H15  1  0.96251503  0.51007224  0.78751109  1  0  0.098133  0  0.946259  0  0  0.10447  0  1.02132  0  0  0.106717  0  1.019741  0  0  0.113635  0.102823  0  1.022518  0
H  H16  1  0.54943088  0.51033074  0.28773482  1  0  0.098284  0  0.94614  0  0  0.104575  0  1.020592  0  0  0.106798  0  1.019052  0  0  0.114032  0.102945  0  1.021799  0
H  H17  1  0.03746005  0.48992777  0.21248847  1  0  0.098191  0  0.946144  0  0  0.10444  0  1.021263  0  0  0.106684  0  1.019694  0  0  0.113589  0.102799  0  1.022442  0
H  H18  1  0.78215893  0.17082937  0.74260464  1  0  0.100792  0  0.922871  0  0  0.118412  0  0.977913  0  0  0.120175  0  0.976441  0  0  0.11583  0.117058  0  0.979168  0
H  H19  1  0.61121867  0.82959397  0.75750446  1  0  0.100238  0  0.922287  0  0  0.117853  0  0.97728  0  0  0.119646  0  0.975714  0  0  0.115513  0.116476  0  0.978615  0
H  H20  1  0.21783785  0.82917239  0.25739440  1  0  0.10082  0  0.922846  0  0  0.118427  0  0.977891  0  0  0.120189  0  0.97642  0  0  0.115824  0.11707  0  0.979151  0
H  H21  1  0.38878468  0.17040430  0.24249563  1  0  0.100196  0  0.922317  0  0  0.117822  0  0.977291  0  0  0.119623  0  0.975731  0  0  0.115501  0.116446  0  0.978631  0
H  H22  1  0.96136447  0.21380673  0.64757481  1  0  0.112061  0  0.947608  0  0  0.121706  0  1.016277  0  0  0.124369  0  1.014221  0  0  0.114284  0.119736  0  1.017895  0
H  H23  1  0.74741867  0.78657201  0.85255667  1  0  0.111737  0  0.948049  0  0  0.121225  0  1.016753  0  0  0.12388  0  1.014687  0  0  0.11405  0.119279  0  1.018355  0
H  H24  1  0.03863558  0.78619324  0.35242735  1  0  0.112092  0  0.947584  0  0  0.121712  0  1.016281  0  0  0.124376  0  1.014219  0  0  0.11426  0.119739  0  1.017899  0
H  H25  1  0.25257748  0.21342018  0.14744232  1  0  0.111776  0  0.948009  0  0  0.121193  0  1.016787  0  0  0.123847  0  1.014721  0  0  0.114048  0.119254  0  1.018384  0
H  H26  1  0.16157868  0.77840451  0.51371572  1  0  0.297551  0  0.931707  0  0  0.28378  0  0.993999  0  0  0.29017  0  0.990075  0  0  0.287626  0.279212  0  0.996797  0
H  H27  1  0.38379912  0.22160119  0.98638789  1  0  0.2982  0  0.932312  0  0  0.28413  0  0.994776  0  0  0.290504  0  0.990914  0  0  0.287684  0.279563  0  0.997576  0
H  H28  1  0.83842302  0.22159462  0.48628443  1  0  0.297563  0  0.931702  0  0  0.283789  0  0.994002  0  0  0.290179  0  0.990076  0  0  0.287635  0.27922  0  0.996802  0
H  H29  1  0.61620477  0.77840230  0.01361193  1  0  0.298169  0  0.932346  0  0  0.284104  0  0.994811  0  0  0.290478  0  0.990949  0  0  0.287671  0.27954  0  0.997609  0
H  H30  1  0.18855690  0.85379032  0.61039173  1  0  0.296396  0  0.893186  0  0  0.289317  0  0.943083  0  0  0.295393  0  0.938986  0  0  0.297301  0.284869  0  0.946226  0
H  H31  1  0.33475312  0.14632611  0.88969817  1  0  0.297534  0  0.89098  0  0  0.290091  0  0.941547  0  0  0.296262  0  0.937231  0  0  0.297376  0.285596  0  0.944784  0
H  H32  1  0.81145237  0.14621144  0.38960731  1  0  0.296432  0  0.893158  0  0  0.289361  0  0.943045  0  0  0.295437  0  0.938948  0  0  0.297314  0.284912  0  0.946198  0
H  H33  1  0.66524747  0.85367911  0.11030242  1  0  0.297497  0  0.890988  0  0  0.290055  0  0.941558  0  0  0.296226  0  0.937242  0  0  0.297359  0.285562  0  0.944797  0
H  H34  1  0.39888069  0.58350698  0.54750317  1  0  0.295762  0  0.926657  0  0  0.273242  0  0.996378  0  0  0.281613  0  0.990345  0  0  0.303565  0.267322  0  1.00069  0
H  H35  1  0.81569303  0.41661013  0.95230206  1  0  0.295637  0  0.925122  0  0  0.272881  0  0.995584  0  0  0.281286  0  0.989503  0  0  0.30349  0.266932  0  0.999939  0
H  H36  1  0.60112563  0.41649305  0.45249509  1  0  0.29574  0  0.926658  0  0  0.273226  0  0.996377  0  0  0.281597  0  0.990344  0  0  0.303554  0.267308  0  1.000683  0
H  H37  1  0.18429957  0.58339160  0.04769893  1  0  0.295628  0  0.925147  0  0  0.272872  0  0.995671  0  0  0.281279  0  0.989588  0  0  0.303456  0.266917  0  1.000032  0
H  H38  1  0.52990999  0.32164087  0.74393872  1  0  0.302532  0  0.941953  0  0  0.284064  0  1.006125  0  0  0.292078  0  1.000007  0  0  0.304579  0.278395  0  1.010496  0
H  H39  1  0.20778033  0.67880267  0.75619440  1  0  0.30127  0  0.942847  0  0  0.28309  0  1.006561  0  0  0.291064  0  1.000498  0  0  0.304259  0.277497  0  1.01085  0
H  H40  1  0.47009599  0.67836264  0.25605979  1  0  0.302599  0  0.941916  0  0  0.284083  0  1.006122  0  0  0.292127  0  0.999962  0  0  0.30458  0.278414  0  1.010495  0
H  H41  1  0.79222141  0.32119653  0.24380119  1  0  0.301181  0  0.942996  0  0  0.283028  0  1.006654  0  0  0.291003  0  1.000592  0  0  0.304288  0.277431  0  1.010942  0
C  C42  1  0.78007927  0.76309780  0.57499636  1  0  -0.081068  0  3.695571  0  0  -0.141435  0  3.956989  0  0  -0.141253  0  3.965175  0  0  -0.077709  -0.141502  0  3.951266  0
C  C43  1  0.01757178  0.23715096  0.92528526  1  0  -0.07892  0  3.698678  0  0  -0.138061  0  3.958827  0  0  -0.138032  0  3.967214  0  0  -0.076963  -0.138215  0  3.953242  0
C  C44  1  0.21992789  0.23690392  0.42500528  1  0  -0.080927  0  3.695428  0  0  -0.141404  0  3.956951  0  0  -0.141223  0  3.965132  0  0  -0.077685  -0.141461  0  3.951229  0
C  C45  1  0.98242247  0.76284991  0.07471501  1  0  -0.078674  0  3.69848  0  0  -0.137835  0  3.958585  0  0  -0.137788  0  3.96696  0  0  -0.076891  -0.137974  0  3.952979  0
C  C46  1  0.76982585  0.64991683  0.61615640  1  0  0.568585  0  3.793304  0  0  0.523649  0  4.087947  0  0  0.552248  0  4.087006  0  0  0.239968  0.504371  0  4.087947  0
C  C47  1  0.12071980  0.35021840  0.88404339  1  0  0.565892  0  3.797797  0  0  0.521969  0  4.090809  0  0  0.55049  0  4.090067  0  0  0.239757  0.502753  0  4.090812  0
C  C48  1  0.23017673  0.35008405  0.38384322  1  0  0.568494  0  3.793247  0  0  0.523546  0  4.087979  0  0  0.552143  0  4.087043  0  0  0.239916  0.504265  0  4.087983  0
C  C49  1  0.87926778  0.64978161  0.11595617  1  0  0.565719  0  3.797734  0  0  0.521917  0  4.090707  0  0  0.55041  0  4.090013  0  0  0.239792  0.502687  0  4.090712  0
C  C50  1  0.45606272  0.46598987  0.64164780  1  0  -0.092466  0  3.668005  0  0  -0.153084  0  3.930638  0  0  -0.151457  0  3.936212  0  0  -0.056749  -0.154205  0  3.927038  0
C  C51  1  0.99065039  0.53394877  0.85812751  1  0  -0.091098  0  3.66594  0  0  -0.153236  0  3.930274  0  0  -0.151665  0  3.935875  0  0  -0.055639  -0.15422  0  3.926474  0
C  C52  1  0.54394688  0.53400841  0.35835163  1  0  -0.09251  0  3.667826  0  0  -0.153154  0  3.930509  0  0  -0.151539  0  3.936068  0  0  -0.056832  -0.154279  0  3.926914  0
C  C53  1  0.00933302  0.46605124  0.14187205  1  0  -0.091064  0  3.665782  0  0  -0.153049  0  3.930033  0  0  -0.151479  0  3.935629  0  0  -0.055598  -0.154036  0  3.92623  0
C  C54  1  0.64249458  0.37637972  0.62455576  1  0  0.568432  0  3.777318  0  0  0.514651  0  4.085998  0  0  0.544423  0  4.082898  0  0  0.243351  0.494505  0  4.087637  0
C  C55  1  0.26625549  0.62383654  0.87544889  1  0  0.565976  0  3.777804  0  0  0.514105  0  4.084551  0  0  0.543824  0  4.081552  0  0  0.242986  0.494035  0  4.086099  0
C  C56  1  0.35751798  0.62362030  0.37544380  1  0  0.568633  0  3.777371  0  0  0.514907  0  4.085931  0  0  0.544692  0  4.082822  0  0  0.24345  0.494762  0  4.08757  0
C  C57  1  0.73372592  0.37616780  0.12455229  1  0  0.565596  0  3.778078  0  0  0.51389  0  4.084511  0  0  0.54361  0  4.081512  0  0  0.242908  0.493808  0  4.086061  0
C  C58  1  0.75226434  0.20124560  0.67835449  1  0  -0.10963  0  3.66016  0  0  -0.171484  0  3.922319  0  0  -0.170601  0  3.928016  0  0  -0.068053  -0.172002  0  3.918395  0
C  C59  1  0.55092876  0.79920366  0.82176442  1  0  -0.107774  0  3.657077  0  0  -0.168944  0  3.918551  0  0  -0.16791  0  3.924078  0  0  -0.066927  -0.169617  0  3.914906  0
C  C60  1  0.24773485  0.79875266  0.32164559  1  0  -0.109661  0  3.660161  0  0  -0.171498  0  3.922223  0  0  -0.170609  0  3.927917  0  0  -0.068042  -0.172011  0  3.918296  0
C  C61  1  0.44907121  0.20079200  0.17823548  1  0  -0.107735  0  3.656923  0  0  -0.168869  0  3.918389  0  0  -0.16787  0  3.923979  0  0  -0.066885  -0.169559  0  3.914753  0
C  C62  1  0.54898850  0.10249107  0.62410018  1  0  0.675215  0  3.885672  0  0  0.628472  0  4.188997  0  0  0.661698  0  4.181953  0  0  0.203367  0.60586  0  4.192998  0
C  C63  1  0.44639161  0.89791326  0.87595044  1  0  0.674268  0  3.884403  0  0  0.627241  0  4.187947  0  0  0.660431  0  4.180886  0  0  0.203129  0.604663  0  4.191967  0
C  C64  1  0.45102154  0.89750808  0.37589867  1  0  0.675237  0  3.885704  0  0  0.628584  0  4.188862  0  0  0.66181  0  4.181815  0  0  0.203383  0.605977  0  4.192859  0
C  C65  1  0.55361666  0.10208234  0.12405336  1  0  0.674219  0  3.884497  0  0  0.627279  0  4.187884  0  0  0.660481  0  4.18083  0  0  0.203102  0.604711  0  4.1919  0
N  N66  1  0.06174361  0.82921306  0.55587080  1  0  -0.612429  0  3.119338  0  0  -0.559363  0  3.370018  0  0  -0.579019  0  3.36829  0  0  -0.628  -0.545465  0  3.370915  0
N  N67  1  0.23282770  0.17084750  0.94427573  1  0  -0.616037  0  3.120201  0  0  -0.562734  0  3.370826  0  0  -0.582308  0  3.369091  0  0  -0.629208  -0.548841  0  3.371861  0
N  N68  1  0.93826150  0.17078870  0.44412824  1  0  -0.612499  0  3.119188  0  0  -0.559416  0  3.369915  0  0  -0.579073  0  3.368189  0  0  -0.628011  -0.545516  0  3.370818  0
N  N69  1  0.76717289  0.82915774  0.05572356  1  0  -0.61608  0  3.120198  0  0  -0.562774  0  3.370821  0  0  -0.582349  0  3.369087  0  0  -0.629226  -0.548886  0  3.371844  0
N  N70  1  0.53524094  0.56852887  0.59491468  1  0  -0.404298  0  3.356872  0  0  -0.348314  0  3.60998  0  0  -0.369928  0  3.61932  0  0  -0.421854  -0.33352  0  3.603284  0
N  N71  1  0.96739033  0.43160589  0.90504651  1  0  -0.403994  0  3.356466  0  0  -0.348739  0  3.611234  0  0  -0.370287  0  3.620514  0  0  -0.422683  -0.334056  0  3.604668  0
N  N72  1  0.46476372  0.43147200  0.40508559  1  0  -0.404281  0  3.356817  0  0  -0.348268  0  3.609907  0  0  -0.369887  0  3.619257  0  0  -0.421849  -0.333475  0  3.603211  0
N  N73  1  0.03259889  0.56839325  0.09495364  1  0  -0.403875  0  3.356404  0  0  -0.348856  0  3.611314  0  0  -0.370397  0  3.620605  0  0  -0.422685  -0.334143  0  3.604727  0
N  N74  1  0.65109821  0.30884121  0.69008910  1  0  -0.407597  0  3.351264  0  0  -0.350935  0  3.605946  0  0  -0.372431  0  3.615098  0  0  -0.422245  -0.336331  0  3.599467  0
N  N75  1  0.34183029  0.69163478  0.81005256  1  0  -0.406553  0  3.349917  0  0  -0.350667  0  3.604  0  0  -0.372266  0  3.613331  0  0  -0.42259  -0.336105  0  3.597488  0
N  N76  1  0.34890307  0.69115708  0.30990969  1  0  -0.407788  0  3.351417  0  0  -0.351067  0  3.606056  0  0  -0.372601  0  3.615173  0  0  -0.422254  -0.336468  0  3.59958  0
N  N77  1  0.65816059  0.30836351  0.18994557  1  0  -0.406382  0  3.350063  0  0  -0.350568  0  3.604076  0  0  -0.372159  0  3.613423  0  0  -0.422625  -0.335988  0  3.597555  0
O  O78  1  0.95505137  0.63593246  0.66909112  1  0  -0.580706  0  1.95774  0  0  -0.528255  0  2.18176  0  0  -0.549854  0  2.1752  0  0  -0.308401  -0.513262  0  2.185736  0
O  O79  1  0.32020155  0.36411089  0.83121647  1  0  -0.579972  0  1.959387  0  0  -0.527474  0  2.182678  0  0  -0.549052  0  2.176204  0  0  -0.30801  -0.512468  0  2.186584  0
O  O80  1  0.04495077  0.36406755  0.33090844  1  0  -0.580599  0  1.957743  0  0  -0.528155  0  2.181773  0  0  -0.549752  0  2.175223  0  0  -0.308337  -0.513159  0  2.185751  0
O  O81  1  0.67978023  0.63589002  0.16878120  1  0  -0.579917  0  1.959263  0  0  -0.527426  0  2.182508  0  0  -0.549006  0  2.176058  0  0  -0.308008  -0.512424  0  2.186423  0
O  O82  1  0.76535481  0.36438286  0.55309261  1  0  -0.586966  0  1.95964  0  0  -0.528923  0  2.178299  0  0  -0.550879  0  2.170909  0  0  -0.301581  -0.513844  0  2.18313  0
O  O83  1  0.40108913  0.63576064  0.94692148  1  0  -0.586374  0  1.960528  0  0  -0.528411  0  2.178116  0  0  -0.550401  0  2.170862  0  0  -0.301651  -0.513267  0  2.182761  0
O  O84  1  0.23465818  0.63561802  0.44690701  1  0  -0.587044  0  1.959778  0  0  -0.529027  0  2.178406  0  0  -0.550984  0  2.171006  0  0  -0.301604  -0.513956  0  2.183255  0
O  O85  1  0.59887856  0.36424540  0.05308242  1  0  -0.586251  0  1.960526  0  0  -0.52832  0  2.177973  0  0  -0.550313  0  2.170728  0  0  -0.301602  -0.513168  0  2.182618  0
O  O86  1  0.31507392  0.12380774  0.59871326  1  0  -0.646332  0  2.041331  0  0  -0.577288  0  2.289502  0  0  -0.606046  0  2.279945  0  0  -0.324088  -0.557171  0  2.295404  0
O  O87  1  0.19104873  0.87653424  0.90120288  1  0  -0.64741  0  2.041433  0  0  -0.578362  0  2.289794  0  0  -0.60713  0  2.280355  0  0  -0.325605  -0.558231  0  2.295597  0
O  O88  1  0.68493910  0.87619321  0.40128181  1  0  -0.646376  0  2.041471  0  0  -0.577353  0  2.289621  0  0  -0.606112  0  2.280062  0  0  -0.324101  -0.557239  0  2.295525  0
O  O89  1  0.80895757  0.12346574  0.09879928  1  0  -0.647369  0  2.041335  0  0  -0.578445  0  2.289781  0  0  -0.607189  0  2.280289  0  0  -0.325621  -0.558315  0  2.295585  0
O  O90  1  0.63162598  0.00719889  0.60899974  1  0  -0.682113  0  1.977599  0  0  -0.627397  0  2.229911  0  0  -0.653641  0  2.217678  0  0  -0.349658  -0.608851  0  2.237638  0
O  O91  1  0.62421605  0.99323152  0.89115095  1  0  -0.680005  0  1.977943  0  0  -0.625273  0  2.230354  0  0  -0.651549  0  2.218238  0  0  -0.348004  -0.606727  0  2.238032  0
O  O92  1  0.36839116  0.99280196  0.39100183  1  0  -0.682101  0  1.977561  0  0  -0.627464  0  2.229865  0  0  -0.653713  0  2.21764  0  0  -0.349678  -0.608921  0  2.237592  0
O  O93  1  0.37579343  0.00676234  0.10885272  1  0  -0.679973  0  1.978064  0  0  -0.625252  0  2.230423  0  0  -0.651532  0  2.218303  0  0  -0.347973  -0.606705  0  2.238097  0
