# generated using pymatgen
data_Co3H36C30(NO12)2
_symmetry_space_group_name_H-M   'P 1'
_cell_length_a   12.50787060
_cell_length_b   12.28346731
_cell_length_c   17.37452349
_cell_angle_alpha   90.00070993
_cell_angle_beta   89.99961954
_cell_angle_gamma   113.98147723
_symmetry_Int_Tables_number   1
_chemical_formula_structural   Co3H36C30(NO12)2
_chemical_formula_sum   'Co6 H72 C60 N4 O48'
_cell_volume   2438.98934010
_cell_formula_units_Z   2
loop_
 _symmetry_equiv_pos_site_id
 _symmetry_equiv_pos_as_xyz
  1  'x, y, z'
loop_
 _atom_site_type_symbol
 _atom_site_label
 _atom_site_symmetry_multiplicity
 _atom_site_fract_x
 _atom_site_fract_y
 _atom_site_fract_z
 _atom_site_occupancy
 _atom_site_pbe_bader_charge
 _atom_site_pbe_bader_spin_density
 _atom_site_pbe_cm5_charge
 _atom_site_pbe_ddec_charge
 _atom_site_pbe_ddec_spin_density
 _atom_site_pbe_ddec_sum_bond_order
 _atom_site_pbe_magmom
Co  Co0  1  0.15951409  0.56095570  0.29439059  1  1.318991  2.633656  0.629979  1.067172  2.822606  2.254749  2.619
Co  Co1  1  0.34049787  0.43905308  0.79439124  1  1.319023  2.633647  0.629974  1.067119  2.822616  2.254424  2.619
Co  Co2  1  0.84048788  0.43903600  0.70561926  1  1.319014  2.633639  0.630011  1.06726  2.822581  2.25448  2.619
Co  Co3  1  0.65950787  0.56095021  0.20560594  1  1.319042  2.633646  0.630015  1.06722  2.82261  2.254638  2.619
Co  Co4  1  0.49999405  0.00000166  0.99999860  1  1.310643  2.639679  0.667972  0.946942  2.84718  2.422795  2.623
Co  Co5  1  0.00000021  0.99998728  0.50000257  1  1.31059  2.6397  0.667856  0.946906  2.847183  2.422477  2.623
H  H6  1  0.44618421  0.17743170  0.99277283  1  0.643759  0.000459  0.27913  0.36347  0.000471  0.994352  0.001
H  H7  1  0.51293198  0.19578271  0.91122174  1  0.633353  0.000846  0.290506  0.383752  0.000471  0.947797  0.001
H  H8  1  0.25215479  0.86816266  0.17472973  1  0.140957  0.000421  0.109581  0.124558  0.000178  1.004225  0.0
H  H9  1  0.96464550  0.90605403  0.29078431  1  0.102623  -3.6e-05  0.110004  0.118129  -0.000189  1.007517  0.0
H  H10  1  0.16318591  0.16097021  0.11854112  1  0.097898  5.4e-05  0.10627  0.1132  -1e-06  0.998446  0.0
H  H11  1  0.94027215  0.09352625  0.27334263  1  0.093906  -8.2e-05  0.105017  0.082826  -0.000159  1.003847  0.0
H  H12  1  0.02085566  0.19782106  0.20029005  1  0.051154  3.8e-05  0.106754  0.083048  -4.2e-05  0.97697  0.0
H  H13  1  0.71044822  0.96653463  0.06674566  1  0.128724  0.001582  0.119974  0.102478  0.000293  1.02641  0.001
H  H14  1  0.57515276  0.22164132  0.09903655  1  0.133372  0.001779  0.121169  0.105179  0.000431  1.011043  0.001
H  H15  1  0.87237179  0.24574222  0.23416310  1  0.12152  -5e-06  0.116735  0.132999  -0.000177  1.012095  0.0
H  H16  1  0.02132870  0.61457030  0.37533093  1  0.641289  0.000249  0.287683  0.37545  0.000112  0.971289  0.0
H  H17  1  0.08046579  0.56909521  0.44216062  1  0.622087  0.001834  0.324135  0.402909  0.001032  0.880509  0.001
H  H18  1  0.33981560  0.65116238  0.19182543  1  0.636609  0.001156  0.296611  0.395135  0.000718  0.924458  0.002
H  H19  1  0.27857429  0.51183620  0.19973368  1  0.633419  0.000168  0.282631  0.368296  0.000374  0.983369  0.0
H  H20  1  0.34901313  0.73237080  0.36065803  1  0.628005  0.000739  0.333407  0.419748  0.000318  0.864817  0.0
H  H21  1  0.32076621  0.62520691  0.41653426  1  0.608116  0.001379  0.339733  0.417208  0.000608  0.859268  0.0
H  H22  1  0.01580824  0.54263093  0.18253340  1  0.599769  0.000786  0.327382  0.408309  0.000368  0.86879  0.0
H  H23  1  0.93295463  0.45143743  0.24374225  1  0.673044  0.000394  0.29682  0.396365  0.000339  0.940284  0.001
H  H24  1  0.05383697  0.82257060  0.49276060  1  0.643681  0.000459  0.279132  0.363538  0.000471  0.994241  0.001
H  H25  1  0.98707265  0.80421048  0.41121935  1  0.633277  0.000845  0.290502  0.383696  0.00047  0.947869  0.001
H  H26  1  0.24785187  0.13184413  0.67469762  1  0.141123  0.000421  0.109585  0.124434  0.000177  1.004225  0.0
H  H27  1  0.53535212  0.09396115  0.79078110  1  0.102352  -3.6e-05  0.109985  0.118127  -0.000189  1.007521  0.0
H  H28  1  0.33682909  0.83901792  0.61853265  1  0.097646  5.4e-05  0.10623  0.113274  -1e-06  0.998305  0.0
H  H29  1  0.55971780  0.90648326  0.77336198  1  0.093943  -8.2e-05  0.105006  0.082756  -0.000159  1.003913  0.0
H  H30  1  0.47915024  0.80218436  0.70029036  1  0.05125  3.8e-05  0.106777  0.083051  -4.2e-05  0.976958  0.0
H  H31  1  0.78955132  0.03345999  0.56675221  1  0.128878  0.001581  0.11996  0.102428  0.000292  1.026486  0.001
H  H32  1  0.92483507  0.77834666  0.59904151  1  0.132392  0.001778  0.1212  0.105297  0.00043  1.011063  0.001
H  H33  1  0.62763088  0.75427028  0.73417331  1  0.121331  -5e-06  0.116751  0.133043  -0.000177  1.012011  0.0
H  H34  1  0.47867657  0.38543354  0.87533678  1  0.641127  0.000248  0.287743  0.375511  0.000112  0.971172  0.0
H  H35  1  0.41952584  0.43091410  0.94216313  1  0.621926  0.001834  0.324137  0.40283  0.001031  0.880579  0.001
H  H36  1  0.16019167  0.34884024  0.69182789  1  0.636677  0.001156  0.296644  0.395202  0.000717  0.924333  0.002
H  H37  1  0.22143306  0.48817900  0.69973246  1  0.633332  0.000168  0.282629  0.368339  0.000374  0.983329  0.0
H  H38  1  0.15098197  0.26762919  0.86062931  1  0.627991  0.000738  0.333448  0.419824  0.000317  0.864717  0.0
H  H39  1  0.17922832  0.37478688  0.91652937  1  0.60825  0.001379  0.339765  0.417191  0.000608  0.85945  0.0
H  H40  1  0.48421496  0.45735918  0.68253985  1  0.599798  0.000785  0.327377  0.408237  0.000368  0.868876  0.0
H  H41  1  0.56705232  0.54856992  0.74375037  1  0.672905  0.000394  0.296826  0.396433  0.000338  0.940233  0.001
H  H42  1  0.55379979  0.82257324  0.00722435  1  0.643508  0.000459  0.279059  0.363315  0.000471  0.994529  0.001
H  H43  1  0.48705760  0.80423027  0.08877775  1  0.633621  0.000846  0.290495  0.383741  0.000471  0.947747  0.001
H  H44  1  0.74783451  0.13183342  0.82527437  1  0.140992  0.000421  0.109579  0.124476  0.000178  1.004322  0.0
H  H45  1  0.03534681  0.09394562  0.70921690  1  0.102232  -3.6e-05  0.110019  0.118177  -0.000189  1.007519  0.0
H  H46  1  0.83679642  0.83901427  0.88145146  1  0.098257  5.4e-05  0.106209  0.113126  -1e-06  0.998398  0.0
H  H47  1  0.05970719  0.90646888  0.72664650  1  0.094261  -8.2e-05  0.105007  0.082737  -0.000159  1.003903  0.0
H  H48  1  0.97913435  0.80217680  0.79970713  1  0.051182  3.8e-05  0.106759  0.083029  -4.2e-05  0.976946  0.0
H  H49  1  0.28953829  0.03346855  0.93324864  1  0.128736  0.001581  0.120026  0.102514  0.000292  1.026357  0.001
H  H50  1  0.42484081  0.77835745  0.90095948  1  0.132666  0.00178  0.121225  0.105274  0.000431  1.010962  0.001
H  H51  1  0.12762414  0.75426456  0.76582372  1  0.121414  -6e-06  0.116793  0.133101  -0.000177  1.012043  0.0
H  H52  1  0.97866987  0.38542494  0.62467029  1  0.641266  0.000248  0.287686  0.375491  0.000111  0.971232  0.0
H  H53  1  0.91953119  0.43091424  0.55784290  1  0.622241  0.001833  0.324131  0.402914  0.001031  0.880559  0.001
H  H54  1  0.66018979  0.34884001  0.80818326  1  0.636686  0.001155  0.296627  0.395205  0.000717  0.924341  0.002
H  H55  1  0.72143240  0.48817153  0.80028020  1  0.633401  0.000168  0.282655  0.368361  0.000374  0.983298  0.0
H  H56  1  0.65097032  0.26762258  0.63937484  1  0.628073  0.000738  0.333433  0.419838  0.000317  0.864666  0.0
H  H57  1  0.67922262  0.37477583  0.58347558  1  0.608439  0.00138  0.339763  0.417168  0.000609  0.859398  0.0
H  H58  1  0.98421443  0.45737067  0.81746897  1  0.600114  0.000785  0.327427  0.408219  0.000368  0.86885  0.0
H  H59  1  0.06705107  0.54857386  0.75625723  1  0.672976  0.000394  0.296861  0.396387  0.000338  0.940274  0.001
H  H60  1  0.94618644  0.17742478  0.50723717  1  0.643913  0.000458  0.279073  0.363366  0.000471  0.994429  0.001
H  H61  1  0.01292991  0.19577056  0.58878705  1  0.633085  0.000846  0.290437  0.383645  0.00047  0.947942  0.001
H  H62  1  0.75214479  0.86814222  0.32529381  1  0.140737  0.000421  0.109578  0.124513  0.000177  1.004102  0.0
H  H63  1  0.46464913  0.90605100  0.20922529  1  0.102437  -3.6e-05  0.110002  0.118092  -0.000189  1.007556  0.0
H  H64  1  0.66320399  0.16098374  0.38146914  1  0.097793  5.4e-05  0.106331  0.113388  -1e-06  0.998176  0.0
H  H65  1  0.44029752  0.09352808  0.22665420  1  0.094477  -8.2e-05  0.104976  0.082731  -0.000159  1.0038  0.0
H  H66  1  0.52086909  0.19782700  0.29971546  1  0.05139  3.8e-05  0.106718  0.082924  -4.2e-05  0.976985  0.0
H  H67  1  0.21045190  0.96653083  0.43324095  1  0.128885  0.001581  0.119936  0.10239  0.000293  1.026431  0.001
H  H68  1  0.07515723  0.22163877  0.40095970  1  0.132987  0.001778  0.12124  0.105304  0.00043  1.01105  0.001
H  H69  1  0.37238013  0.24574637  0.26583194  1  0.121357  -5e-06  0.11677  0.133088  -0.000176  1.012016  0.0
H  H70  1  0.52132837  0.61456974  0.12466328  1  0.641106  0.000248  0.287725  0.375507  0.000112  0.971196  0.0
H  H71  1  0.58047480  0.56909449  0.05783809  1  0.622037  0.001834  0.32412  0.402824  0.001031  0.880615  0.001
H  H72  1  0.83981853  0.65116218  0.30817390  1  0.636583  0.001156  0.296586  0.395116  0.000717  0.924477  0.002
H  H73  1  0.77857600  0.51183675  0.30026473  1  0.633406  0.000168  0.282643  0.368346  0.000374  0.983283  0.0
H  H74  1  0.84900765  0.73237579  0.13934773  1  0.627974  0.000739  0.33339  0.419752  0.000318  0.864776  0.0
H  H75  1  0.82076730  0.62521101  0.08346839  1  0.608187  0.001379  0.339742  0.417176  0.000608  0.859394  0.0
H  H76  1  0.51580208  0.54262816  0.31746424  1  0.599831  0.000786  0.327428  0.408263  0.000368  0.868898  0.0
H  H77  1  0.43295743  0.45143339  0.25625200  1  0.672997  0.000394  0.296831  0.396393  0.000338  0.940267  0.001
C  C78  1  0.31762142  0.06318753  0.08425276  1  1.554404  -0.00272  0.203967  0.565353  -0.003789  4.210808  -0.001
C  C79  1  0.21728386  0.01875919  0.14031765  1  -0.012479  0.004451  -0.021051  -0.035933  0.002146  3.986559  0.004
C  C80  1  0.19656456  0.91598131  0.18309807  1  -0.03424  0.001534  -0.076355  -0.097084  0.000832  3.92459  0.001
C  C81  1  0.10606292  0.87477933  0.23715887  1  -0.030906  0.0031  -0.028112  -0.0589  0.001487  4.03379  0.002
C  C82  1  0.03421064  0.93628144  0.24783068  1  -0.062087  -0.000723  -0.077507  -0.134432  -0.001332  3.920976  0.0
C  C83  1  0.05374849  0.03879041  0.20482753  1  -0.00148  0.000971  -0.017595  0.074216  0.000405  4.007877  0.001
C  C84  1  0.14531248  0.07978322  0.15141998  1  -0.029936  -0.000199  -0.071221  -0.119085  -0.000539  3.910334  0.0
C  C85  1  0.09077057  0.76767649  0.28382216  1  1.518959  0.003751  0.217145  0.584638  0.001731  4.179943  0.003
C  C86  1  0.97489972  0.10252950  0.21435104  1  0.375347  0.000325  -0.061756  -0.023669  0.000153  3.89475  0.0
C  C87  1  0.80382752  0.10055915  0.15112783  1  0.418046  0.004735  0.086583  0.219192  0.002324  4.082272  0.004
C  C88  1  0.71508532  0.04620845  0.09680632  1  0.529595  -0.009304  0.041493  -0.013161  -0.01084  3.914457  -0.006
C  C89  1  0.64003376  0.18787461  0.11495726  1  0.457008  -0.00506  0.041432  0.057677  -0.006264  3.914301  -0.004
C  C90  1  0.72509673  0.24657338  0.16996141  1  0.000495  0.008537  -0.019397  -0.069487  0.004354  4.0156  0.007
C  C91  1  0.80805225  0.20173475  0.18975494  1  0.054549  -0.008945  -0.085017  -0.198314  -0.010181  3.954499  -0.005
C  C92  1  0.72644312  0.35605329  0.20828582  1  1.556434  -0.00184  0.217119  0.580909  -0.003068  4.187714  -0.001
C  C93  1  0.18240991  0.93681080  0.58423150  1  1.553135  -0.002714  0.204004  0.565315  -0.003785  4.211593  -0.001
C  C94  1  0.28273887  0.98125513  0.64030033  1  -0.011629  0.004448  -0.021033  -0.035546  0.002145  3.986454  0.004
C  C95  1  0.30345034  0.08402833  0.68308312  1  -0.034564  0.001537  -0.076251  -0.096726  0.000834  3.924524  0.001
C  C96  1  0.39394559  0.12523561  0.73714615  1  -0.03093  0.003099  -0.028229  -0.059298  0.001486  4.034159  0.002
C  C97  1  0.46579327  0.06372209  0.74782168  1  -0.062211  -0.000722  -0.077504  -0.134464  -0.001331  3.920775  0.0
C  C98  1  0.44625217  0.96120794  0.70482075  1  -0.001956  0.000971  -0.017566  0.074505  0.000405  4.007401  0.001
C  C99  1  0.35469925  0.92021966  0.65140177  1  -0.029223  -0.000198  -0.07121  -0.119515  -0.000538  3.910088  0.0
C  C100  1  0.40922773  0.23232582  0.78381376  1  1.518945  0.00375  0.216968  0.584575  0.001732  4.180366  0.003
C  C101  1  0.52509859  0.89747554  0.71435896  1  0.375085  0.000325  -0.061727  -0.023608  0.000153  3.894668  0.0
C  C102  1  0.69618062  0.89945113  0.65114417  1  0.418033  0.004733  0.086611  0.219098  0.002323  4.08258  0.004
C  C103  1  0.78491830  0.95379113  0.59681464  1  0.529229  -0.009303  0.041526  -0.012955  -0.010838  3.914179  -0.006
C  C104  1  0.85994920  0.81209937  0.61496858  1  0.45821  -0.005055  0.041609  0.057727  -0.006257  3.91419  -0.004
C  C105  1  0.77489642  0.75341757  0.66997608  1  0.000907  0.008534  -0.019471  -0.069556  0.004353  4.015864  0.007
C  C106  1  0.69194913  0.79827346  0.68976292  1  0.054988  -0.008936  -0.085058  -0.198376  -0.010171  3.954492  -0.005
C  C107  1  0.77355690  0.64394988  0.70830356  1  1.556157  -0.001836  0.217155  0.58108  -0.003063  4.187413  -0.001
C  C108  1  0.68236272  0.93680764  0.91574558  1  1.554578  -0.002723  0.204141  0.565673  -0.003791  4.210518  -0.001
C  C109  1  0.78270359  0.98123422  0.85968759  1  -0.013293  0.004451  -0.021066  -0.036188  0.002146  3.98677  0.004
C  C110  1  0.80342695  0.08401834  0.81690257  1  -0.03399  0.001536  -0.076288  -0.096765  0.000833  3.924285  0.001
C  C111  1  0.89392949  0.12521855  0.76284119  1  -0.031383  0.0031  -0.02816  -0.059106  0.001487  4.033768  0.002
C  C112  1  0.96578162  0.06371199  0.75216880  1  -0.06093  -0.000724  -0.077555  -0.13459  -0.001334  3.921  0.0
C  C113  1  0.94623339  0.96119496  0.79516908  1  -0.001976  0.000971  -0.017589  0.074443  0.000405  4.007747  0.001
C  C114  1  0.85467273  0.92021462  0.84857835  1  -0.029486  -0.0002  -0.071157  -0.119045  -0.00054  3.910458  0.0
C  C115  1  0.90921963  0.23231782  0.71617617  1  1.519007  0.003754  0.217085  0.584713  0.001733  4.179992  0.003
C  C116  1  0.02508663  0.89746923  0.78564212  1  0.374892  0.000325  -0.061673  -0.023434  0.000153  3.894568  0.0
C  C117  1  0.19616555  0.89944851  0.84885554  1  0.417239  0.004736  0.086481  0.219004  0.002324  4.082473  0.004
C  C118  1  0.28490209  0.95379295  0.90319087  1  0.529108  -0.009315  0.041493  -0.01303  -0.010851  3.913824  -0.006
C  C119  1  0.35995003  0.81211966  0.88503820  1  0.457797  -0.005056  0.041324  0.057413  -0.006259  3.914754  -0.004
C  C120  1  0.27490490  0.75343166  0.83003232  1  0.000882  0.008537  -0.01937  -0.069354  0.004354  4.015544  0.007
C  C121  1  0.19193816  0.79827023  0.81023591  1  0.054702  -0.008949  -0.085149  -0.198608  -0.010185  3.954435  -0.006
C  C122  1  0.27356273  0.64396244  0.79170331  1  1.55675  -0.001837  0.216983  0.580768  -0.003065  4.187546  -0.001
C  C123  1  0.81761610  0.06318104  0.41575302  1  1.554254  -0.002714  0.203942  0.565409  -0.003784  4.211194  -0.001
C  C124  1  0.71727748  0.01874466  0.35969858  1  -0.012314  0.004448  -0.020989  -0.035783  0.002145  3.986882  0.004
C  C125  1  0.69655739  0.91596786  0.31691637  1  -0.034235  0.001537  -0.076261  -0.09671  0.000833  3.924411  0.001
C  C126  1  0.60605779  0.87475966  0.26285391  1  -0.030839  0.003098  -0.028208  -0.059306  0.001486  4.034105  0.002
C  C127  1  0.53421266  0.93627764  0.25218126  1  -0.06136  -0.000721  -0.077515  -0.134409  -0.001331  3.92059  0.0
C  C128  1  0.55376856  0.03880698  0.29517988  1  -0.002349  0.00097  -0.017565  0.074445  0.000405  4.007923  0.001
C  C129  1  0.64531009  0.07977654  0.34859714  1  -0.029517  -0.000196  -0.071348  -0.119656  -0.000536  3.910715  0.0
C  C130  1  0.59076769  0.76767563  0.21618112  1  1.518937  0.003753  0.217064  0.584672  0.001733  4.180147  0.003
C  C131  1  0.47491612  0.10253224  0.28565319  1  0.374337  0.000325  -0.061592  -0.023206  0.000153  3.894346  0.0
C  C132  1  0.30383203  0.10055753  0.34886223  1  0.418034  0.004733  0.086553  0.219289  0.002323  4.082487  0.004
C  C133  1  0.21508398  0.04620947  0.40318772  1  0.529077  -0.0093  0.041479  -0.013061  -0.010835  3.914044  -0.006
C  C134  1  0.14004531  0.18788962  0.38503551  1  0.457466  -0.005053  0.041345  0.057481  -0.006256  3.914402  -0.004
C  C135  1  0.22510080  0.24658034  0.33002916  1  0.000506  0.008537  -0.019522  -0.06961  0.004355  4.015966  0.007
C  C136  1  0.30805261  0.20172980  0.31024002  1  0.055115  -0.008933  -0.0851  -0.198647  -0.010167  3.954635  -0.005
C  C137  1  0.22644168  0.35605958  0.29170859  1  1.556533  -0.001837  0.21712  0.581067  -0.003064  4.187582  -0.001
N  N138  1  0.63450276  0.08811150  0.07982321  1  -1.210283  0.052491  -0.324898  -0.227098  0.027497  3.624815  0.047
N  N139  1  0.86549287  0.91187353  0.57983366  1  -1.2105  0.052488  -0.325125  -0.227427  0.027494  3.62444  0.047
N  N140  1  0.36549131  0.91189260  0.92016880  1  -1.210112  0.052491  -0.324842  -0.22699  0.027497  3.624547  0.047
N  N141  1  0.13449902  0.08810478  0.42016468  1  -1.210244  0.052486  -0.324802  -0.227014  0.027494  3.624384  0.047
O  O142  1  0.51503192  0.17090910  0.96489792  1  -1.262462  0.065989  -0.583031  -0.772054  0.034118  2.157878  0.052
O  O143  1  0.38071860  0.00308015  0.08151558  1  -1.169493  0.068898  -0.321431  -0.577237  0.035289  2.35731  0.06
O  O144  1  0.33340490  0.15527829  0.04441721  1  -1.179515  0.002362  -0.336487  -0.561128  0.00019  2.124458  0.002
O  O145  1  0.00197187  0.72186723  0.32865391  1  -1.194872  0.009625  -0.304942  -0.567228  0.004194  2.243627  0.008
O  O146  1  0.16964462  0.72736569  0.27671138  1  -1.163758  0.06037  -0.324136  -0.591431  0.030538  2.375288  0.049
O  O147  1  0.87898423  0.04718374  0.16095848  1  -1.058946  0.001323  -0.180923  -0.199544  0.000627  2.534032  0.001
O  O148  1  0.65950047  0.40158358  0.18036023  1  -1.144875  0.065203  -0.3158  -0.562321  0.03345  2.328836  0.054
O  O149  1  0.79409946  0.39684885  0.26627764  1  -1.191706  0.002544  -0.311042  -0.548875  0.000378  2.207108  0.002
O  O150  1  0.04719299  0.54938225  0.39076812  1  -1.236039  0.053021  -0.568049  -0.765816  0.026806  2.07871  0.041
O  O151  1  0.26155307  0.58525128  0.19378280  1  -1.236668  0.062402  -0.586609  -0.767394  0.032047  2.077118  0.048
O  O152  1  0.32784909  0.64659901  0.36222781  1  -1.187245  0.036238  -0.545493  -0.764625  0.01812  2.051576  0.028
O  O153  1  0.01436920  0.48547788  0.22170717  1  -1.221809  0.055689  -0.564404  -0.760876  0.027996  2.118835  0.046
O  O154  1  0.98496720  0.82907338  0.46489978  1  -1.262208  0.065979  -0.582983  -0.772036  0.034111  2.157766  0.052
O  O155  1  0.11929744  0.99689760  0.58150723  1  -1.168719  0.06889  -0.321417  -0.577319  0.035284  2.357753  0.06
O  O156  1  0.16664665  0.84473995  0.54438774  1  -1.179343  0.002368  -0.336526  -0.561156  0.000194  2.124789  0.002
O  O157  1  0.49802054  0.27811711  0.82864836  1  -1.19471  0.009628  -0.30492  -0.567292  0.004195  2.243762  0.008
O  O158  1  0.33035621  0.27263473  0.77670775  1  -1.163942  0.060364  -0.324101  -0.591394  0.030533  2.375281  0.049
O  O159  1  0.62103902  0.95282857  0.66097564  1  -1.058787  0.001322  -0.180938  -0.199527  0.000627  2.534301  0.001
O  O160  1  0.84048264  0.59841459  0.68037035  1  -1.145365  0.06517  -0.315783  -0.562378  0.033435  2.328615  0.054
O  O161  1  0.70590648  0.60316864  0.76629823  1  -1.191517  0.002544  -0.311047  -0.548936  0.000378  2.206823  0.002
O  O162  1  0.45281605  0.45062542  0.89077467  1  -1.23576  0.053015  -0.568076  -0.765735  0.0268  2.078668  0.041
O  O163  1  0.23845414  0.41475938  0.69378028  1  -1.2366  0.062406  -0.586619  -0.767471  0.032049  2.076801  0.048
O  O164  1  0.17214651  0.35340634  0.86222104  1  -1.187406  0.036242  -0.545581  -0.764703  0.018119  2.051617  0.028
O  O165  1  0.48565006  0.51453153  0.72170434  1  -1.221624  0.055683  -0.56438  -0.760821  0.027993  2.118621  0.046
O  O166  1  0.48495430  0.82909941  0.03509984  1  -1.262456  0.065991  -0.582918  -0.771911  0.034122  2.157912  0.052
O  O167  1  0.61927848  0.99692753  0.91848218  1  -1.169624  0.068886  -0.321471  -0.5774  0.035286  2.357374  0.06
O  O168  1  0.66657634  0.84471152  0.95557997  1  -1.179483  0.00236  -0.336615  -0.561178  0.000188  2.124108  0.002
O  O169  1  0.99802009  0.27813153  0.67134328  1  -1.194717  0.009634  -0.30488  -0.567219  0.004198  2.243636  0.008
O  O170  1  0.83035055  0.27263309  0.72328580  1  -1.163877  0.060387  -0.324148  -0.591502  0.030545  2.375476  0.049
O  O171  1  0.12101120  0.95281771  0.83902950  1  -1.05826  0.001323  -0.18084  -0.199509  0.000627  2.53405  0.001
O  O172  1  0.34049882  0.59842767  0.81963350  1  -1.145148  0.065192  -0.315777  -0.562273  0.033445  2.328799  0.054
O  O173  1  0.20590313  0.60316064  0.73371436  1  -1.191965  0.002544  -0.310928  -0.548745  0.000378  2.206942  0.002
O  O174  1  0.95280974  0.45061746  0.60923251  1  -1.236155  0.053012  -0.568059  -0.765865  0.026803  2.078665  0.041
O  O175  1  0.73845112  0.41475822  0.80622532  1  -1.236706  0.062404  -0.586645  -0.767511  0.032045  2.076932  0.048
O  O176  1  0.67214182  0.35339707  0.63778376  1  -1.187676  0.036242  -0.545571  -0.764687  0.018118  2.051521  0.028
O  O177  1  0.98563884  0.51452720  0.77830210  1  -1.222024  0.055681  -0.564482  -0.76078  0.027991  2.1187  0.046
O  O178  1  0.01504197  0.17090414  0.53510604  1  -1.262278  0.06597  -0.582888  -0.77186  0.03411  2.157827  0.052
O  O179  1  0.88071017  0.00307191  0.41848937  1  -1.16935  0.068891  -0.321487  -0.577396  0.03529  2.35741  0.06
O  O180  1  0.83339640  0.15526266  0.45559045  1  -1.179498  0.002366  -0.336417  -0.561066  0.000192  2.124595  0.002
O  O181  1  0.50197217  0.72187544  0.17134940  1  -1.194864  0.009628  -0.304927  -0.567224  0.004195  2.243741  0.008
O  O182  1  0.66964402  0.72736674  0.22328713  1  -1.163833  0.060371  -0.324159  -0.59153  0.030536  2.375229  0.049
O  O183  1  0.37897379  0.04718454  0.33903536  1  -1.058635  0.001322  -0.180893  -0.19966  0.000627  2.534266  0.001
O  O184  1  0.15950772  0.40158416  0.31964065  1  -1.144969  0.065182  -0.315781  -0.562294  0.033438  2.328923  0.054
O  O185  1  0.29410443  0.39684979  0.23372083  1  -1.191883  0.002543  -0.310927  -0.54882  0.000378  2.20694  0.002
O  O186  1  0.54719270  0.54938144  0.10922827  1  -1.23582  0.053021  -0.568053  -0.765741  0.026804  2.078763  0.041
O  O187  1  0.76155326  0.58525014  0.30621691  1  -1.236619  0.062401  -0.586581  -0.767406  0.032047  2.077009  0.048
O  O188  1  0.82785298  0.64660136  0.13777614  1  -1.187283  0.036239  -0.54549  -0.7646  0.018121  2.051697  0.028
O  O189  1  0.51436139  0.48547001  0.27829054  1  -1.221835  0.055686  -0.564458  -0.760819  0.027994  2.11889  0.046
