# generated using pymatgen
data_Fe4H38C45O22
_symmetry_space_group_name_H-M   'P 1'
_cell_length_a   9.80155369
_cell_length_b   13.69907669
_cell_length_c   19.31708797
_cell_angle_alpha   104.82841953
_cell_angle_beta   88.92951017
_cell_angle_gamma   92.10959417
_symmetry_Int_Tables_number   1
_chemical_formula_structural   Fe4H38C45O22
_chemical_formula_sum   'Fe8 H76 C90 O44'
_cell_volume   2505.55331129
_cell_formula_units_Z   2
loop_
 _symmetry_equiv_pos_site_id
 _symmetry_equiv_pos_as_xyz
  1  'x, y, z'
loop_
 _atom_site_type_symbol
 _atom_site_label
 _atom_site_symmetry_multiplicity
 _atom_site_fract_x
 _atom_site_fract_y
 _atom_site_fract_z
 _atom_site_occupancy
 _atom_site_pbe_bader_charge
 _atom_site_pbe_bader_spin_density
 _atom_site_pbe_cm5_charge
 _atom_site_pbe_ddec_charge
 _atom_site_pbe_ddec_spin_density
 _atom_site_pbe_ddec_sum_bond_order
 _atom_site_pbe_magmom
Fe  Fe0  1  0.01933241  0.99791425  0.99828881  1  1.614819  2.862546  0.82892  1.246653  3.168624  2.911333  2.839
Fe  Fe1  1  0.52431726  0.00219005  0.50153218  1  1.747425  4.085389  0.883046  1.397117  4.543174  2.599644  4.054
Fe  Fe2  1  0.00804628  0.24653454  0.99773676  1  1.737206  4.039322  0.880506  1.387335  4.490008  2.619871  4.01
Fe  Fe3  1  0.52540644  0.25159730  0.50011798  1  1.748196  4.080749  0.883497  1.400693  4.53834  2.624686  4.051
Fe  Fe4  1  0.00052665  0.49636358  0.99908180  1  1.743956  4.071217  0.876748  1.398485  4.522452  2.590801  4.041
Fe  Fe5  1  0.50200895  0.49812515  0.49683790  1  1.751843  4.08808  0.88718  1.407337  4.546089  2.613636  4.059
Fe  Fe6  1  0.01516045  0.74978745  0.00028402  1  1.738281  4.030223  0.884182  1.391304  4.475639  2.63158  4.001
Fe  Fe7  1  0.50101907  0.74915242  0.49683048  1  1.756256  4.086423  0.890948  1.410187  4.545141  2.61386  4.057
H  H8  1  0.32860036  0.18707555  0.29189473  1  0.110379  0.000563  0.109454  0.118057  0.000145  0.997256  0.0
H  H9  1  0.23482432  0.11735475  0.16824190  1  0.075398  0.000374  0.10588  0.108741  1.9e-05  1.006949  0.0
H  H10  1  0.71346784  0.11856300  0.47460506  1  0.608676  0.007069  0.309854  0.407723  0.003499  0.892042  0.008
H  H11  1  0.79616814  0.17609992  0.79814825  1  0.071709  0.000631  0.11018  0.117394  0.00016  0.995305  0.0
H  H12  1  0.70501186  0.10312917  0.67388661  1  0.11874  0.000418  0.111411  0.120817  5e-06  0.990869  0.0
H  H13  1  0.31324194  0.06507484  0.71065808  1  0.073355  0.000675  0.108322  0.114427  0.000182  0.998377  0.0
H  H14  1  0.21322233  0.14157913  0.83269327  1  0.072254  0.000522  0.109731  0.117216  4.4e-05  0.997588  0.0
H  H15  1  0.82159933  0.06671693  0.21703857  1  0.084123  0.000626  0.107358  0.112685  0.000185  1.002371  0.0
H  H16  1  0.72979263  0.14665787  0.34023741  1  0.112085  0.000391  0.10575  0.107657  -7e-05  1.009875  0.0
H  H17  1  0.19904344  0.12191827  0.02060937  1  0.607529  0.004926  0.316126  0.405979  0.001964  0.883695  0.005
H  H18  1  0.66803513  0.32925101  0.71525902  1  0.116836  0.000627  0.109269  0.115379  0.000166  0.994024  0.0
H  H19  1  0.75422505  0.40136171  0.84044116  1  0.147873  0.00049  0.110223  0.12108  8.2e-05  1.01732  0.0
H  H20  1  0.32983655  0.34844896  0.46569004  1  0.661267  0.004911  0.290644  0.399004  0.003448  0.939449  0.011
H  H21  1  0.17135437  0.32093632  0.21010958  1  0.071066  0.000636  0.106961  0.110865  0.000165  1.000716  0.0
H  H22  1  0.26368466  0.39666420  0.33323158  1  0.155207  0.000539  0.109117  0.121401  0.00013  1.029933  0.0
H  H23  1  0.72549886  0.43360592  0.28874606  1  0.086009  0.000585  0.109041  0.112407  0.000157  1.001248  0.0
H  H24  1  0.81603395  0.35315893  0.16490022  1  0.101546  0.000545  0.112669  0.121867  3.9e-05  0.991482  0.0
H  H25  1  0.20520543  0.42988511  0.78349904  1  0.074933  0.000607  0.10744  0.111042  0.000168  1.004857  0.0
H  H26  1  0.30454644  0.35322495  0.66116165  1  0.089806  0.000549  0.112471  0.120244  5.3e-05  0.994765  0.0
H  H27  1  0.38525811  0.66743209  0.27103520  1  0.096503  0.000617  0.105544  0.109344  0.00017  1.006367  0.0
H  H28  1  0.28763941  0.59248408  0.14828939  1  0.08507  0.000629  0.10901  0.115779  0.000126  1.000305  0.0
H  H29  1  0.68338014  0.63960408  0.52981067  1  0.601236  0.007443  0.314362  0.413087  0.003592  0.885246  0.009
H  H30  1  0.84047922  0.68658958  0.79158014  1  0.101308  0.000658  0.104759  0.107488  0.000199  1.014663  0.0
H  H31  1  0.74886440  0.61552607  0.66736251  1  0.084325  0.000585  0.105619  0.10892  0.0001  1.00725  0.0
H  H32  1  0.27028365  0.55599500  0.69726858  1  0.120763  0.000681  0.107328  0.112115  0.000208  1.005431  0.0
H  H33  1  0.18917426  0.63325944  0.82320225  1  0.071203  0.000523  0.107862  0.110884  2.4e-05  1.00766  0.0
H  H34  1  0.79966059  0.56613942  0.21257410  1  0.084627  0.000689  0.108099  0.11196  0.000207  1.003642  0.0
H  H35  1  0.71026096  0.64633924  0.33662201  1  0.123174  0.000497  0.112272  0.119521  1.2e-05  0.997035  0.0
H  H36  1  0.20021422  0.61675351  0.97953669  1  0.59717  0.007974  0.311882  0.408666  0.003968  0.895799  0.009
H  H37  1  0.69762662  0.80603353  0.70984967  1  0.067645  0.000623  0.105586  0.10887  0.000167  1.008729  0.0
H  H38  1  0.79432092  0.87832145  0.83255747  1  0.07176  0.000396  0.10635  0.107518  2.2e-05  1.010501  0.0
H  H39  1  0.32636023  0.87586340  0.47170661  1  0.60066  0.007528  0.310922  0.409501  0.003728  0.897749  0.009
H  H40  1  0.24017907  0.81680980  0.19750302  1  0.095402  0.000614  0.109163  0.115123  0.000162  0.994866  0.0
H  H41  1  0.33457782  0.88657791  0.32100096  1  0.11946  0.000352  0.106744  0.110664  -4e-06  1.003507  0.0
H  H42  1  0.71511100  0.93481446  0.28737221  1  0.07318  0.000696  0.106142  0.109148  0.000203  1.009119  0.0
H  H43  1  0.80381542  0.85462847  0.16320415  1  0.107939  0.00065  0.111196  0.120795  0.000122  0.995563  0.0
H  H44  1  0.18167529  0.92354587  0.77730573  1  0.099257  0.000642  0.107601  0.112196  0.000197  1.003249  0.0
H  H45  1  0.26296762  0.84632922  0.65116547  1  0.110548  0.000557  0.110888  0.119666  6.6e-05  0.99269  0.0
H  H46  1  0.81395993  0.35307509  0.97609268  1  0.656981  0.005135  0.290481  0.400837  0.003525  0.93423  0.011
H  H47  1  0.83513218  0.87666877  0.97725554  1  0.637232  0.004472  0.31778  0.407555  0.001871  0.883743  0.005
H  H48  1  0.93455189  0.84002871  0.54688564  1  0.032696  0.000133  0.07885  0.109481  -6e-06  1.040785  0.0
H  H49  1  0.95524495  0.71310163  0.55051302  1  -0.010416  0.000142  0.078777  0.106019  3e-05  1.00994  0.0
H  H50  1  0.83900179  0.74182135  0.48893290  1  0.042038  0.000672  0.084237  0.126595  -3.2e-05  1.04935  0.0
H  H51  1  0.11514288  0.62361739  0.36646981  1  0.029361  6.2e-05  0.077181  0.101813  -1.9e-05  1.058535  0.0
H  H52  1  0.94124093  0.61535259  0.39123502  1  0.020434  0.000145  0.082383  0.112425  4e-05  1.012466  0.0
H  H53  1  0.06968282  0.58374502  0.44463888  1  0.028538  0.000118  0.085053  0.123747  -1.3e-05  0.996561  0.0
H  H54  1  0.15122576  0.76053649  0.48347122  1  0.032381  0.000593  0.085418  0.047528  1.3e-05  0.997385  0.0
H  H55  1  0.12746304  0.79657507  0.36615736  1  0.024287  0.000215  0.090679  0.088938  5.4e-05  0.992418  0.0
H  H56  1  0.94990063  0.79309574  0.37264939  1  0.041364  0.000182  0.088676  0.091364  4.5e-05  1.023937  0.0
H  H57  1  0.87479492  0.31453012  0.45514450  1  0.64073  0.000458  0.316709  0.36679  0.000143  0.933168  0.0
H  H58  1  0.97585664  0.26469954  0.61868573  1  0.0423  4.4e-05  0.093848  0.133428  1.7e-05  0.997041  0.0
H  H59  1  0.85838747  0.27953341  0.55447669  1  0.046163  0.000518  0.088285  0.122872  -2e-05  1.039016  0.0
H  H60  1  0.97522418  0.38091587  0.59407000  1  0.008733  7.4e-05  0.089755  0.126669  5e-06  0.993938  0.0
H  H61  1  0.17259928  0.27266902  0.53926705  1  0.091766  0.00054  0.112353  0.11559  3e-05  0.990016  0.0
H  H62  1  0.11034380  0.93212545  0.54266665  1  0.046895  0.000293  0.10246  0.102684  6.1e-05  1.013969  0.0
H  H63  1  0.11355392  0.11608423  0.58615726  1  0.062822  9.9e-05  0.095927  0.089692  -1.7e-05  1.034756  0.0
H  H64  1  0.99740750  0.14026471  0.37723361  1  0.05724  8e-06  0.094227  0.093724  -1.4e-05  1.039234  0.0
H  H65  1  0.98434282  0.95536041  0.33538473  1  0.04375  2.2e-05  0.095124  0.095386  -8e-06  1.016549  0.0
H  H66  1  0.45748970  0.82251049  0.06428160  1  0.015512  0.000102  0.079255  0.106371  1.3e-05  1.043888  0.0
H  H67  1  0.43392105  0.69116749  0.05597573  1  -0.021029  0.000161  0.082462  0.112534  3.1e-05  1.0046  0.0
H  H68  1  0.32608493  0.75459279  0.00970271  1  0.032623  0.00039  0.083389  0.117813  -0.000206  1.060391  0.0
H  H69  1  0.55228744  0.59592453  0.86728583  1  0.00909  7e-05  0.079752  0.108629  1.2e-05  1.044425  0.0
H  H70  1  0.38487210  0.60708560  0.90327481  1  0.013013  0.000407  0.079659  0.102694  6.7e-05  1.02754  0.0
H  H71  1  0.51530054  0.56027792  0.94794344  1  0.032008  8.6e-05  0.08611  0.12441  5e-06  0.998373  0.0
H  H72  1  0.63275048  0.72851526  0.97950736  1  0.036186  0.000183  0.086391  0.052613  -0.000111  0.974333  0.0
H  H73  1  0.59207008  0.77344989  0.86811142  1  0.023227  0.000194  0.088956  0.086065  5.4e-05  0.998525  0.0
H  H74  1  0.41581906  0.77593475  0.88253427  1  0.028899  0.000291  0.089208  0.0911  7.3e-05  1.026269  0.0
H  H75  1  0.35510377  0.28403360  0.95721736  1  0.641811  0.000275  0.324129  0.3758  -1.4e-05  0.908005  0.0
H  H76  1  0.48239661  0.23980068  0.12610453  1  0.061673  1.5e-05  0.094222  0.133249  5e-06  1.000852  0.0
H  H77  1  0.35671349  0.26447624  0.06875580  1  0.023183  0.000262  0.083136  0.110693  -0.000102  1.053167  0.0
H  H78  1  0.48271653  0.35939446  0.10635207  1  0.056839  5.7e-05  0.090425  0.128485  1.3e-05  0.996043  0.0
H  H79  1  0.66667512  0.25007678  0.04012120  1  0.107646  0.00042  0.111434  0.115783  -3.4e-05  1.001018  0.0
H  H80  1  0.62020868  0.91069903  0.04131417  1  0.062963  0.000325  0.102591  0.10333  7.2e-05  1.011234  0.0
H  H81  1  0.63087182  0.09441411  0.08464963  1  0.038989  0.000124  0.096314  0.092196  -3.1e-05  1.034204  0.0
H  H82  1  0.45079284  0.12072271  0.88857776  1  0.043211  2.9e-05  0.094094  0.092538  -8e-06  1.039828  0.0
H  H83  1  0.43077334  0.93612732  0.84766909  1  0.058982  2.9e-05  0.09551  0.094931  -1.5e-05  1.018529  0.0
C  C84  1  0.33633560  0.04091053  0.31364907  1  -0.067882  0.015925  -0.005743  -0.021005  0.007511  3.937809  0.012
C  C85  1  0.30976978  0.10611922  0.27041558  1  0.008414  0.004057  -0.078599  -0.091273  0.001863  3.950443  0.002
C  C86  1  0.25799322  0.06737484  0.20186837  1  -0.028955  0.002483  -0.078279  -0.087708  0.001095  3.958345  0.002
C  C87  1  0.39001296  0.08260994  0.38786487  1  1.581375  0.008622  0.234616  0.616069  0.006335  4.119205  0.007
C  C88  1  0.80198742  0.03109460  0.82189235  1  0.044715  0.012553  -0.008699  -0.034134  0.005829  3.956673  0.009
C  C89  1  0.77554377  0.09517416  0.77782257  1  0.023806  0.002166  -0.076156  -0.087316  0.000949  3.955479  0.001
C  C90  1  0.72485951  0.05492602  0.70929161  1  -0.086997  0.004285  -0.07563  -0.086494  0.001943  3.946235  0.003
C  C91  1  0.86496979  0.07379910  0.89340105  1  1.576063  0.006869  0.245327  0.623932  0.004838  4.085351  0.006
C  C92  1  0.31417082  0.20493420  0.67933420  1  -0.015218  0.015024  -0.010245  -0.034774  0.007091  3.968089  0.011
C  C93  1  0.28874011  0.14470774  0.72727374  1  -0.052384  0.004181  -0.079521  -0.094433  0.001898  3.964906  0.002
C  C94  1  0.23425381  0.18711010  0.79475076  1  0.070619  0.002952  -0.077703  -0.086998  0.001363  3.955288  0.002
C  C95  1  0.37608800  0.16051576  0.60756205  1  1.553181  0.010532  0.234494  0.604185  0.007764  4.145614  0.009
C  C96  1  0.82318754  0.20558537  0.18447636  1  -0.025569  0.015309  -0.012239  -0.034262  0.007272  3.970955  0.011
C  C97  1  0.79977848  0.14684465  0.23351476  1  -0.032966  0.002884  -0.080223  -0.094711  0.001321  3.9663  0.002
C  C98  1  0.74984090  0.19122031  0.30162832  1  0.026046  0.003895  -0.078642  -0.086958  0.001774  3.965442  0.002
C  C99  1  0.87655445  0.15806996  0.11124715  1  1.539731  0.008196  0.22841  0.591327  0.005499  4.168498  0.007
C  C100  1  0.70433496  0.46832719  0.68439819  1  -0.047931  0.0166  -0.010323  -0.033117  0.007825  3.964702  0.012
C  C101  1  0.70653126  0.40720412  0.73260036  1  -0.099549  0.003293  -0.076744  -0.084795  0.001486  3.94991  0.002
C  C102  1  0.75524319  0.44665565  0.80156868  1  0.032817  0.00372  -0.072257  -0.081058  0.001712  3.937262  0.002
C  C103  1  0.64887486  0.42619574  0.61100024  1  1.55615  0.008931  0.234275  0.614982  0.006588  4.135693  0.008
C  C104  1  0.22447323  0.45268570  0.17269940  1  0.043588  0.016185  -0.010647  -0.033889  0.007738  3.969143  0.012
C  C105  1  0.21943725  0.39629611  0.22394929  1  -0.046586  0.003149  -0.076521  -0.083576  0.001435  3.952399  0.002
C  C106  1  0.27180146  0.43770937  0.29183442  1  -0.05121  0.004283  -0.072736  -0.079015  0.001936  3.927143  0.003
C  C107  1  0.16125365  0.41002258  0.10136946  1  1.53093  0.009411  0.234586  0.614257  0.006799  4.132889  0.008
C  C108  1  0.72369610  0.29476363  0.32120254  1  -0.052623  0.013521  -0.00945  -0.025456  0.006383  3.955382  0.01
C  C109  1  0.74650172  0.35337193  0.27206170  1  -0.03066  0.003839  -0.074724  -0.082448  0.001722  3.951866  0.002
C  C110  1  0.79620557  0.30904170  0.20385710  1  -0.041962  0.002759  -0.077  -0.088088  0.001226  3.950722  0.002
C  C111  1  0.67227134  0.34288554  0.39454073  1  1.539068  0.010402  0.235505  0.619092  0.006697  4.108626  0.008
C  C112  1  0.20556457  0.29031219  0.81502905  1  -0.080384  0.015838  -0.008269  -0.025369  0.007484  3.947478  0.011
C  C113  1  0.22900039  0.35013669  0.76671982  1  0.047172  0.002938  -0.075436  -0.084578  0.001338  3.954193  0.002
C  C114  1  0.28331764  0.30774415  0.69913687  1  -0.077111  0.004181  -0.076449  -0.088979  0.00188  3.951366  0.003
C  C115  1  0.15199753  0.33607698  0.88864487  1  1.575625  0.007951  0.236639  0.622734  0.005244  4.108642  0.006
C  C116  1  0.33009052  0.53594001  0.30856101  1  0.011925  0.016918  -0.008266  -0.035348  0.008043  3.968278  0.012
C  C117  1  0.33838262  0.59165032  0.25684129  1  -0.027596  0.003682  -0.08043  -0.097045  0.001681  3.98014  0.002
C  C118  1  0.28501581  0.55028398  0.18909521  1  -0.083743  0.0036  -0.078856  -0.091918  0.001588  3.96138  0.002
C  C119  1  0.37764543  0.58190093  0.38294347  1  1.560432  0.010615  0.241793  0.621645  0.008058  4.109259  0.009
C  C120  1  0.80301958  0.54760140  0.82243217  1  -0.0949  0.016489  -0.008065  -0.032368  0.007773  3.958977  0.012
C  C121  1  0.80192375  0.60865673  0.77417095  1  0.005107  0.003472  -0.081673  -0.097759  0.001609  3.981194  0.002
C  C122  1  0.75205262  0.56927224  0.70549255  1  -0.039577  0.003412  -0.081616  -0.0948  0.001539  3.97678  0.002
C  C123  1  0.85499566  0.59033037  0.89636344  1  1.562017  0.010373  0.238618  0.620803  0.007428  4.11163  0.009
C  C124  1  0.27205934  0.69707910  0.66763841  1  -0.093428  0.016672  -0.009687  -0.02748  0.007843  3.949533  0.012
C  C125  1  0.24968380  0.63619943  0.71539325  1  -0.014191  0.003974  -0.078941  -0.092112  0.001834  3.963182  0.002
C  C126  1  0.20567911  0.67895461  0.78501576  1  -0.093506  0.003098  -0.078368  -0.089015  0.001356  3.969162  0.002
C  C127  1  0.33334591  0.65385716  0.59542922  1  1.563245  0.010596  0.235545  0.6166  0.007482  4.121623  0.009
C  C128  1  0.80657832  0.70608757  0.18131518  1  -0.081602  0.017028  -0.008525  -0.026612  0.008058  3.949323  0.012
C  C129  1  0.77986637  0.64657175  0.22954308  1  -0.040097  0.0033  -0.077379  -0.092024  0.001516  3.963212  0.002
C  C130  1  0.73086321  0.69077489  0.29795646  1  0.036341  0.004077  -0.074781  -0.088667  0.001875  3.959985  0.003
C  C131  1  0.86438253  0.66089368  0.10857198  1  1.565763  0.008601  0.239457  0.622586  0.006322  4.111207  0.007
C  C132  1  0.69837102  0.95038823  0.68453575  1  -0.022337  0.015792  -0.008299  -0.028516  0.007476  3.946993  0.012
C  C133  1  0.72106209  0.88671048  0.72940356  1  0.03045  0.004318  -0.078847  -0.0931  0.001976  3.960686  0.003
C  C134  1  0.77368063  0.92680797  0.79750739  1  -0.116965  0.002829  -0.075767  -0.08369  0.001208  3.965025  0.002
C  C135  1  0.64549719  0.90826980  0.61041635  1  1.570644  0.009874  0.239551  0.621947  0.007399  4.115518  0.008
C  C136  1  0.23212518  0.96296616  0.17564927  1  -0.050158  0.012071  -0.009133  -0.034157  0.005597  3.950126  0.009
C  C137  1  0.26065240  0.89765230  0.21858682  1  0.021653  0.002153  -0.078568  -0.092262  0.000941  3.957384  0.001
C  C138  1  0.31249062  0.93640001  0.28706602  1  -0.096197  0.003621  -0.077336  -0.088887  0.001634  3.964465  0.002
C  C139  1  0.16893736  0.92154500  0.10378331  1  1.551447  0.007195  0.243263  0.62205  0.004928  4.092081  0.006
C  C140  1  0.70935806  0.79508679  0.31879067  1  -0.065997  0.01583  -0.009778  -0.03575  0.007504  3.964909  0.012
C  C141  1  0.73371713  0.85423207  0.27012288  1  -0.041806  0.003976  -0.080404  -0.096632  0.001821  3.986821  0.002
C  C142  1  0.78226455  0.81000872  0.20166421  1  0.037041  0.003483  -0.077943  -0.089886  0.001619  3.953254  0.002
C  C143  1  0.66313233  0.84257276  0.39344503  1  1.537335  0.010968  0.236175  0.617183  0.007723  4.122395  0.009
C  C144  1  0.18424694  0.78309995  0.80754174  1  0.00561  0.015647  -0.01115  -0.036676  0.007402  3.965366  0.011
C  C145  1  0.20134138  0.84319852  0.75889797  1  -0.034936  0.002986  -0.080621  -0.098231  0.001354  3.977068  0.002
C  C146  1  0.24532341  0.80053070  0.68924656  1  -0.003113  0.003989  -0.075979  -0.084834  0.001826  3.950181  0.003
C  C147  1  0.14762679  0.83068706  0.88388807  1  1.564274  0.008775  0.231857  0.60365  0.005914  4.140887  0.007
C  C148  1  0.93895047  0.76181651  0.51429195  1  -0.076142  0.001077  -0.255005  -0.400704  0.000476  3.916757  0.001
C  C149  1  0.04471822  0.63607072  0.41245813  1  -0.081775  0.00024  -0.248181  -0.385696  7.1e-05  3.918532  0.0
C  C150  1  0.05134042  0.74633888  0.45665486  1  0.027415  0.000597  -0.095124  0.124124  0.000279  3.862889  0.0
C  C151  1  0.04237267  0.81502462  0.40525865  1  -0.048475  0.00021  -0.161033  -0.233778  9.8e-05  3.915836  0.0
C  C152  1  0.96333620  0.29848107  0.57354543  1  -0.050589  0.000423  -0.244182  -0.385609  0.000211  3.933013  0.0
C  C153  1  0.07455635  0.31073917  0.45533996  1  1.509174  0.00057  0.247365  0.608569  0.000424  4.026857  0.0
C  C154  1  0.07050822  0.25742625  0.51530008  1  0.019155  0.001103  -0.086349  -0.146028  0.000488  3.932839  0.001
C  C155  1  0.08217980  0.97655351  0.50603447  1  -0.070384  0.000868  -0.093302  -0.133841  0.000257  3.981504  0.0
C  C156  1  0.08558355  0.08147217  0.53070780  1  -0.019275  0.000816  -0.094222  -0.11503  0.000222  3.978016  0.0
C  C157  1  0.05608293  0.14306715  0.48559934  1  -0.10601  0.001072  -0.015646  0.092999  0.000413  3.939904  0.001
C  C158  1  0.01898794  0.09559603  0.41493363  1  0.004777  0.000969  -0.106756  -0.161604  0.000398  4.024102  0.0
C  C159  1  0.01250941  0.99035082  0.39086747  1  -0.043797  0.000597  -0.097619  -0.131418  0.000228  3.993512  0.0
C  C160  1  0.04491538  0.92840856  0.43551595  1  -0.011326  0.001241  -0.010319  0.121053  0.000516  3.945466  0.001
C  C161  1  0.43136871  0.74998235  0.02651001  1  -0.032839  0.00047  -0.253679  -0.399473  0.000218  3.922343  0.0
C  C162  1  0.49384872  0.61575411  0.91767876  1  -0.057193  0.000459  -0.246291  -0.387664  0.000212  3.920043  0.0
C  C163  1  0.52629565  0.72444068  0.96100736  1  0.010894  0.000153  -0.094665  0.123111  5.8e-05  3.861182  0.0
C  C164  1  0.51367707  0.79462158  0.91072009  1  -0.009696  0.000312  -0.15967  -0.228274  0.000139  3.906275  0.0
C  C165  1  0.46466826  0.27789081  0.08367344  1  -0.110496  0.00027  -0.244112  -0.382819  0.000127  3.939571  0.0
C  C166  1  0.55685863  0.29516200  0.96319147  1  1.498599  0.000416  0.24878  0.612079  0.000324  4.01444  0.0
C  C167  1  0.56149058  0.23681112  0.02026755  1  0.008232  0.000908  -0.089048  -0.148686  0.000396  3.932446  0.001
C  C168  1  0.58006593  0.95553467  0.00760048  1  -0.023542  0.000889  -0.094976  -0.137311  0.000314  3.984773  0.0
C  C169  1  0.58738155  0.06045545  0.03214509  1  -0.039221  0.000521  -0.095449  -0.118823  9.2e-05  3.981915  0.0
C  C170  1  0.54243580  0.12274831  0.99044354  1  -0.030614  0.000934  -0.018283  0.085543  0.000379  3.947445  0.001
C  C171  1  0.48587780  0.07580130  0.92358276  1  -0.092902  0.00115  -0.103485  -0.151704  0.000483  4.015233  0.001
C  C172  1  0.47549637  0.97059036  0.89995713  1  -0.039467  0.000464  -0.094688  -0.122822  0.000151  3.978567  0.0
C  C173  1  0.52307672  0.90798903  0.94092067  1  -0.012177  0.001409  -0.010575  0.120022  0.000593  3.943168  0.001
O  O174  1  0.43767477  0.17325852  0.40381397  1  -1.144255  0.126158  -0.297405  -0.552136  0.059154  2.302267  0.104
O  O175  1  0.37457735  0.52510397  0.42605839  1  -1.129123  0.150556  -0.298617  -0.546139  0.069857  2.353451  0.119
O  O176  1  0.90790460  0.16532045  0.90861631  1  -1.140698  0.124021  -0.291154  -0.534505  0.058549  2.303411  0.1
O  O177  1  0.85785532  0.53114542  0.93775778  1  -1.135165  0.140571  -0.301491  -0.552202  0.065164  2.332768  0.111
O  O178  1  0.42291982  0.07243167  0.59512122  1  -1.137584  0.126373  -0.292491  -0.535363  0.059252  2.28989  0.102
O  O179  1  0.37744524  0.21424252  0.56233631  1  -1.138013  0.131848  -0.303258  -0.562378  0.061565  2.393022  0.104
O  O180  1  0.92089446  0.06965099  0.09847138  1  -1.127371  0.102653  -0.284315  -0.514825  0.048473  2.263531  0.085
O  O181  1  0.87071520  0.21057149  0.06506943  1  -1.146477  0.132821  -0.311052  -0.576643  0.062227  2.412337  0.105
O  O182  1  0.61055572  0.33340327  0.59432920  1  -1.144326  0.124668  -0.298058  -0.549279  0.058518  2.318977  0.101
O  O183  1  0.65645546  0.96528077  0.56751392  1  -1.135732  0.142375  -0.303057  -0.551999  0.066131  2.332099  0.113
O  O184  1  0.11879842  0.31768541  0.08662640  1  -1.150889  0.12261  -0.305779  -0.567988  0.057608  2.323629  0.1
O  O185  1  0.16665993  0.98083108  0.06182975  1  -1.106505  0.051658  -0.297592  -0.534522  0.022753  2.342281  0.036
O  O186  1  0.62218443  0.42910138  0.40634171  1  -1.133818  0.11186  -0.283311  -0.522662  0.052402  2.27396  0.092
O  O187  1  0.68514696  0.29285642  0.44266976  1  -1.165087  0.113512  -0.324189  -0.626552  0.053629  2.363899  0.089
O  O188  1  0.10588853  0.42411124  0.90273365  1  -1.140296  0.110654  -0.28918  -0.540795  0.051788  2.263163  0.092
O  O189  1  0.15847033  0.28141213  0.93391256  1  -1.170201  0.115957  -0.319718  -0.609133  0.054377  2.378665  0.091
O  O190  1  0.41810206  0.36572092  0.49222270  1  -1.161127  0.34889  -0.570297  -0.87322  0.167771  2.123626  0.273
O  O191  1  0.11219654  0.11827104  0.99598350  1  -1.075935  0.136921  -0.545734  -0.804661  0.064993  2.16406  0.103
O  O192  1  0.62912083  0.12976067  0.50256726  1  -1.149688  0.291498  -0.567212  -0.869286  0.141555  2.083991  0.226
O  O193  1  0.41551539  0.67488430  0.39971878  1  -1.14052  0.132567  -0.295619  -0.5479  0.062058  2.280594  0.108
O  O194  1  0.89308624  0.68333354  0.91345938  1  -1.142293  0.126473  -0.299524  -0.558162  0.059203  2.303  0.104
O  O195  1  0.37603608  0.56427784  0.58200803  1  -1.130584  0.132312  -0.295915  -0.54275  0.06187  2.271686  0.109
O  O196  1  0.34157352  0.71104235  0.55239670  1  -1.130226  0.135361  -0.304767  -0.568355  0.063072  2.356106  0.108
O  O197  1  0.90352521  0.57036030  0.09378775  1  -1.137394  0.127662  -0.293016  -0.537431  0.059708  2.253463  0.104
O  O198  1  0.87088801  0.71816637  0.06558406  1  -1.14403  0.13708  -0.308444  -0.563529  0.063614  2.353169  0.108
O  O199  1  0.59365123  0.81873903  0.59425497  1  -1.139806  0.12793  -0.297672  -0.552977  0.059703  2.268637  0.105
O  O200  1  0.64414424  0.48546984  0.56974750  1  -1.141676  0.119995  -0.310386  -0.574954  0.056122  2.327889  0.095
O  O201  1  0.12132121  0.83129245  0.08876677  1  -1.139165  0.11794  -0.288629  -0.538264  0.055926  2.303191  0.095
O  O202  1  0.15361953  0.46802856  0.05961488  1  -1.146119  0.122476  -0.307802  -0.561253  0.057177  2.337329  0.096
O  O203  1  0.63685907  0.93617823  0.41012680  1  -1.143191  0.131525  -0.299441  -0.55354  0.061361  2.283529  0.108
O  O204  1  0.65425008  0.78576559  0.43643416  1  -1.140125  0.129309  -0.303415  -0.56674  0.060246  2.406962  0.103
O  O205  1  0.11725587  0.92283834  0.90065453  1  -1.127776  0.107355  -0.285379  -0.516445  0.050723  2.275503  0.088
O  O206  1  0.15261430  0.77484254  0.92796295  1  -1.151212  0.126917  -0.313758  -0.584931  0.059534  2.381638  0.1
O  O207  1  0.41244080  0.87692861  0.49630873  1  -1.134021  0.299851  -0.567676  -0.876724  0.145598  2.116598  0.234
O  O208  1  0.10625215  0.62306824  0.99678455  1  -1.13243  0.297288  -0.567142  -0.876062  0.144294  2.126307  0.233
O  O209  1  0.60213224  0.62807769  0.50027381  1  -1.130337  0.299504  -0.568014  -0.875538  0.145375  2.119375  0.235
O  O210  1  0.38484249  0.02451374  0.43012868  1  -1.137993  0.121684  -0.303872  -0.576572  0.056852  2.369007  0.097
O  O211  1  0.87301551  0.01437038  0.93477191  1  -1.1125  0.054289  -0.29408  -0.536482  0.024091  2.40119  0.038
O  O212  1  0.90695044  0.36738792  0.99770601  1  -1.159714  0.344486  -0.567797  -0.873667  0.165933  2.101789  0.271
O  O213  1  0.92246253  0.87931546  0.00136150  1  -1.094559  0.139525  -0.544831  -0.804035  0.066405  2.193462  0.104
O  O214  1  0.95719589  0.33775924  0.43260567  1  -1.150759  0.002231  -0.324611  -0.462404  0.000863  2.302007  0.002
O  O215  1  0.18103617  0.32988995  0.42579871  1  -1.149204  0.008028  -0.260313  -0.456899  0.002861  2.195102  0.006
O  O216  1  0.43632684  0.31304054  0.93789780  1  -1.147524  0.001607  -0.326352  -0.468763  0.000596  2.299749  0.001
O  O217  1  0.65993372  0.32869316  0.93865159  1  -1.149454  0.007186  -0.26208  -0.459108  0.002536  2.176618  0.006
