# generated using pymatgen
data_SrNiH14C6O13
_symmetry_space_group_name_H-M   'P 1'
_cell_length_a   6.52266623
_cell_length_b   14.49408367
_cell_length_c   15.85763937
_cell_angle_alpha   89.99983390
_cell_angle_beta   100.52842210
_cell_angle_gamma   90.00007620
_symmetry_Int_Tables_number   1
_chemical_formula_structural   SrNiH14C6O13
_chemical_formula_sum   'Sr4 Ni4 H56 C24 O52'
_cell_volume   1473.94268376
_cell_formula_units_Z   4
loop_
 _symmetry_equiv_pos_site_id
 _symmetry_equiv_pos_as_xyz
  1  'x, y, z'
loop_
 _atom_site_type_symbol
 _atom_site_label
 _atom_site_symmetry_multiplicity
 _atom_site_fract_x
 _atom_site_fract_y
 _atom_site_fract_z
 _atom_site_occupancy
 _atom_site_pbe_bader_charge
 _atom_site_pbe_bader_spin_density
 _atom_site_pbe_cm5_charge
 _atom_site_pbe_ddec_charge
 _atom_site_pbe_ddec_spin_density
 _atom_site_pbe_ddec_sum_bond_order
 _atom_site_pbe_magmom
Sr  Sr0  1  0.76689190  0.41153694  0.54346793  1  1.685271  -0.000353  0.945783  1.460915  -0.000357  1.436096  0.0
Sr  Sr1  1  0.23310925  0.91153600  0.95653126  1  1.685306  -0.000509  0.945783  1.460959  -0.000647  1.435983  0.0
Sr  Sr2  1  0.23311417  0.58846290  0.45653699  1  1.685273  0.000272  0.945803  1.461041  0.000285  1.435867  0.0
Sr  Sr3  1  0.76688615  0.08846178  0.04346273  1  1.68528  -0.000594  0.945789  1.46104  -0.00072  1.435795  0.0
Ni  Ni4  1  0.77395987  0.27391292  0.29119389  1  1.09633  0.000674  0.5859  0.787499  0.003039  2.503508  0.002
Ni  Ni5  1  0.22603759  0.77391482  0.20880825  1  1.096246  0.000671  0.585927  0.787499  0.003038  2.50354  0.002
Ni  Ni6  1  0.22602743  0.72607520  0.70881206  1  1.096296  -0.000626  0.58594  0.787623  -0.006954  2.503078  -0.002
Ni  Ni7  1  0.77396722  0.22607536  0.79118458  1  1.09618  0.000611  0.585875  0.78752  0.002935  2.503135  0.002
H  H8  1  0.55605021  0.46179583  0.22270380  1  0.141253  1.9e-05  0.125783  0.18038  7e-06  0.984532  0.0
H  H9  1  0.44396313  0.96179696  0.27730100  1  0.141283  1.8e-05  0.125755  0.18031  6e-06  0.98461  0.0
H  H10  1  0.44396676  0.53820195  0.77730262  1  0.141746  -2e-05  0.125745  0.180283  -7e-06  0.984678  0.0
H  H11  1  0.55603998  0.03819875  0.72269738  1  0.141674  2e-05  0.125723  0.180261  7e-06  0.984656  0.0
H  H12  1  0.30649053  0.47710885  0.25146159  1  0.09146  5.5e-05  0.11564  0.150099  3.3e-05  1.003534  0.0
H  H13  1  0.69351521  0.97710746  0.24853562  1  0.09146  5.5e-05  0.11564  0.150058  3.3e-05  1.003525  0.0
H  H14  1  0.69352028  0.52288961  0.74854118  1  0.091373  -2.3e-05  0.11565  0.150096  -5e-06  1.003512  0.0
H  H15  1  0.30648335  0.02288341  0.75145735  1  0.091521  2.3e-05  0.115616  0.150077  3e-06  1.003549  0.0
H  H16  1  0.30064279  0.39819645  0.80807507  1  0.0947  -8e-06  0.119483  0.157518  -1e-06  0.983309  0.0
H  H17  1  0.69935370  0.89819456  0.69192252  1  0.094706  8e-06  0.119465  0.157498  1e-06  0.983257  0.0
H  H18  1  0.69935703  0.60180822  0.19192998  1  0.094337  -1.7e-05  0.11947  0.157517  -1.1e-05  0.983268  0.0
H  H19  1  0.30064958  0.10181356  0.30806893  1  0.094312  -1.8e-05  0.119492  0.157568  -1.1e-05  0.983274  0.0
H  H20  1  0.10489868  0.43213429  0.86336947  1  0.107399  -4.1e-05  0.123241  0.171072  -2.2e-05  0.958114  0.0
H  H21  1  0.89509470  0.93213615  0.63662968  1  0.107391  4.1e-05  0.123224  0.171023  2.3e-05  0.958148  0.0
H  H22  1  0.89510264  0.56787038  0.13663823  1  0.107689  -4.3e-05  0.123284  0.171165  -2.5e-05  0.958252  0.0
H  H23  1  0.10490712  0.06786094  0.36335724  1  0.108084  -3.8e-05  0.123262  0.17113  -2e-05  0.95827  0.0
H  H24  1  0.55508489  0.14698015  0.42693688  1  0.645823  7e-05  0.2843  0.36728  5.3e-05  0.98352  0.0
H  H25  1  0.44491222  0.64698400  0.07307062  1  0.645818  7e-05  0.284298  0.367219  5.5e-05  0.983615  0.0
H  H26  1  0.44491030  0.85301900  0.57306591  1  0.64583  -6.9e-05  0.284312  0.367258  -5.7e-05  0.98358  0.0
H  H27  1  0.55509398  0.35301722  0.92692927  1  0.645846  6.9e-05  0.284302  0.36724  5.4e-05  0.983595  0.0
H  H28  1  0.68022694  0.05424715  0.44789706  1  0.596782  -3.5e-05  0.312249  0.387903  -5e-06  0.898126  0.0
H  H29  1  0.31978425  0.55424754  0.05210297  1  0.596777  -3.7e-05  0.31224  0.387887  -4e-06  0.898166  0.0
H  H30  1  0.31977460  0.94575477  0.55210183  1  0.596743  3.2e-05  0.312231  0.387838  5e-06  0.898162  0.0
H  H31  1  0.68022664  0.44575230  0.94789665  1  0.596784  -4.5e-05  0.312228  0.387876  -1.6e-05  0.898164  0.0
H  H32  1  0.98934981  0.38505091  0.18429047  1  0.627986  -6e-06  0.279758  0.367183  -0.0  0.984081  0.0
H  H33  1  0.01065099  0.88505166  0.31571039  1  0.628038  -6e-06  0.279758  0.367154  1e-06  0.984124  0.0
H  H34  1  0.01065041  0.61495169  0.81569822  1  0.628033  2e-06  0.279727  0.367273  -2e-06  0.984048  0.0
H  H35  1  0.98935020  0.11495026  0.68430234  1  0.628026  -3e-06  0.279687  0.367235  1e-06  0.984073  0.0
H  H36  1  0.91439253  0.45268459  0.25012363  1  0.606371  -1.1e-05  0.283835  0.366322  -6e-06  0.98195  0.0
H  H37  1  0.08561459  0.95268490  0.24987881  1  0.606294  -1.1e-05  0.283857  0.366311  -6e-06  0.981961  0.0
H  H38  1  0.08560783  0.54732146  0.74985940  1  0.606166  -1.8e-05  0.283851  0.366487  -2.4e-05  0.981823  0.0
H  H39  1  0.91439421  0.04731977  0.75014209  1  0.606248  1.8e-05  0.283875  0.366564  2.3e-05  0.981719  0.0
H  H40  1  0.45301929  0.29167747  0.62364548  1  0.636075  0.000126  0.305273  0.395497  0.000132  0.935433  0.0
H  H41  1  0.54698781  0.79167214  0.87635765  1  0.636111  -0.000127  0.305256  0.395468  -0.000134  0.935474  0.0
H  H42  1  0.54698531  0.70832168  0.37635554  1  0.636057  0.000128  0.305272  0.395478  0.000133  0.935453  0.0
H  H43  1  0.45301843  0.20832632  0.12364034  1  0.636131  0.000127  0.305284  0.395505  0.000131  0.935429  0.0
H  H44  1  0.40002218  0.27411321  0.52156916  1  0.644136  -8e-06  0.302559  0.387494  -9e-06  0.953153  0.0
H  H45  1  0.59997860  0.77411035  0.97843541  1  0.644036  -8e-06  0.302495  0.387351  -5e-06  0.953365  0.0
H  H46  1  0.59997304  0.72588871  0.47843238  1  0.644135  4e-06  0.302555  0.387474  3e-06  0.953203  0.0
H  H47  1  0.40002452  0.22589088  0.02156234  1  0.643986  -1.1e-05  0.302525  0.387413  -1e-05  0.953284  0.0
H  H48  1  0.02322748  0.22156880  0.58008463  1  0.649602  2e-06  0.295787  0.393991  1e-06  0.938588  0.0
H  H49  1  0.97677488  0.72156912  0.91991579  1  0.64961  9e-06  0.295795  0.394018  2e-06  0.938553  0.0
H  H50  1  0.97677555  0.77843104  0.41991689  1  0.649598  -9e-06  0.295805  0.394009  -2e-06  0.938567  0.0
H  H51  1  0.02322979  0.27843073  0.08008271  1  0.649847  2e-06  0.295793  0.393988  1e-06  0.938592  0.0
H  H52  1  0.84090310  0.19591043  0.50297430  1  0.637585  4e-06  0.28911  0.391258  2.3e-05  0.940089  0.0
H  H53  1  0.15909606  0.69590724  0.99702719  1  0.637338  -2e-06  0.289081  0.391231  1.5e-05  0.940107  0.0
H  H54  1  0.15910155  0.80409424  0.49702483  1  0.637551  3e-06  0.289109  0.391224  -1.5e-05  0.940093  0.0
H  H55  1  0.84090541  0.30409329  0.00297421  1  0.637354  4e-06  0.289094  0.391209  2.3e-05  0.940127  0.0
H  H56  1  0.91173887  0.62769205  0.56364572  1  0.631925  -5.7e-05  0.308657  0.389971  -5e-05  0.945312  0.0
H  H57  1  0.08826652  0.12768995  0.93635204  1  0.631926  5.7e-05  0.308674  0.390027  4.7e-05  0.945245  0.0
H  H58  1  0.08826422  0.37230987  0.43635329  1  0.631932  6e-05  0.308669  0.389995  5.1e-05  0.945281  0.0
H  H59  1  0.91173653  0.87231265  0.06364886  1  0.631957  6.1e-05  0.308669  0.390006  5.1e-05  0.945276  0.0
H  H60  1  0.76682522  0.61165319  0.47545521  1  0.658944  1e-06  0.306842  0.393277  -5e-06  0.946138  0.0
H  H61  1  0.23318142  0.11165180  0.02454305  1  0.658941  -2e-06  0.306858  0.393327  2e-06  0.946079  0.0
H  H62  1  0.23318260  0.38834942  0.52454228  1  0.658835  -3e-06  0.306857  0.393306  -1e-06  0.946125  0.0
H  H63  1  0.76681850  0.88834667  0.97545760  1  0.658939  -0.0  0.306843  0.393278  8e-06  0.946162  0.0
C  C64  1  0.54444600  0.42046979  0.34921761  1  1.561143  0.000553  0.233307  0.679377  0.000225  4.092482  0.001
C  C65  1  0.45553921  0.92047547  0.15078444  1  1.562302  0.000552  0.233253  0.679202  0.000222  4.092628  0.001
C  C66  1  0.45555386  0.57951970  0.65078555  1  1.561934  -0.000571  0.233331  0.67947  -0.000275  4.09263  -0.001
C  C67  1  0.54445461  0.07951402  0.84921068  1  1.562094  0.000574  0.233287  0.679302  0.00026  4.092862  0.001
C  C68  1  0.44012699  0.43060577  0.25675498  1  -0.089719  -8.1e-05  -0.160413  -0.481314  -4.2e-05  3.895596  0.0
C  C69  1  0.55987392  0.93060570  0.24324450  1  -0.089828  -8e-05  -0.16035  -0.481087  -4.3e-05  3.89558  0.0
C  C70  1  0.55987917  0.56938925  0.74324616  1  -0.090301  0.000104  -0.160407  -0.481198  5.5e-05  3.895623  0.0
C  C71  1  0.44011835  0.06938655  0.75674987  1  -0.090394  -0.000104  -0.160378  -0.481198  -6e-05  3.895775  0.0
C  C72  1  0.37755138  0.34145428  0.20884106  1  1.562454  -5e-05  0.228501  0.665554  0.000267  4.091714  0.0
C  C73  1  0.62245099  0.84145202  0.29115625  1  1.562592  -5.1e-05  0.228522  0.665515  0.000266  4.091724  0.0
C  C74  1  0.62245945  0.65854419  0.79116108  1  1.56246  5.2e-05  0.228595  0.665602  -0.000278  4.091563  0.0
C  C75  1  0.37754131  0.15853885  0.70883686  1  1.562587  -5.1e-05  0.228728  0.665828  0.000265  4.091299  0.0
C  C76  1  0.99216847  0.38087798  0.73899747  1  1.56291  4.9e-05  0.225765  0.656366  -0.000326  4.118259  0.0
C  C77  1  0.00782639  0.88087545  0.76100130  1  1.562942  -5.2e-05  0.225934  0.656535  0.000305  4.118143  0.0
C  C78  1  0.00782352  0.61913152  0.26100822  1  1.56219  1.9e-05  0.226043  0.656803  -0.000345  4.117716  0.0
C  C79  1  0.99217530  0.11913198  0.23899129  1  1.562154  1.5e-05  0.226128  0.656971  -0.000349  4.117632  0.0
C  C80  1  0.14831498  0.37721196  0.82172956  1  -0.075989  -1.4e-05  -0.161996  -0.484427  -3.6e-05  3.941601  0.0
C  C81  1  0.85168456  0.87721090  0.67826960  1  -0.075939  1.2e-05  -0.161974  -0.484351  2.9e-05  3.94149  0.0
C  C82  1  0.85168640  0.62279409  0.17827562  1  -0.076272  -5e-06  -0.162029  -0.484631  -3.6e-05  3.941785  0.0
C  C83  1  0.14831551  0.12279239  0.32172539  1  -0.076583  -5e-06  -0.162097  -0.48471  -3.5e-05  3.941814  0.0
C  C84  1  0.17939236  0.28978380  0.87401613  1  1.608409  1.3e-05  0.232929  0.667616  0.000339  4.095095  0.0
C  C85  1  0.82060555  0.78978357  0.62597934  1  1.608472  -1.2e-05  0.232917  0.667614  -0.00035  4.09506  0.0
C  C86  1  0.82060748  0.71022225  0.12598829  1  1.609281  0.0  0.232776  0.667449  0.000327  4.095723  0.0
C  C87  1  0.17938343  0.21021558  0.37402170  1  1.608889  0.0  0.232795  0.667435  0.000328  4.09527  0.0
O  O88  1  0.68905126  0.35925931  0.37019205  1  -1.127907  -0.026178  -0.315538  -0.54961  -0.020586  2.39617  -0.021
O  O89  1  0.31093071  0.85926566  0.12981054  1  -1.127887  -0.026182  -0.315536  -0.549575  -0.020587  2.396026  -0.021
O  O90  1  0.31094868  0.64072949  0.62980797  1  -1.127616  0.026161  -0.315569  -0.549687  0.020343  2.396084  0.021
O  O91  1  0.68904738  0.14072866  0.87018901  1  -1.127616  -0.026168  -0.315582  -0.549644  -0.020577  2.396199  -0.021
O  O92  1  0.49477059  0.47248746  0.40584420  1  -1.208328  -0.003085  -0.36052  -0.616534  -0.002396  2.206154  -0.003
O  O93  1  0.50520536  0.97249474  0.09415698  1  -1.20953  -0.003094  -0.360485  -0.616414  -0.002381  2.206181  -0.003
O  O94  1  0.50523230  0.52749858  0.59416299  1  -1.209136  0.003095  -0.360555  -0.616622  0.002377  2.206236  0.003
O  O95  1  0.49478231  0.02748993  0.90583387  1  -1.20929  -0.003098  -0.360459  -0.616461  -0.002382  2.206234  -0.003
O  O96  1  0.21139822  0.34003580  0.15444431  1  -1.18896  0.00395  -0.30254  -0.548091  0.003035  2.191516  0.003
O  O97  1  0.78860415  0.84003279  0.34555300  1  -1.189035  0.003953  -0.302574  -0.548132  0.003039  2.19156  0.003
O  O98  1  0.78862049  0.65996335  0.84555467  1  -1.18913  -0.003958  -0.302614  -0.548187  -0.003077  2.191536  -0.003
O  O99  1  0.21137554  0.15995877  0.65444478  1  -1.189184  0.003954  -0.302642  -0.548254  0.003037  2.191472  0.003
O  O100  1  0.49891885  0.27029215  0.22257032  1  -1.112089  0.024488  -0.294834  -0.515562  0.019179  2.388206  0.02
O  O101  1  0.50108191  0.77028987  0.27742453  1  -1.112081  0.024487  -0.294836  -0.515527  0.019179  2.388173  0.02
O  O102  1  0.50108567  0.72970493  0.77743448  1  -1.111918  -0.024528  -0.294828  -0.515564  -0.019429  2.388124  -0.02
O  O103  1  0.49890743  0.22970031  0.72256204  1  -1.111946  0.024529  -0.294877  -0.515606  0.019208  2.387839  0.02
O  O104  1  0.84214609  0.32283014  0.72076767  1  -1.118707  -0.020389  -0.295457  -0.528995  -0.016009  2.431411  -0.015
O  O105  1  0.15783926  0.82282213  0.77923303  1  -1.118731  0.020387  -0.295574  -0.529049  0.015826  2.431567  0.015
O  O106  1  0.15787586  0.67716625  0.27922716  1  -1.118529  -0.020397  -0.295659  -0.529191  -0.01602  2.431292  -0.015
O  O107  1  0.84212451  0.17716668  0.22077674  1  -1.118583  -0.020403  -0.295749  -0.529318  -0.016019  2.43134  -0.015
O  O108  1  0.01082110  0.44597743  0.68728928  1  -1.20775  -0.003355  -0.349709  -0.585258  -0.002562  2.140503  -0.003
O  O109  1  0.98918330  0.94597534  0.81270756  1  -1.207814  0.003309  -0.349735  -0.585365  0.002514  2.140322  0.003
O  O110  1  0.98915200  0.55404104  0.31272249  1  -1.20726  -0.003239  -0.349821  -0.585444  -0.002491  2.140185  -0.003
O  O111  1  0.01084825  0.05404245  0.18727794  1  -1.207247  -0.003284  -0.349801  -0.585455  -0.002507  2.140225  -0.003
O  O112  1  0.04545978  0.22378168  0.86209221  1  -1.125016  0.020324  -0.286829  -0.513935  0.016117  2.439484  0.016
O  O113  1  0.95453642  0.72378149  0.63790457  1  -1.125083  -0.020321  -0.286884  -0.513937  -0.016303  2.439349  -0.016
O  O114  1  0.95453675  0.77622576  0.13791952  1  -1.125117  0.020312  -0.28672  -0.513841  0.01611  2.439796  0.016
O  O115  1  0.04544960  0.27621904  0.36208993  1  -1.12503  0.020314  -0.286793  -0.51384  0.016111  2.439653  0.016
O  O116  1  0.34349302  0.28558343  0.93029933  1  -1.197513  0.002472  -0.292316  -0.540112  0.001877  2.209271  0.002
O  O117  1  0.65650960  0.78558466  0.56969527  1  -1.197707  -0.002461  -0.292297  -0.540211  -0.001893  2.209339  -0.002
O  O118  1  0.65651469  0.71442263  0.06970257  1  -1.197769  0.002433  -0.292315  -0.540034  0.001852  2.20951  0.002
O  O119  1  0.34346672  0.21440966  0.43031234  1  -1.19757  0.00245  -0.292242  -0.540087  0.001861  2.209205  0.002
O  O120  1  0.69324466  0.11671336  0.42720525  1  -1.250767  -0.000265  -0.576952  -0.763074  -0.000276  1.962129  0.0
O  O121  1  0.30675408  0.61671092  0.07279742  1  -1.250774  -0.000268  -0.576948  -0.763026  -0.000279  1.962215  0.0
O  O122  1  0.30675518  0.88329131  0.57279918  1  -1.250782  0.000252  -0.576955  -0.762986  0.000265  1.962154  0.0
O  O123  1  0.69324757  0.38329099  0.92719706  1  -1.250842  -0.000254  -0.576964  -0.763041  -0.000271  1.962143  0.0
O  O124  1  0.86351099  0.40658100  0.20519210  1  -1.246054  0.000811  -0.599045  -0.796243  0.000718  2.055299  0.001
O  O125  1  0.13649288  0.90658327  0.29481272  1  -1.24599  0.000813  -0.599055  -0.796181  0.000719  2.055333  0.001
O  O126  1  0.13648490  0.59343954  0.79478237  1  -1.245839  -0.000785  -0.599017  -0.796529  -0.000701  2.05503  -0.001
O  O127  1  0.86351718  0.09343934  0.70522089  1  -1.245912  0.000785  -0.599009  -0.796544  0.000691  2.055067  0.001
O  O128  1  0.43949642  0.32208651  0.56684739  1  -1.278613  0.000272  -0.611875  -0.812459  0.000218  2.078637  0.0
O  O129  1  0.56050920  0.82208170  0.93315491  1  -1.278517  -0.000287  -0.611803  -0.812356  -0.000209  2.078821  0.0
O  O130  1  0.56051131  0.67791540  0.43315387  1  -1.278559  0.000211  -0.611854  -0.812441  0.000142  2.07875  0.0
O  O131  1  0.43949238  0.17791883  0.06684208  1  -1.278518  0.000198  -0.61184  -0.812447  0.000154  2.078739  0.0
O  O132  1  0.90306680  0.24711335  0.54033529  1  -1.305458  0.000116  -0.649159  -0.832616  0.000105  1.985244  0.0
O  O133  1  0.09693241  0.74711231  0.95966797  1  -1.305243  -7.2e-05  -0.64912  -0.832595  -4.6e-05  1.985216  0.0
O  O134  1  0.09693938  0.75288925  0.45966523  1  -1.305408  6.2e-05  -0.649154  -0.83259  4.5e-05  1.985268  0.0
O  O135  1  0.90306277  0.25288891  0.04033483  1  -1.305484  0.000105  -0.649126  -0.832552  0.000102  1.985257  0.0
O  O136  1  0.88320058  0.58188101  0.51641694  1  -1.313702  -0.000218  -0.6475  -0.848314  -0.000171  2.062822  0.0
O  O137  1  0.11680470  0.08188016  0.98358219  1  -1.31365  0.000212  -0.647516  -0.848423  0.000188  2.062707  0.0
O  O138  1  0.11680250  0.41811952  0.48358270  1  -1.313562  0.000203  -0.64752  -0.848366  0.000159  2.062855  0.0
O  O139  1  0.88319683  0.91811969  0.01641669  1  -1.313728  0.000211  -0.647509  -0.848377  0.000191  2.062802  0.0
