# generated using pymatgen
data_Cd2H8C14N2O9
_symmetry_space_group_name_H-M   'P 1'
_cell_length_a   8.38179705
_cell_length_b   8.42889504
_cell_length_c   21.74726805
_cell_angle_alpha   89.99996349
_cell_angle_beta   94.15740290
_cell_angle_gamma   90.00001954
_symmetry_Int_Tables_number   1
_chemical_formula_structural   Cd2H8C14N2O9
_chemical_formula_sum   'Cd8 H32 C56 N8 O36'
_cell_volume   1532.38611386
_cell_formula_units_Z   4
loop_
 _symmetry_equiv_pos_site_id
 _symmetry_equiv_pos_as_xyz
  1  'x, y, z'
loop_
 _atom_site_type_symbol
 _atom_site_label
 _atom_site_symmetry_multiplicity
 _atom_site_fract_x
 _atom_site_fract_y
 _atom_site_fract_z
 _atom_site_occupancy
 _atom_site_hle17_bader_spin_density
 _atom_site_hle17_ddec_charge
 _atom_site_hle17_ddec_spin_density
 _atom_site_hle17_ddec_sum_bond_order
 _atom_site_hle17_magmom
 _atom_site_hse06_10hf_bader_spin_density
 _atom_site_hse06_10hf_ddec_charge
 _atom_site_hse06_10hf_ddec_spin_density
 _atom_site_hse06_10hf_ddec_sum_bond_order
 _atom_site_hse06_10hf_magmom
 _atom_site_hse06_bader_spin_density
 _atom_site_hse06_ddec_charge
 _atom_site_hse06_ddec_spin_density
 _atom_site_hse06_ddec_sum_bond_order
 _atom_site_hse06_magmom
 _atom_site_pbe_bader_spin_density
 _atom_site_pbe_cm5_charge
 _atom_site_pbe_ddec_charge
 _atom_site_pbe_ddec_spin_density
 _atom_site_pbe_ddec_sum_bond_order
 _atom_site_pbe_magmom
Cd  Cd0  1  0.78113357  0.51522593  0.86336627  1  0  1.228314  0  1.668582  0  0  1.041591  0  2.129738  0  0  1.098081  0  2.073128  0  0  0.79687  1.000909  0  2.168872  0
Cd  Cd1  1  0.71886790  0.01522580  0.63663362  1  0  1.228334  0  1.668568  0  0  1.041599  0  2.129722  0  0  1.098092  0  2.073114  0  0  0.796869  1.000913  0  2.168854  0
Cd  Cd2  1  0.21886751  0.48477403  0.13663373  1  0  1.22835  0  1.668552  0  0  1.041621  0  2.1297  0  0  1.098112  0  2.073093  0  0  0.796886  1.000938  0  2.168832  0
Cd  Cd3  1  0.28113198  0.98477415  0.36336589  1  0  1.228324  0  1.66857  0  0  1.041604  0  2.129721  0  0  1.098096  0  2.073113  0  0  0.796881  1.000924  0  2.168855  0
Cd  Cd4  1  0.87540780  0.31342159  0.51791414  1  0  1.23698  0  1.583822  0  0  1.053438  0  2.023966  0  0  1.111793  0  1.966929  0  0  0.792962  1.011618  0  2.063315  0
Cd  Cd5  1  0.62459137  0.81342029  0.98208561  1  0  1.23696  0  1.583816  0  0  1.053403  0  2.02395  0  0  1.111759  0  1.966912  0  0  0.792962  1.011582  0  2.063297  0
Cd  Cd6  1  0.12459088  0.68657954  0.48208533  1  0  1.237012  0  1.583767  0  0  1.053455  0  2.02393  0  0  1.111811  0  1.966893  0  0  0.792979  1.011634  0  2.063279  0
Cd  Cd7  1  0.37540851  0.18657966  0.01791436  1  0  1.236957  0  1.583811  0  0  1.053404  0  2.023942  0  0  1.111758  0  1.966906  0  0  0.792965  1.011584  0  2.06329  0
H  H8  1  0.95520436  0.04591211  0.44298093  1  0  0.442332  0  0.8507  0  0  0.409151  0  0.918336  0  0  0.41994  0  0.902248  0  0  0.297899  0.401483  0  0.929769  0
H  H9  1  0.54479666  0.54591146  0.05701912  1  0  0.442376  0  0.850646  0  0  0.409183  0  0.918298  0  0  0.419972  0  0.902209  0  0  0.297924  0.401515  0  0.929732  0
H  H10  1  0.04479552  0.95408784  0.55701858  1  0  0.442355  0  0.850667  0  0  0.409171  0  0.918306  0  0  0.419961  0  0.902216  0  0  0.29791  0.401503  0  0.929741  0
H  H11  1  0.45520322  0.45408849  0.94298085  1  0  0.442347  0  0.850678  0  0  0.409167  0  0.91831  0  0  0.419957  0  0.902222  0  0  0.29792  0.4015  0  0.929744  0
H  H12  1  0.78981600  0.99116170  0.46966263  1  0  0.447915  0  0.840516  0  0  0.417562  0  0.902541  0  0  0.427327  0  0.888341  0  0  0.302696  0.410596  0  0.912677  0
H  H13  1  0.71018396  0.49116174  0.03033728  1  0  0.447884  0  0.840568  0  0  0.417531  0  0.902593  0  0  0.427295  0  0.888393  0  0  0.302691  0.410566  0  0.912728  0
H  H14  1  0.21018388  0.00883825  0.53033734  1  0  0.447904  0  0.840532  0  0  0.417555  0  0.902553  0  0  0.42732  0  0.888352  0  0  0.302698  0.410589  0  0.912688  0
H  H15  1  0.28981593  0.50884058  0.96966315  1  0  0.447879  0  0.840575  0  0  0.417527  0  0.902598  0  0  0.427293  0  0.888397  0  0  0.302688  0.410562  0  0.912734  0
H  H16  1  0.29365484  0.25885311  0.70077224  1  0  0.107527  0  0.927031  0  0  0.121355  0  0.981117  0  0  0.124335  0  0.979301  0  0  0.115116  0.119139  0  0.982588  0
H  H17  1  0.20634384  0.75885331  0.79922724  1  0  0.107626  0  0.927037  0  0  0.121452  0  0.981109  0  0  0.124433  0  0.979293  0  0  0.115155  0.119237  0  0.98258  0
H  H18  1  0.70634504  0.74114566  0.29922773  1  0  0.107475  0  0.927053  0  0  0.121318  0  0.981134  0  0  0.124298  0  0.979316  0  0  0.11509  0.119104  0  0.982605  0
H  H19  1  0.79365484  0.24114783  0.20077270  1  0  0.107543  0  0.927029  0  0  0.121364  0  0.981126  0  0  0.124344  0  0.979311  0  0  0.115121  0.119149  0  0.982596  0
H  H20  1  0.38415110  0.35864666  0.80604101  1  0  0.132856  0  0.943196  0  0  0.140393  0  1.002291  0  0  0.14504  0  0.999015  0  0  0.113968  0.136993  0  1.004862  0
H  H21  1  0.11585120  0.85864700  0.69395807  1  0  0.132897  0  0.943175  0  0  0.140424  0  1.002282  0  0  0.145071  0  0.999005  0  0  0.113973  0.137023  0  1.004854  0
H  H22  1  0.61584998  0.64135448  0.19395853  1  0  0.13287  0  0.94317  0  0  0.140388  0  1.002285  0  0  0.145034  0  0.999008  0  0  0.113963  0.136988  0  1.004856  0
H  H23  1  0.88414988  0.14135414  0.30604193  1  0  0.1329  0  0.943124  0  0  0.140394  0  1.002272  0  0  0.145041  0  0.998995  0  0  0.113967  0.136995  0  1.004845  0
H  H24  1  0.17571159  0.45873680  0.87430942  1  0  0.091075  0  0.972107  0  0  0.094446  0  1.045581  0  0  0.098473  0  1.041146  0  0  0.113158  0.091431  0  1.048941  0
H  H25  1  0.32429075  0.95873732  0.62569057  1  0  0.091094  0  0.972173  0  0  0.094478  0  1.045616  0  0  0.098501  0  1.041177  0  0  0.113164  0.091462  0  1.048978  0
H  H26  1  0.82428949  0.54126434  0.12569013  1  0  0.091067  0  0.972096  0  0  0.09445  0  1.045556  0  0  0.09848  0  1.041114  0  0  0.113141  0.091432  0  1.048926  0
H  H27  1  0.67571033  0.04126382  0.37430990  1  0  0.09106  0  0.9721  0  0  0.094442  0  1.04556  0  0  0.098471  0  1.04112  0  0  0.113139  0.091428  0  1.048924  0
H  H28  1  0.24015630  0.96093489  0.14378076  1  0  0.1185  0  0.935498  0  0  0.128816  0  0.992815  0  0  0.132056  0  0.990854  0  0  0.113914  0.126434  0  0.99431  0
H  H29  1  0.25984198  0.46093206  0.35621884  1  0  0.118508  0  0.935548  0  0  0.128825  0  0.992865  0  0  0.132065  0  0.990905  0  0  0.113915  0.126444  0  0.99436  0
H  H30  1  0.75984358  0.03906506  0.85621921  1  0  0.118496  0  0.93551  0  0  0.128813  0  0.992826  0  0  0.132054  0  0.990865  0  0  0.113911  0.126432  0  0.994319  0
H  H31  1  0.74015551  0.53907027  0.64378061  1  0  0.118486  0  0.935543  0  0  0.128822  0  0.992838  0  0  0.132062  0  0.990877  0  0  0.113892  0.12644  0  0.994332  0
H  H32  1  0.97858764  0.06187883  0.17536012  1  0  0.116132  0  0.958569  0  0  0.122905  0  1.022467  0  0  0.126504  0  1.020564  0  0  0.111916  0.120296  0  1.023981  0
H  H33  1  0.52141100  0.56187537  0.32464033  1  0  0.116064  0  0.958614  0  0  0.122876  0  1.022476  0  0  0.126476  0  1.020572  0  0  0.111909  0.120268  0  1.023989  0
H  H34  1  0.02141225  0.93812231  0.82464077  1  0  0.116123  0  0.958562  0  0  0.122901  0  1.022462  0  0  0.1265  0  1.02056  0  0  0.111941  0.120292  0  1.023975  0
H  H35  1  0.47858889  0.43812577  0.67536056  1  0  0.116127  0  0.958551  0  0  0.122899  0  1.022452  0  0  0.126498  0  1.020548  0  0  0.111911  0.120288  0  1.023962  0
H  H36  1  0.72914791  0.00496036  0.10558192  1  0  0.092546  0  0.947835  0  0  0.098313  0  1.014578  0  0  0.101704  0  1.01159  0  0  0.116593  0.095853  0  1.01673  0
H  H37  1  0.77085071  0.50496042  0.39441808  1  0  0.092511  0  0.947884  0  0  0.098292  0  1.014607  0  0  0.101683  0  1.011619  0  0  0.116558  0.095833  0  1.01676  0
H  H38  1  0.27085078  0.99504078  0.89441848  1  0  0.092556  0  0.947866  0  0  0.098323  0  1.014604  0  0  0.101714  0  1.011616  0  0  0.116587  0.095863  0  1.016757  0
H  H39  1  0.22914918  0.49503953  0.60558235  1  0  0.092572  0  0.947844  0  0  0.098363  0  1.014546  0  0  0.101754  0  1.011559  0  0  0.116595  0.095899  0  1.016697  0
C  C40  1  0.93421339  0.34116170  0.75661722  1  0  0.075275  0  3.708731  0  0  0.069984  0  3.946407  0  0  0.07154  0  3.966378  0  0  0.110054  0.068714  0  3.933121  0
C  C41  1  0.56578579  0.84116432  0.74338345  1  0  0.075263  0  3.70891  0  0  0.069958  0  3.946558  0  0  0.071506  0  3.966536  0  0  0.110044  0.068689  0  3.933271  0
C  C42  1  0.06578649  0.65883588  0.24338275  1  0  0.075221  0  3.708842  0  0  0.06992  0  3.946517  0  0  0.071477  0  3.966488  0  0  0.110037  0.068651  0  3.933232  0
C  C43  1  0.43421290  0.15883682  0.25661695  1  0  0.075259  0  3.708761  0  0  0.069955  0  3.94644  0  0  0.071511  0  3.966411  0  0  0.110041  0.068685  0  3.933156  0
C  C44  1  0.04324003  0.29735988  0.71360947  1  0  -0.067649  0  3.674983  0  0  -0.049805  0  3.909899  0  0  -0.056392  0  3.92915  0  0  0.005929  -0.045783  0  3.897342  0
C  C45  1  0.45675986  0.79736137  0.78639049  1  0  -0.067601  0  3.675005  0  0  -0.049735  0  3.909874  0  0  -0.056312  0  3.929126  0  0  0.005927  -0.045716  0  3.897317  0
C  C46  1  0.95675985  0.70263888  0.28639050  1  0  -0.067505  0  3.674923  0  0  -0.049664  0  3.909833  0  0  -0.056253  0  3.929083  0  0  0.005988  -0.045644  0  3.897279  0
C  C47  1  0.54324002  0.20263977  0.21360948  1  0  -0.067607  0  3.674966  0  0  -0.049759  0  3.909879  0  0  -0.056345  0  3.929129  0  0  0.005936  -0.045737  0  3.897323  0
C  C48  1  0.20674556  0.29884051  0.73241582  1  0  -0.028511  0  3.676003  0  0  -0.055431  0  3.922919  0  0  -0.053504  0  3.94122  0  0  -0.060246  -0.056509  0  3.910564  0
C  C49  1  0.29325434  0.79884198  0.76758459  1  0  -0.028624  0  3.676049  0  0  -0.055536  0  3.922957  0  0  -0.053619  0  3.941262  0  0  -0.060259  -0.056614  0  3.910603  0
C  C50  1  0.79325552  0.70115825  0.26758418  1  0  -0.028507  0  3.675994  0  0  -0.055447  0  3.922924  0  0  -0.053518  0  3.941224  0  0  -0.060243  -0.056524  0  3.91057  0
C  C51  1  0.70674555  0.20115916  0.23241584  1  0  -0.028588  0  3.676011  0  0  -0.055501  0  3.922926  0  0  -0.053577  0  3.941229  0  0  -0.060268  -0.056578  0  3.910572  0
C  C52  1  0.25738860  0.35337787  0.79097224  1  0  -0.089242  0  3.67545  0  0  -0.102841  0  3.929429  0  0  -0.107298  0  3.947136  0  0  -0.071598  -0.099987  0  3.917591  0
C  C53  1  0.24261251  0.85337823  0.70902820  1  0  -0.089307  0  3.675455  0  0  -0.102923  0  3.929452  0  0  -0.107379  0  3.947159  0  0  -0.071633  -0.100067  0  3.917614  0
C  C54  1  0.74261129  0.64662208  0.20902773  1  0  -0.089244  0  3.675343  0  0  -0.102825  0  3.929329  0  0  -0.107282  0  3.947035  0  0  -0.071596  -0.099969  0  3.91749  0
C  C55  1  0.75738857  0.14662172  0.29097273  1  0  -0.08923  0  3.675406  0  0  -0.102802  0  3.929393  0  0  -0.107259  0  3.9471  0  0  -0.071577  -0.099948  0  3.917557  0
C  C56  1  0.14232595  0.40803505  0.82916275  1  0  0.135591  0  3.689481  0  0  0.099309  0  3.95129  0  0  0.106297  0  3.967737  0  0  0.046195  0.094647  0  3.94011  0
C  C57  1  0.35767636  0.90803550  0.67083632  1  0  0.13562  0  3.689553  0  0  0.099349  0  3.95133  0  0  0.106347  0  3.967769  0  0  0.046234  0.094687  0  3.940149  0
C  C58  1  0.85767513  0.59196609  0.17083679  1  0  0.135589  0  3.689432  0  0  0.099294  0  3.95123  0  0  0.106285  0  3.967675  0  0  0.046209  0.094634  0  3.940045  0
C  C59  1  0.64232471  0.09196563  0.32916322  1  0  0.135608  0  3.68949  0  0  0.099327  0  3.951269  0  0  0.106317  0  3.967715  0  0  0.046228  0.094666  0  3.940087  0
C  C60  1  0.75435064  0.32114483  0.74350150  1  0  0.625694  0  3.930675  0  0  0.574418  0  4.23025  0  0  0.60859  0  4.222689  0  0  0.205931  0.551203  0  4.234532  0
C  C61  1  0.74564974  0.82114511  0.75649966  1  0  0.625582  0  3.930809  0  0  0.574343  0  4.230337  0  0  0.608517  0  4.222774  0  0  0.205853  0.551128  0  4.23462  0
C  C62  1  0.24564925  0.67885275  0.25649893  1  0  0.625597  0  3.930738  0  0  0.574345  0  4.230287  0  0  0.608517  0  4.222725  0  0  0.205872  0.551132  0  4.234571  0
C  C63  1  0.25435135  0.17885366  0.24350080  1  0  0.625587  0  3.930726  0  0  0.574332  0  4.23028  0  0  0.608504  0  4.222719  0  0  0.205865  0.551119  0  4.234563  0
C  C64  1  0.99227884  0.26466067  0.64692873  1  0  0.666084  0  3.934575  0  0  0.608917  0  4.2352  0  0  0.645155  0  4.225898  0  0  0.207852  0.584116  0  4.240818  0
C  C65  1  0.50771912  0.76465953  0.85307146  1  0  0.665981  0  3.934657  0  0  0.6088  0  4.235301  0  0  0.645033  0  4.226008  0  0  0.207773  0.584001  0  4.240917  0
C  C66  1  0.00772105  0.73533928  0.35307124  1  0  0.666005  0  3.934638  0  0  0.608842  0  4.235272  0  0  0.645082  0  4.225968  0  0  0.20782  0.584043  0  4.24089  0
C  C67  1  0.49228076  0.23534042  0.14692851  1  0  0.666049  0  3.934616  0  0  0.608877  0  4.235252  0  0  0.645116  0  4.22595  0  0  0.207805  0.584076  0  4.24087  0
C  C68  1  0.99084130  0.81143153  0.02780215  1  0  0.07831  0  3.707273  0  0  0.072409  0  3.948831  0  0  0.073932  0  3.969605  0  0  0.111056  0.071232  0  3.934959  0
C  C69  1  0.50915860  0.31142961  0.47219780  1  0  0.078476  0  3.707217  0  0  0.072563  0  3.948765  0  0  0.074089  0  3.969537  0  0  0.111079  0.071387  0  3.934894  0
C  C70  1  0.00915977  0.18856961  0.97219785  1  0  0.078431  0  3.707151  0  0  0.072534  0  3.948747  0  0  0.074058  0  3.969521  0  0  0.111056  0.071357  0  3.934873  0
C  C71  1  0.49084008  0.68856915  0.52780167  1  0  0.078477  0  3.707217  0  0  0.072568  0  3.948761  0  0  0.074095  0  3.969531  0  0  0.111135  0.071388  0  3.934893  0
C  C72  1  0.13450715  0.84342369  0.06274658  1  0  -0.114376  0  3.725261  0  0  -0.098031  0  3.971305  0  0  -0.106291  0  3.990726  0  0  -0.004337  -0.092814  0  3.958525  0
C  C73  1  0.36549230  0.34341958  0.43725354  1  0  -0.114489  0  3.725301  0  0  -0.098066  0  3.971215  0  0  -0.10633  0  3.990646  0  0  -0.004308  -0.092847  0  3.958438  0
C  C74  1  0.86549392  0.15657863  0.93725297  1  0  -0.114389  0  3.725127  0  0  -0.098102  0  3.971252  0  0  -0.106367  0  3.990686  0  0  -0.00433  -0.092883  0  3.95847  0
C  C75  1  0.63450639  0.65657800  0.56274640  1  0  -0.114326  0  3.725032  0  0  -0.097953  0  3.971028  0  0  -0.106216  0  3.990454  0  0  -0.004306  -0.092736  0  3.958249  0
C  C76  1  0.12935420  0.93431931  0.11646677  1  0  -0.014089  0  3.658012  0  0  -0.046686  0  3.917795  0  0  -0.043691  0  3.934475  0  0  -0.062506  -0.048533  0  3.906682  0
C  C77  1  0.37064528  0.43431528  0.38353286  1  0  -0.014095  0  3.657928  0  0  -0.046731  0  3.917721  0  0  -0.043735  0  3.9344  0  0  -0.062505  -0.048576  0  3.906611  0
C  C78  1  0.87064569  0.06568183  0.88353320  1  0  -0.014137  0  3.658034  0  0  -0.046721  0  3.917851  0  0  -0.043726  0  3.934533  0  0  -0.062528  -0.048566  0  3.906733  0
C  C79  1  0.62935341  0.56568704  0.61646708  1  0  -0.014165  0  3.657849  0  0  -0.046808  0  3.917654  0  0  -0.043813  0  3.934335  0  0  -0.062539  -0.048653  0  3.906538  0
C  C80  1  0.98365131  0.99138742  0.13364259  1  0  -0.078104  0  3.680046  0  0  -0.094519  0  3.939768  0  0  -0.099046  0  3.958578  0  0  -0.072653  -0.0917  0  3.9273  0
C  C81  1  0.51634745  0.49138448  0.36635729  1  0  -0.077999  0  3.679907  0  0  -0.09445  0  3.939642  0  0  -0.098976  0  3.95845  0  0  -0.072651  -0.09163  0  3.927176  0
C  C82  1  0.01634857  0.00861372  0.86635738  1  0  -0.078047  0  3.680051  0  0  -0.094476  0  3.93979  0  0  -0.099002  0  3.9586  0  0  -0.072665  -0.091656  0  3.92732  0
C  C83  1  0.48365003  0.50861665  0.63364261  1  0  -0.078101  0  3.679964  0  0  -0.094511  0  3.939683  0  0  -0.099036  0  3.958493  0  0  -0.072643  -0.091686  0  3.927207  0
C  C84  1  0.84642936  0.95944255  0.09564303  1  0  0.132984  0  3.679879  0  0  0.099128  0  3.93824  0  0  0.105821  0  3.955315  0  0  0.050649  0.094679  0  3.926622  0
C  C85  1  0.65356939  0.45944197  0.40435686  1  0  0.13294  0  3.679846  0  0  0.099076  0  3.938217  0  0  0.105769  0  3.955291  0  0  0.050653  0.094627  0  3.926601  0
C  C86  1  0.15357052  0.04055740  0.90435694  1  0  0.132918  0  3.679947  0  0  0.099067  0  3.938305  0  0  0.10576  0  3.955379  0  0  0.050612  0.094618  0  3.926687  0
C  C87  1  0.34642929  0.54055679  0.59564354  1  0  0.13297  0  3.679884  0  0  0.099111  0  3.938198  0  0  0.105804  0  3.955272  0  0  0.050637  0.094668  0  3.926575  0
C  C88  1  0.98626334  0.70538840  0.97109649  1  0  0.633302  0  3.914703  0  0  0.577754  0  4.21634  0  0  0.611625  0  4.210347  0  0  0.210149  0.554758  0  4.21957  0
C  C89  1  0.51373699  0.20538483  0.52890332  1  0  0.633402  0  3.914576  0  0  0.577835  0  4.21625  0  0  0.611704  0  4.210252  0  0  0.210189  0.554838  0  4.219481  0
C  C90  1  0.01373894  0.29461274  0.02890308  1  0  0.633358  0  3.914563  0  0  0.577823  0  4.216177  0  0  0.611691  0  4.210182  0  0  0.210183  0.554827  0  4.219407  0
C  C91  1  0.48626169  0.79461275  0.47109616  1  0  0.633311  0  3.914679  0  0  0.577765  0  4.21632  0  0  0.611633  0  4.210321  0  0  0.210159  0.55477  0  4.219551  0
C  C92  1  0.29492062  0.78251065  0.04685786  1  0  0.709133  0  3.876359  0  0  0.646215  0  4.179109  0  0  0.684794  0  4.167253  0  0  0.223844  0.619744  0  4.186555  0
C  C93  1  0.20507881  0.28250764  0.45314273  1  0  0.709141  0  3.876233  0  0  0.64627  0  4.178878  0  0  0.684848  0  4.167021  0  0  0.223817  0.619797  0  4.18634  0
C  C94  1  0.70507926  0.21749049  0.95314257  1  0  0.70911  0  3.876173  0  0  0.646233  0  4.17889  0  0  0.684811  0  4.167033  0  0  0.223812  0.61976  0  4.186342  0
C  C95  1  0.79491868  0.71749113  0.54685672  1  0  0.709148  0  3.876295  0  0  0.646269  0  4.178971  0  0  0.68485  0  4.167112  0  0  0.223867  0.619797  0  4.18642  0
N  N96  1  0.98547428  0.39923096  0.81240840  1  0  -0.369493  0  3.321436  0  0  -0.295778  0  3.588418  0  0  -0.315451  0  3.608573  0  0  -0.325232  -0.282102  0  3.574442  0
N  N97  1  0.51452731  0.89923128  0.68759232  1  0  -0.369463  0  3.321476  0  0  -0.29575  0  3.588449  0  0  -0.315421  0  3.608603  0  0  -0.325212  -0.282074  0  3.574472  0
N  N98  1  0.01452680  0.60076780  0.18759114  1  0  -0.369477  0  3.321465  0  0  -0.29576  0  3.588452  0  0  -0.315432  0  3.608606  0  0  -0.325224  -0.282083  0  3.574474  0
N  N99  1  0.48547377  0.10076867  0.31240860  1  0  -0.369482  0  3.321415  0  0  -0.295767  0  3.588398  0  0  -0.315439  0  3.608552  0  0  -0.325224  -0.282091  0  3.574424  0
N  N100  1  0.85150256  0.87221289  0.04425660  1  0  -0.343994  0  3.305755  0  0  -0.270261  0  3.565408  0  0  -0.289592  0  3.586014  0  0  -0.325578  -0.256881  0  3.551177  0
N  N101  1  0.64849616  0.37221104  0.45574331  1  0  -0.344021  0  3.305778  0  0  -0.270304  0  3.565461  0  0  -0.289634  0  3.586065  0  0  -0.325564  -0.256922  0  3.551231  0
N  N102  1  0.14849732  0.12778825  0.95574291  1  0  -0.344012  0  3.305735  0  0  -0.27027  0  3.565382  0  0  -0.2896  0  3.585986  0  0  -0.325528  -0.25689  0  3.551151  0
N  N103  1  0.35150491  0.62778891  0.54425670  1  0  -0.344127  0  3.305822  0  0  -0.270409  0  3.565495  0  0  -0.289738  0  3.586096  0  0  -0.325624  -0.257029  0  3.551266  0
O  O104  1  0.66180006  0.37935526  0.78138530  1  0  -0.619614  0  2.001402  0  0  -0.560561  0  2.251756  0  0  -0.588811  0  2.240544  0  0  -0.322561  -0.540566  0  2.258678  0
O  O105  1  0.83820153  0.87935800  0.71861635  1  0  -0.619539  0  2.001327  0  0  -0.560509  0  2.251674  0  0  -0.588758  0  2.240463  0  0  -0.322502  -0.540514  0  2.258595  0
O  O106  1  0.33820103  0.62064114  0.21861609  1  0  -0.619561  0  2.001345  0  0  -0.560529  0  2.251702  0  0  -0.588777  0  2.240491  0  0  -0.322525  -0.540534  0  2.258625  0
O  O107  1  0.16179955  0.12064076  0.28138412  1  0  -0.619563  0  2.001368  0  0  -0.560525  0  2.251724  0  0  -0.588774  0  2.240515  0  0  -0.322537  -0.54053  0  2.258645  0
O  O108  1  0.85687173  0.08242457  0.46036851  1  0  -0.860478  0  1.923569  0  0  -0.800739  0  2.132532  0  0  -0.822551  0  2.097994  0  0  -0.591521  -0.785215  0  2.156545  0
O  O109  1  0.64312930  0.58242280  0.03963154  1  0  -0.860504  0  1.923601  0  0  -0.800749  0  2.132573  0  0  -0.822567  0  2.098046  0  0  -0.591543  -0.78521  0  2.156557  0
O  O110  1  0.14312935  0.91757538  0.53963149  1  0  -0.860492  0  1.923572  0  0  -0.800764  0  2.132544  0  0  -0.822573  0  2.098002  0  0  -0.59154  -0.785226  0  2.156529  0
O  O111  1  0.35686938  0.41757715  0.96036794  1  0  -0.860463  0  1.923609  0  0  -0.800734  0  2.132582  0  0  -0.822546  0  2.098045  0  0  -0.591541  -0.785201  0  2.156578  0
O  O112  1  0.70619673  0.24730600  0.69508506  1  0  -0.645156  0  2.059986  0  0  -0.585419  0  2.321244  0  0  -0.613657  0  2.310488  0  0  -0.327999  -0.565429  0  2.327913  0
O  O113  1  0.79380362  0.74730503  0.80491612  1  0  -0.645146  0  2.060108  0  0  -0.585417  0  2.321351  0  0  -0.613657  0  2.310593  0  0  -0.327996  -0.565428  0  2.328024  0
O  O114  1  0.29380196  0.75269396  0.30491534  1  0  -0.645135  0  2.060055  0  0  -0.585397  0  2.321286  0  0  -0.613636  0  2.310533  0  0  -0.327992  -0.565408  0  2.327958  0
O  O115  1  0.20619746  0.25269374  0.19508434  1  0  -0.645148  0  2.060036  0  0  -0.585407  0  2.321268  0  0  -0.613649  0  2.310517  0  0  -0.327981  -0.565417  0  2.327938  0
O  O116  1  0.98319701  0.12433150  0.62644156  1  0  -0.648902  0  2.006527  0  0  -0.58256  0  2.252839  0  0  -0.60999  0  2.239417  0  0  -0.323374  -0.563029  0  2.26143  0
O  O117  1  0.51680449  0.62433152  0.87355784  1  0  -0.648864  0  2.006579  0  0  -0.582523  0  2.2529  0  0  -0.609952  0  2.239482  0  0  -0.323346  -0.56299  0  2.261489  0
O  O118  1  0.01680526  0.87566845  0.37355755  1  0  -0.648867  0  2.006571  0  0  -0.582524  0  2.252879  0  0  -0.609954  0  2.23946  0  0  -0.323351  -0.562989  0  2.261467  0
O  O119  1  0.48319539  0.37566844  0.12644213  1  0  -0.648874  0  2.006578  0  0  -0.582526  0  2.252878  0  0  -0.609955  0  2.239459  0  0  -0.323351  -0.562993  0  2.261467  0
O  O120  1  0.96946102  0.38940895  0.61411441  1  0  -0.631717  0  2.000012  0  0  -0.565149  0  2.247138  0  0  -0.596493  0  2.237051  0  0  -0.316036  -0.543083  0  2.253348  0
O  O121  1  0.53054056  0.88940896  0.88588539  1  0  -0.631689  0  2.000009  0  0  -0.565102  0  2.247126  0  0  -0.596448  0  2.237045  0  0  -0.316002  -0.543035  0  2.253337  0
O  O122  1  0.03054125  0.61058981  0.38588517  1  0  -0.631708  0  2.000022  0  0  -0.565132  0  2.247139  0  0  -0.596477  0  2.237053  0  0  -0.316023  -0.543067  0  2.253352  0
O  O123  1  0.46945932  0.11059099  0.11411458  1  0  -0.631702  0  1.999998  0  0  -0.565122  0  2.247114  0  0  -0.596468  0  2.237029  0  0  -0.316002  -0.543054  0  2.253325  0
O  O124  1  0.84789534  0.68699453  0.94191669  1  0  -0.675949  0  2.151571  0  0  -0.589401  0  2.426361  0  0  -0.623686  0  2.414448  0  0  -0.326554  -0.565092  0  2.433416  0
O  O125  1  0.65210618  0.18699452  0.55808317  1  0  -0.676013  0  2.151543  0  0  -0.589454  0  2.426332  0  0  -0.623748  0  2.414443  0  0  -0.326576  -0.565143  0  2.433386  0
O  O126  1  0.15210574  0.31300542  0.05808286  1  0  -0.675978  0  2.151558  0  0  -0.58943  0  2.42633  0  0  -0.623718  0  2.414433  0  0  -0.326562  -0.565121  0  2.433386  0
O  O127  1  0.34789489  0.81300544  0.44191592  1  0  -0.675985  0  2.15158  0  0  -0.589417  0  2.42631  0  0  -0.623723  0  2.414452  0  0  -0.326584  -0.565109  0  2.433367  0
O  O128  1  0.11278874  0.64220680  0.95650972  1  0  -0.5866  0  1.958866  0  0  -0.537276  0  2.185133  0  0  -0.561171  0  2.17691  0  0  -0.299938  -0.520464  0  2.190225  0
O  O129  1  0.38721350  0.14220451  0.54348942  1  0  -0.58664  0  1.958807  0  0  -0.537331  0  2.185114  0  0  -0.561223  0  2.176888  0  0  -0.29994  -0.520524  0  2.190214  0
O  O130  1  0.88721114  0.35779434  0.04348933  1  0  -0.586649  0  1.958733  0  0  -0.537332  0  2.184999  0  0  -0.561226  0  2.176776  0  0  -0.299953  -0.520524  0  2.190101  0
O  O131  1  0.61278758  0.85779189  0.45651012  1  0  -0.586594  0  1.958857  0  0  -0.537282  0  2.185133  0  0  -0.561173  0  2.176907  0  0  -0.299918  -0.520474  0  2.190238  0
O  O132  1  0.37901308  0.87352499  0.01517567  1  0  -0.66081  0  2.054419  0  0  -0.582651  0  2.322409  0  0  -0.615488  0  2.30798  0  0  -0.31466  -0.559455  0  2.33158  0
O  O133  1  0.12098758  0.37352427  0.48482447  1  0  -0.660792  0  2.054379  0  0  -0.582645  0  2.322338  0  0  -0.615482  0  2.307909  0  0  -0.314642  -0.559439  0  2.331495  0
O  O134  1  0.62098800  0.12647497  0.98482433  1  0  -0.660779  0  2.054342  0  0  -0.582613  0  2.322308  0  0  -0.61545  0  2.307877  0  0  -0.314635  -0.559416  0  2.331482  0
O  O135  1  0.87901231  0.62647449  0.51517551  1  0  -0.660803  0  2.054333  0  0  -0.582686  0  2.322351  0  0  -0.615523  0  2.30792  0  0  -0.314673  -0.559486  0  2.331512  0
O  O136  1  0.34089294  0.65070332  0.06949976  1  0  -0.635874  0  2.073644  0  0  -0.558983  0  2.323317  0  0  -0.589882  0  2.31036  0  0  -0.301979  -0.53721  0  2.331524  0
O  O137  1  0.15910525  0.15070152  0.43049991  1  0  -0.635867  0  2.073493  0  0  -0.559036  0  2.323209  0  0  -0.589927  0  2.310243  0  0  -0.30198  -0.537258  0  2.331405  0
O  O138  1  0.65910694  0.34929782  0.93050021  1  0  -0.635868  0  2.073544  0  0  -0.559019  0  2.323253  0  0  -0.589911  0  2.31029  0  0  -0.30199  -0.537251  0  2.331475  0
O  O139  1  0.84089344  0.84929724  0.56950003  1  0  -0.635931  0  2.073678  0  0  -0.559038  0  2.323315  0  0  -0.589939  0  2.310357  0  0  -0.302  -0.537262  0  2.33152  0
