# generated using pymatgen
data_ZnP2H16C17(NO3)2
_symmetry_space_group_name_H-M   'P 1'
_cell_length_a   8.55449254
_cell_length_b   9.04244133
_cell_length_c   12.29727591
_cell_angle_alpha   95.44764447
_cell_angle_beta   107.06706427
_cell_angle_gamma   102.47829763
_symmetry_Int_Tables_number   1
_chemical_formula_structural   ZnP2H16C17(NO3)2
_chemical_formula_sum   'Zn2 P4 H32 C34 N4 O12'
_cell_volume   874.99531940
_cell_formula_units_Z   2
loop_
 _symmetry_equiv_pos_site_id
 _symmetry_equiv_pos_as_xyz
  1  'x, y, z'
loop_
 _atom_site_type_symbol
 _atom_site_label
 _atom_site_symmetry_multiplicity
 _atom_site_fract_x
 _atom_site_fract_y
 _atom_site_fract_z
 _atom_site_occupancy
 _atom_site_hle17_bader_spin_density
 _atom_site_hle17_ddec_charge
 _atom_site_hle17_ddec_spin_density
 _atom_site_hle17_ddec_sum_bond_order
 _atom_site_hle17_magmom
 _atom_site_hse06_10hf_bader_spin_density
 _atom_site_hse06_10hf_ddec_charge
 _atom_site_hse06_10hf_ddec_spin_density
 _atom_site_hse06_10hf_ddec_sum_bond_order
 _atom_site_hse06_10hf_magmom
 _atom_site_hse06_bader_spin_density
 _atom_site_hse06_ddec_charge
 _atom_site_hse06_ddec_spin_density
 _atom_site_hse06_ddec_sum_bond_order
 _atom_site_hse06_magmom
 _atom_site_pbe_bader_spin_density
 _atom_site_pbe_cm5_charge
 _atom_site_pbe_ddec_charge
 _atom_site_pbe_ddec_spin_density
 _atom_site_pbe_ddec_sum_bond_order
 _atom_site_pbe_magmom
Zn  Zn0  1  0.67991837  0.64957173  0.89000172  1  0  1.113148  0  1.827188  0  0  0.931942  0  2.295273  0  0  0.975813  0  2.24011  0  0  0.716119  0.901702  0  2.332309  0
Zn  Zn1  1  0.32008007  0.35042499  0.11000010  1  0  1.11313  0  1.82725  0  0  0.931931  0  2.295342  0  0  0.975803  0  2.240181  0  0  0.716104  0.901687  0  2.33238  0
P  P2  1  0.65685661  0.46192423  0.65334936  1  0  1.459633  0  4.808421  0  0  1.293771  0  5.307354  0  0  1.344165  0  5.267675  0  0  0.364596  1.258934  0  5.33344  0
P  P3  1  0.34313822  0.53807698  0.34664791  1  0  1.459504  0  4.808306  0  0  1.293629  0  5.307278  0  0  1.344033  0  5.267596  0  0  0.364607  1.258794  0  5.333367  0
P  P4  1  0.31179995  0.42007412  0.85333235  1  0  1.472887  0  4.809815  0  0  1.315575  0  5.301638  0  0  1.366428  0  5.261925  0  0  0.360845  1.280032  0  5.32904  0
P  P5  1  0.68819791  0.57992488  0.14666867  1  0  1.472909  0  4.809968  0  0  1.315582  0  5.301811  0  0  1.366438  0  5.2621  0  0  0.360869  1.280039  0  5.329211  0
H  H6  1  0.43516629  0.35625821  0.49192717  1  0  0.4477  0  0.859961  0  0  0.410609  0  0.932357  0  0  0.42296  0  0.914971  0  0  0.301636  0.40189  0  0.944623  0
H  H7  1  0.56482945  0.64374186  0.50807022  1  0  0.447643  0  0.86004  0  0  0.41053  0  0.932475  0  0  0.422879  0  0.915094  0  0  0.301589  0.401812  0  0.944743  0
H  H8  1  0.50978259  0.34296996  0.80608315  1  0  0.4273  0  0.874373  0  0  0.396273  0  0.942137  0  0  0.407543  0  0.92597  0  0  0.307944  0.388455  0  0.953274  0
H  H9  1  0.49021218  0.65702673  0.19391709  1  0  0.427309  0  0.874404  0  0  0.396287  0  0.942123  0  0  0.407558  0  0.925953  0  0  0.307955  0.388468  0  0.953264  0
H  H10  1  0.39210078  0.78757270  0.77871000  1  0  0.0868  0  0.963108  0  0  0.094263  0  1.028542  0  0  0.09673  0  1.026622  0  0  0.116839  0.09247  0  1.029832  0
H  H11  1  0.60789870  0.21243202  0.22129087  1  0  0.086816  0  0.963101  0  0  0.094282  0  1.028532  0  0  0.096743  0  1.026628  0  0  0.116838  0.092489  0  1.029821  0
H  H12  1  0.34935646  0.98315243  0.64505928  1  0  0.108473  0  0.942885  0  0  0.121261  0  0.996961  0  0  0.123899  0  0.997008  0  0  0.11313  0.119304  0  0.997249  0
H  H13  1  0.65065093  0.01684997  0.35494146  1  0  0.108434  0  0.942926  0  0  0.121204  0  0.997036  0  0  0.123838  0  0.997088  0  0  0.113105  0.119246  0  0.997324  0
H  H14  1  0.60036041  0.12977153  0.60206659  1  0  0.10191  0  0.983809  0  0  0.110107  0  1.045961  0  0  0.112499  0  1.044621  0  0  0.108506  0.108178  0  1.04699  0
H  H15  1  0.39964633  0.87022855  0.39793307  1  0  0.10189  0  0.983862  0  0  0.110086  0  1.046024  0  0  0.11247  0  1.044694  0  0  0.108487  0.108157  0  1.047054  0
H  H16  1  0.88551325  0.09435696  0.70210336  1  0  0.103939  0  0.972145  0  0  0.112071  0  1.037051  0  0  0.11384  0  1.038938  0  0  0.107707  0.11105  0  1.035396  0
H  H17  1  0.11449131  0.90563978  0.29790054  1  0  0.103926  0  0.972198  0  0  0.112066  0  1.037095  0  0  0.113834  0  1.038985  0  0  0.107708  0.111045  0  1.035439  0
H  H18  1  0.11556071  0.09580541  0.83008548  1  0  0.113417  0  0.96436  0  0  0.122095  0  1.027522  0  0  0.125068  0  1.026672  0  0  0.111201  0.120144  0  1.027886  0
H  H19  1  0.88443658  0.90419596  0.16991881  1  0  0.113397  0  0.964443  0  0  0.122087  0  1.027598  0  0  0.125065  0  1.026743  0  0  0.111177  0.120135  0  1.027962  0
H  H20  1  0.37659147  0.02976827  0.93623803  1  0  0.09687  0  0.94621  0  0  0.109104  0  1.006432  0  0  0.111274  0  1.00527  0  0  0.110692  0.107491  0  1.007213  0
H  H21  1  0.62340337  0.97023308  0.06376494  1  0  0.096889  0  0.946164  0  0  0.109101  0  1.006404  0  0  0.111301  0  1.005208  0  0  0.110689  0.107488  0  1.007185  0
H  H22  1  0.35420343  0.78720828  0.02683019  1  0  0.121698  0  0.949032  0  0  0.131272  0  1.007992  0  0  0.134539  0  1.006823  0  0  0.111998  0.128935  0  1.009011  0
H  H23  1  0.64579810  0.21279064  0.97316833  1  0  0.121686  0  0.949035  0  0  0.131263  0  1.007992  0  0  0.134532  0  1.006819  0  0  0.112002  0.128927  0  1.009012  0
H  H24  1  0.06597981  0.63334488  0.01037117  1  0  0.087333  0  0.927656  0  0  0.097311  0  0.989147  0  0  0.099688  0  0.986795  0  0  0.121759  0.095739  0  0.990526  0
H  H25  1  0.93402499  0.36664825  0.98962525  1  0  0.087309  0  0.927725  0  0  0.097282  0  0.989219  0  0  0.099657  0  0.986876  0  0  0.12175  0.095712  0  0.990595  0
H  H26  1  0.87272756  0.21915756  0.33530542  1  0  0.10027  0  0.96969  0  0  0.121857  0  1.032632  0  0  0.122613  0  1.033871  0  0  0.086172  0.121083  0  1.03217  0
H  H27  1  0.12727403  0.78084594  0.66469257  1  0  0.100268  0  0.969772  0  0  0.121869  0  1.032678  0  0  0.122626  0  1.033917  0  0  0.086151  0.121096  0  1.032217  0
H  H28  1  0.96775658  0.08394829  0.40805259  1  0  0.097461  0  0.948802  0  0  0.119243  0  1.012682  0  0  0.120109  0  1.012998  0  0  0.085666  0.119491  0  1.010848  0
H  H29  1  0.03224347  0.91605406  0.59194500  1  0  0.097487  0  0.948843  0  0  0.119261  0  1.012721  0  0  0.120125  0  1.013039  0  0  0.085672  0.119509  0  1.010887  0
H  H30  1  0.09653739  0.25474617  0.38917343  1  0  0.131813  0  0.976832  0  0  0.150145  0  1.038626  0  0  0.152139  0  1.038533  0  0  0.091475  0.14859  0  1.038766  0
H  H31  1  0.90346421  0.74525735  0.61082537  1  0  0.131873  0  0.976815  0  0  0.150181  0  1.038627  0  0  0.152177  0  1.038528  0  0  0.091482  0.148624  0  1.038768  0
H  H32  1  0.23545008  0.27754237  0.61069629  1  0  0.106309  0  0.966436  0  0  0.116283  0  1.028891  0  0  0.119974  0  1.02618  0  0  0.101843  0.11354  0  1.030822  0
H  H33  1  0.76455087  0.72245888  0.38930387  1  0  0.106286  0  0.96646  0  0  0.11627  0  1.028902  0  0  0.119961  0  1.026188  0  0  0.101839  0.113527  0  1.030828  0
H  H34  1  0.98381024  0.47828801  0.81932785  1  0  0.086861  0  0.981171  0  0  0.093684  0  1.055407  0  0  0.096403  0  1.053892  0  0  0.100045  0.091658  0  1.056582  0
H  H35  1  0.01618614  0.52171439  0.18067143  1  0  0.086843  0  0.981199  0  0  0.09366  0  1.055444  0  0  0.096385  0  1.053918  0  0  0.100052  0.091634  0  1.05662  0
H  H36  1  0.72921210  0.31991769  0.45587166  1  0  0.090422  0  0.962534  0  0  0.10087  0  1.028194  0  0  0.103738  0  1.027045  0  0  0.100665  0.098642  0  1.029246  0
H  H37  1  0.27078518  0.68008353  0.54412611  1  0  0.090433  0  0.962566  0  0  0.100863  0  1.028235  0  0  0.103731  0  1.027088  0  0  0.100681  0.098639  0  1.029286  0
C  C38  1  0.49663177  0.86114130  0.75997378  1  0  0.13613  0  3.694618  0  0  0.102055  0  3.950368  0  0  0.109168  0  3.967816  0  0  0.052454  0.097483  0  3.938508  0
C  C39  1  0.50336860  0.13886226  0.24002639  1  0  0.136125  0  3.694612  0  0  0.10206  0  3.950358  0  0  0.109171  0  3.967804  0  0  0.052444  0.097487  0  3.938498  0
C  C40  1  0.47453009  0.96691336  0.68535867  1  0  -0.103832  0  3.699575  0  0  -0.1155  0  3.949981  0  0  -0.12262  0  3.970939  0  0  -0.074392  -0.111144  0  3.936088  0
C  C41  1  0.52547666  0.03308674  0.31464181  1  0  -0.103722  0  3.699504  0  0  -0.115401  0  3.949934  0  0  -0.122518  0  3.970886  0  0  -0.074313  -0.111046  0  3.936043  0
C  C42  1  0.61539263  0.04944737  0.66240736  1  0  0.015202  0  3.685263  0  0  -0.004154  0  3.930297  0  0  5.4e-05  0  3.948111  0  0  -0.060453  -0.006378  0  3.917785  0
C  C43  1  0.38461534  0.95055274  0.33759418  1  0  0.015189  0  3.685336  0  0  -0.004155  0  3.930348  0  0  6e-05  0  3.948163  0  0  -0.060486  -0.006381  0  3.917838  0
C  C44  1  0.77429960  0.02956609  0.71859358  1  0  -0.125653  0  3.670924  0  0  -0.141581  0  3.913563  0  0  -0.149018  0  3.935475  0  0  -0.07088  -0.137193  0  3.898992  0
C  C45  1  0.22570316  0.97043294  0.28141007  1  0  -0.125727  0  3.670875  0  0  -0.141649  0  3.913529  0  0  -0.149086  0  3.935441  0  0  -0.070895  -0.137262  0  3.898959  0
C  C46  1  0.78786326  0.92409758  0.79462225  1  0  0.187762  0  3.762123  0  0  0.180323  0  4.00216  0  0  0.187584  0  4.021999  0  0  0.126049  0.1755  0  3.989079  0
C  C47  1  0.21213640  0.07589914  0.20537982  1  0  0.187951  0  3.761856  0  0  0.180473  0  4.001931  0  0  0.187734  0  4.021769  0  0  0.126108  0.175651  0  3.988849  0
C  C48  1  0.95098539  0.89472491  0.85808292  1  0  0.170832  0  3.768486  0  0  0.168646  0  4.005634  0  0  0.174524  0  4.026199  0  0  0.122689  0.164538  0  3.992013  0
C  C49  1  0.04901550  0.10527177  0.14191777  1  0  0.170692  0  3.768372  0  0  0.168528  0  4.00553  0  0  0.174405  0  4.026097  0  0  0.12262  0.16442  0  3.991909  0
C  C50  1  0.10759640  0.99150444  0.86766838  1  0  -0.1237  0  3.677815  0  0  -0.14185  0  3.924671  0  0  -0.147756  0  3.944773  0  0  -0.072661  -0.137975  0  3.910724  0
C  C51  1  0.89239837  0.00849225  0.13233187  1  0  -0.12366  0  3.677706  0  0  -0.141825  0  3.92454  0  0  -0.147736  0  3.944656  0  0  -0.072596  -0.137951  0  3.910592  0
C  C52  1  0.25467867  0.95436384  0.92893939  1  0  -0.00777  0  3.718776  0  0  -0.029672  0  3.976555  0  0  -0.026756  0  3.995222  0  0  -0.065289  -0.030925  0  3.963075  0
C  C53  1  0.74531829  0.04563627  0.07105988  1  0  -0.007776  0  3.718683  0  0  -0.029654  0  3.976458  0  0  -0.026764  0  3.995125  0  0  -0.065265  -0.030908  0  3.962977  0
C  C54  1  0.24291009  0.82263545  0.97987759  1  0  -0.102354  0  3.682985  0  0  -0.118501  0  3.938362  0  0  -0.124515  0  3.959332  0  0  -0.075618  -0.114305  0  3.923607  0
C  C55  1  0.75709177  0.17736462  0.02012106  1  0  -0.102296  0  3.682979  0  0  -0.118448  0  3.938348  0  0  -0.124462  0  3.959327  0  0  -0.075618  -0.114254  0  3.923594  0
C  C56  1  0.08213846  0.73446036  0.96904186  1  0  0.151631  0  3.676543  0  0  0.121438  0  3.931331  0  0  0.127921  0  3.948822  0  0  0.058499  0.117446  0  3.918936  0
C  C57  1  0.91786796  0.26553859  0.03095848  1  0  0.1516  0  3.676646  0  0  0.12142  0  3.931425  0  0  0.127901  0  3.948917  0  0  0.058481  0.117428  0  3.91903  0
C  C58  1  0.97882918  0.20757526  0.40693386  1  0  -0.350417  0  3.729317  0  0  -0.431164  0  3.963084  0  0  -0.434257  0  3.973892  0  0  -0.248286  -0.428885  0  3.955077  0
C  C59  1  0.02117152  0.79242948  0.59306808  1  0  -0.350519  0  3.729371  0  0  -0.431224  0  3.963129  0  0  -0.434318  0  3.973936  0  0  -0.248275  -0.428945  0  3.955122  0
C  C60  1  0.98101681  0.28803536  0.52030480  1  0  0.143657  0  3.73933  0  0  0.175294  0  3.975664  0  0  0.174848  0  4.00034  0  0  -0.007719  0.175491  0  3.958017  0
C  C61  1  0.01898569  0.71196701  0.47969412  1  0  0.143731  0  3.739233  0  0  0.175317  0  3.975643  0  0  0.17487  0  4.000321  0  0  -0.007719  0.175513  0  3.957998  0
C  C62  1  0.12471063  0.31333231  0.61845818  1  0  -0.098161  0  3.700358  0  0  -0.130067  0  3.940611  0  0  -0.129696  0  3.959844  0  0  -0.085257  -0.129835  0  3.92651  0
C  C63  1  0.87529090  0.68666663  0.38154115  1  0  -0.098226  0  3.700403  0  0  -0.130114  0  3.940698  0  0  -0.129736  0  3.95992  0  0  -0.085279  -0.129879  0  3.926594  0
C  C64  1  0.12817213  0.38453709  0.72563366  1  0  -0.249105  0  3.796348  0  0  -0.203922  0  4.040182  0  0  -0.214139  0  4.061959  0  0  -0.030571  -0.197345  0  4.026218  0
C  C65  1  0.87182760  0.61546417  0.27436625  1  0  -0.249007  0  3.796491  0  0  -0.203864  0  4.040372  0  0  -0.21408  0  4.062153  0  0  -0.03054  -0.197286  0  4.026407  0
C  C66  1  0.98486936  0.42886724  0.73550023  1  0  -0.023144  0  3.758058  0  0  -0.060826  0  4.003266  0  0  -0.058568  0  4.024455  0  0  -0.082021  -0.062312  0  3.989342  0
C  C67  1  0.01512515  0.57113285  0.26449772  1  0  -0.023102  0  3.758238  0  0  -0.060746  0  4.003475  0  0  -0.058481  0  4.024652  0  0  -0.081978  -0.062234  0  3.989551  0
C  C68  1  0.84136901  0.40598444  0.63877154  1  0  -0.24641  0  3.798176  0  0  -0.200194  0  4.040933  0  0  -0.210246  0  4.063154  0  0  -0.028339  -0.193952  0  4.026077  0
C  C69  1  0.15862615  0.59401791  0.36122505  1  0  -0.246315  0  3.798239  0  0  -0.200191  0  4.041132  0  0  -0.210244  0  4.063356  0  0  -0.028377  -0.19395  0  4.026278  0
C  C70  1  0.84130483  0.33734949  0.53144731  1  0  -0.097322  0  3.71436  0  0  -0.128261  0  3.953121  0  0  -0.128575  0  3.974337  0  0  -0.08268  -0.128007  0  3.938879  0
C  C71  1  0.15869490  0.66265175  0.46855178  1  0  -0.097396  0  3.714359  0  0  -0.128284  0  3.953179  0  0  -0.128599  0  3.974399  0  0  -0.082686  -0.128034  0  3.938943  0
N  N72  1  0.64937849  0.84014423  0.81263890  1  0  -0.367405  0  3.311384  0  0  -0.290603  0  3.58302  0  0  -0.309374  0  3.597694  0  0  -0.323801  -0.278077  0  3.572651  0
N  N73  1  0.35061938  0.15985478  0.18736293  1  0  -0.367556  0  3.31155  0  0  -0.290743  0  3.583216  0  0  -0.309514  0  3.597887  0  0  -0.323857  -0.278218  0  3.572848  0
N  N74  1  0.94027029  0.76876626  0.90888870  1  0  -0.35876  0  3.252504  0  0  -0.291349  0  3.518555  0  0  -0.308489  0  3.534661  0  0  -0.31357  -0.27987  0  3.507501  0
N  N75  1  0.05973182  0.23123044  0.09111306  1  0  -0.358649  0  3.252573  0  0  -0.291255  0  3.51862  0  0  -0.308393  0  3.534726  0  0  -0.313518  -0.279777  0  3.507566  0
O  O76  1  0.65426503  0.61801781  0.61804742  1  0  -0.825636  0  1.98376  0  0  -0.747221  0  2.223376  0  0  -0.773234  0  2.206391  0  0  -0.364694  -0.728472  0  2.234163  0
O  O77  1  0.34573251  0.38197993  0.38194858  1  0  -0.825625  0  1.983743  0  0  -0.747207  0  2.223363  0  0  -0.773203  0  2.206341  0  0  -0.364685  -0.728459  0  2.234147  0
O  O78  1  0.49882477  0.33202255  0.57386058  1  0  -0.768278  0  2.028845  0  0  -0.689993  0  2.255159  0  0  -0.712191  0  2.230655  0  0  -0.382618  -0.674261  0  2.271643  0
O  O79  1  0.50117651  0.66797982  0.42613808  1  0  -0.768235  0  2.028846  0  0  -0.689918  0  2.255151  0  0  -0.712109  0  2.230643  0  0  -0.382599  -0.674188  0  2.271633  0
O  O80  1  0.66417911  0.45689909  0.77993078  1  0  -0.854465  0  2.040751  0  0  -0.755352  0  2.314289  0  0  -0.783293  0  2.291066  0  0  -0.366276  -0.736326  0  2.329153  0
O  O81  1  0.33581508  0.54309981  0.22006541  1  0  -0.854455  0  2.04081  0  0  -0.755301  0  2.314311  0  0  -0.783281  0  2.291131  0  0  -0.366306  -0.736256  0  2.329122  0
O  O82  1  0.42271202  0.58129738  0.86740871  1  0  -0.859549  0  2.014963  0  0  -0.773308  0  2.297373  0  0  -0.800909  0  2.275149  0  0  -0.373721  -0.754084  0  2.312276  0
O  O83  1  0.57728494  0.41870276  0.13259219  1  0  -0.859553  0  2.014962  0  0  -0.773313  0  2.297397  0  0  -0.800912  0  2.275171  0  0  -0.373752  -0.75409  0  2.312297  0
O  O84  1  0.41166981  0.29490310  0.83268592  1  0  -0.745947  0  1.989853  0  0  -0.679449  0  2.216856  0  0  -0.699405  0  2.191887  0  0  -0.392705  -0.665702  0  2.234099  0
O  O85  1  0.58832529  0.70509476  0.16731528  1  0  -0.745937  0  1.989897  0  0  -0.679443  0  2.216875  0  0  -0.699394  0  2.191904  0  0  -0.392694  -0.665699  0  2.234109  0
O  O86  1  0.23886633  0.38522834  0.94976018  1  0  -0.851516  0  2.048849  0  0  -0.762496  0  2.352226  0  0  -0.79045  0  2.327679  0  0  -0.376966  -0.74271  0  2.368016  0
O  O87  1  0.76112844  0.61476834  0.05023925  1  0  -0.8516  0  2.049096  0  0  -0.762528  0  2.352426  0  0  -0.790493  0  2.327885  0  0  -0.376982  -0.742741  0  2.368213  0
