# generated using pymatgen
data_Cd2H9C11N3O8
_symmetry_space_group_name_H-M   'P 1'
_cell_length_a   6.89121238
_cell_length_b   10.40771485
_cell_length_c   22.11739109
_cell_angle_alpha   89.99985672
_cell_angle_beta   90.00030935
_cell_angle_gamma   89.99999154
_symmetry_Int_Tables_number   1
_chemical_formula_structural   Cd2H9C11N3O8
_chemical_formula_sum   'Cd8 H36 C44 N12 O32'
_cell_volume   1586.29851238
_cell_formula_units_Z   4
loop_
 _symmetry_equiv_pos_site_id
 _symmetry_equiv_pos_as_xyz
  1  'x, y, z'
loop_
 _atom_site_type_symbol
 _atom_site_label
 _atom_site_symmetry_multiplicity
 _atom_site_fract_x
 _atom_site_fract_y
 _atom_site_fract_z
 _atom_site_occupancy
 _atom_site_pbe_bader_spin_density
 _atom_site_pbe_cm5_charge
 _atom_site_pbe_ddec_charge
 _atom_site_pbe_ddec_spin_density
 _atom_site_pbe_ddec_sum_bond_order
 _atom_site_pbe_magmom
Cd  Cd0  1  0.88852488  0.39894005  0.91512744  1  0  0.784678  0.939492  0  2.22045  0
Cd  Cd1  1  0.38852582  0.60105928  0.58487231  1  0  0.784663  0.939381  0  2.220548  0
Cd  Cd2  1  0.11147449  0.10105854  0.41512630  1  0  0.784643  0.939396  0  2.220506  0
Cd  Cd3  1  0.61147502  0.89894156  0.08487393  1  0  0.784661  0.939451  0  2.220453  0
Cd  Cd4  1  0.57632508  0.62728916  0.83212630  1  0  0.78454  0.956443  0  2.137741  0
Cd  Cd5  1  0.07632461  0.37270828  0.66787563  1  0  0.784552  0.956467  0  2.137695  0
Cd  Cd6  1  0.42367419  0.87270748  0.33212356  1  0  0.784547  0.956458  0  2.137718  0
Cd  Cd7  1  0.92367488  0.12729259  0.16787585  1  0  0.784584  0.956541  0  2.137711  0
H  H8  1  0.15142304  0.55999731  0.99693881  1  0  0.31947  0.396653  0  0.883204  0
H  H9  1  0.65143099  0.44001357  0.50306099  1  0  0.319378  0.396575  0  0.883356  0
H  H10  1  0.84856599  0.94001191  0.49693762  1  0  0.319409  0.396651  0  0.883212  0
H  H11  1  0.34856568  0.05998625  0.00306030  1  0  0.319411  0.39661  0  0.883302  0
H  H12  1  0.23327167  0.52693546  0.93315335  1  0  0.29105  0.379772  0  0.9589  0
H  H13  1  0.73327489  0.47306868  0.56684840  1  0  0.291032  0.379787  0  0.958875  0
H  H14  1  0.76672353  0.97306833  0.43315017  1  0  0.291026  0.379771  0  0.95888  0
H  H15  1  0.26672287  0.02692983  0.06684761  1  0  0.291041  0.379801  0  0.958849  0
H  H16  1  0.21161292  0.40211483  0.84652112  1  0  0.295094  0.38635  0  0.938003  0
H  H17  1  0.71161180  0.59788644  0.65348194  1  0  0.295099  0.386425  0  0.937958  0
H  H18  1  0.78838672  0.09788605  0.34651843  1  0  0.295094  0.386421  0  0.93796  0
H  H19  1  0.28838296  0.90211403  0.15347803  1  0  0.295054  0.386287  0  0.938038  0
H  H20  1  0.11076685  0.28158797  0.81639278  1  0  0.28664  0.392714  0  0.947121  0
H  H21  1  0.61076041  0.71841138  0.68360966  1  0  0.28661  0.392714  0  0.947104  0
H  H22  1  0.88923228  0.21841210  0.31639011  1  0  0.286669  0.392808  0  0.946975  0
H  H23  1  0.38923051  0.78158605  0.18360652  1  0  0.286641  0.392747  0  0.947085  0
H  H24  1  0.69130583  0.07688851  0.93852579  1  0  0.137843  0.107137  0  0.983711  0
H  H25  1  0.19130339  0.92310507  0.56147317  1  0  0.137855  0.107133  0  0.983677  0
H  H26  1  0.30869249  0.42311091  0.43852506  1  0  0.137823  0.107145  0  0.983737  0
H  H27  1  0.80869124  0.57688917  0.06147550  1  0  0.137828  0.107136  0  0.983763  0
H  H28  1  0.04702548  0.30700578  0.04867920  1  0  0.136638  0.11281  0  0.987749  0
H  H29  1  0.54702653  0.69299240  0.45132047  1  0  0.136658  0.112881  0  0.987654  0
H  H30  1  0.95296761  0.19299572  0.54867662  1  0  0.136603  0.112793  0  0.987797  0
H  H31  1  0.45297188  0.80700649  0.95132188  1  0  0.136622  0.112814  0  0.987779  0
H  H32  1  0.08915389  0.89581543  0.66439527  1  0  0.105211  0.109005  0  1.023714  0
H  H33  1  0.58915891  0.10418585  0.83560713  1  0  0.105183  0.108929  0  1.023748  0
H  H34  1  0.91085557  0.60418691  0.16439549  1  0  0.105183  0.108978  0  1.023716  0
H  H35  1  0.41084490  0.39581701  0.33560299  1  0  0.105187  0.109028  0  1.023714  0
H  H36  1  0.03515628  0.07871437  0.83788226  1  0  0.109415  0.113457  0  1.001537  0
H  H37  1  0.53516682  0.92128210  0.66212005  1  0  0.109426  0.113451  0  1.001596  0
H  H38  1  0.96483306  0.42128462  0.33788310  1  0  0.109428  0.113461  0  1.001517  0
H  H39  1  0.46484405  0.57871448  0.16211592  1  0  0.109409  0.113444  0  1.00148  0
H  H40  1  0.04224098  0.86565644  0.88755900  1  0  0.105581  0.11026  0  0.982241  0
H  H41  1  0.54224653  0.13433908  0.61244377  1  0  0.105585  0.110295  0  0.982273  0
H  H42  1  0.95775343  0.63434279  0.38755926  1  0  0.105569  0.110283  0  0.982194  0
H  H43  1  0.45776217  0.36565536  0.11243975  1  0  0.105567  0.110226  0  0.982239  0
C  C44  1  0.77369079  0.11350643  0.97674418  1  0  0.137599  0.142849  0  3.986542  0
C  C45  1  0.27368915  0.88648906  0.52325537  1  0  0.137553  0.142768  0  3.986667  0
C  C46  1  0.22630964  0.38649182  0.47674290  1  0  0.13757  0.142723  0  3.986544  0
C  C47  1  0.72630773  0.61350730  0.02325797  1  0  0.137544  0.142755  0  3.986685  0
C  C48  1  0.95587414  0.22969679  0.03202842  1  0  0.135444  0.137151  0  3.995093  0
C  C49  1  0.45587434  0.77029943  0.46797104  1  0  0.135494  0.1371  0  3.994913  0
C  C50  1  0.04412012  0.27030287  0.53202601  1  0  0.135465  0.13714  0  3.995097  0
C  C51  1  0.54412145  0.72969745  0.96797270  1  0  0.135437  0.137074  0  3.995163  0
C  C52  1  0.07428689  0.76012629  0.80402121  1  0  -0.002279  -0.033548  0  3.924485  0
C  C53  1  0.57428949  0.23987018  0.69597981  1  0  -0.002201  -0.033468  0  3.92462  0
C  C54  1  0.92571625  0.73987338  0.30402174  1  0  -0.002215  -0.033478  0  3.92459  0
C  C55  1  0.42571483  0.26012669  0.19597766  1  0  -0.002225  -0.033623  0  3.924577  0
C  C56  1  0.08774697  0.76903043  0.74070995  1  0  -0.014603  -0.058781  0  3.95216  0
C  C57  1  0.58774775  0.23096796  0.75929064  1  0  -0.014587  -0.058799  0  3.95217  0
C  C58  1  0.91225218  0.73096958  0.24071138  1  0  -0.01469  -0.058882  0  3.952304  0
C  C59  1  0.41225620  0.26903145  0.25928846  1  0  -0.01463  -0.058646  0  3.952129  0
C  C60  1  0.08052158  0.88956225  0.71334408  1  0  -0.071249  -0.085495  0  3.930407  0
C  C61  1  0.58052866  0.11043615  0.78665831  1  0  -0.071235  -0.085406  0  3.930459  0
C  C62  1  0.91948437  0.61043983  0.21334295  1  0  -0.071198  -0.085492  0  3.930226  0
C  C63  1  0.41948157  0.38956216  0.28665464  1  0  -0.071192  -0.085576  0  3.930366  0
C  C64  1  0.06266011  0.00153245  0.74752990  1  0  -0.016807  -0.039955  0  3.988128  0
C  C65  1  0.56266638  0.99846499  0.75247291  1  0  -0.016758  -0.039876  0  3.988182  0
C  C66  1  0.93733784  0.49846703  0.24752970  1  0  -0.016771  -0.039892  0  3.988167  0
C  C67  1  0.43734024  0.50153304  0.25246747  1  0  -0.016856  -0.040046  0  3.988141  0
C  C68  1  0.04985290  0.99219451  0.81060727  1  0  -0.072325  -0.067275  0  3.93782  0
C  C69  1  0.54985980  0.00780389  0.68939506  1  0  -0.072341  -0.067343  0  3.937934  0
C  C70  1  0.95014310  0.50780609  0.31060676  1  0  -0.072338  -0.067296  0  3.937997  0
C  C71  1  0.45015167  0.49219398  0.18939088  1  0  -0.072314  -0.067207  0  3.937843  0
C  C72  1  0.05446918  0.87233527  0.83848360  1  0  -0.085524  -0.101195  0  3.96853  0
C  C73  1  0.55447412  0.12766121  0.66151874  1  0  -0.085567  -0.101259  0  3.968828  0
C  C74  1  0.94552875  0.62766326  0.33848340  1  0  -0.085534  -0.101231  0  3.968674  0
C  C75  1  0.44553397  0.37233585  0.16151514  1  0  -0.085485  -0.101094  0  3.968553  0
C  C76  1  0.07849255  0.63413121  0.83717031  1  0  0.227536  0.626582  0  4.15718  0
C  C77  1  0.57849455  0.36586719  0.66283117  1  0  0.227446  0.626508  0  4.157283  0
C  C78  1  0.92150826  0.86587213  0.33717024  1  0  0.227436  0.626431  0  4.157287  0
C  C79  1  0.42150486  0.13412986  0.16283006  1  0  0.227553  0.626635  0  4.157114  0
C  C80  1  0.10744275  0.65202983  0.70191703  1  0  0.209931  0.593077  0  4.196187  0
C  C81  1  0.60743982  0.34797049  0.79808404  1  0  0.209911  0.593145  0  4.196077  0
C  C82  1  0.89256735  0.84797231  0.20191829  1  0  0.209908  0.593172  0  4.195977  0
C  C83  1  0.39255755  0.15202776  0.29808197  1  0  0.209917  0.593026  0  4.195958  0
C  C84  1  0.06083430  0.12774467  0.71561286  1  0  0.199434  0.57095  0  4.20383  0
C  C85  1  0.56083970  0.87225757  0.78439176  1  0  0.199333  0.571062  0  4.203761  0
C  C86  1  0.93916020  0.37226074  0.21560965  1  0  0.199274  0.570851  0  4.203868  0
C  C87  1  0.43916456  0.62774221  0.28438707  1  0  0.199354  0.570889  0  4.203888  0
N  N88  1  0.90427103  0.12906655  0.06537368  1  0  -0.264929  -0.21654  0  3.50982  0
N  N89  1  0.40427064  0.87093160  0.43462569  1  0  -0.264924  -0.216532  0  3.509606  0
N  N90  1  0.09572670  0.37093198  0.56537306  1  0  -0.264899  -0.216535  0  3.509604  0
N  N91  1  0.59572603  0.62906737  0.93462755  1  0  -0.264861  -0.216445  0  3.509723  0
N  N92  1  0.78696482  0.05386186  0.03005934  1  0  -0.256359  -0.238668  0  3.455642  0
N  N93  1  0.28696357  0.94613630  0.46993984  1  0  -0.256331  -0.238608  0  3.455553  0
N  N94  1  0.21303521  0.44613590  0.53005882  1  0  -0.256289  -0.238508  0  3.455536  0
N  N95  1  0.71303226  0.55386152  0.96994244  1  0  -0.256315  -0.238629  0  3.455642  0
N  N96  1  0.87772036  0.22425697  0.97600180  1  0  -0.364016  -0.342031  0  3.493993  0
N  N97  1  0.37772022  0.77573852  0.52399702  1  0  -0.364056  -0.341966  0  3.494146  0
N  N98  1  0.12227425  0.27574129  0.47600138  1  0  -0.364035  -0.341991  0  3.494059  0
N  N99  1  0.62227668  0.72425880  0.02399841  1  0  -0.364005  -0.341956  0  3.49408  0
O  O100  1  0.91649762  0.58558445  0.85243371  1  0  -0.315151  -0.568549  0  2.414393  0
O  O101  1  0.41649824  0.41441392  0.64756745  1  0  -0.315121  -0.568513  0  2.414418  0
O  O102  1  0.08350490  0.91441785  0.35243396  1  0  -0.315045  -0.568411  0  2.41439  0
O  O103  1  0.58350090  0.08558321  0.14756622  1  0  -0.315143  -0.568542  0  2.414386  0
O  O104  1  0.24088067  0.58677878  0.85416706  1  0  -0.314561  -0.589734  0  2.326597  0
O  O105  1  0.74087946  0.41321768  0.64583334  1  0  -0.314544  -0.589732  0  2.326574  0
O  O106  1  0.75911607  0.91322063  0.35416485  1  0  -0.314584  -0.589717  0  2.32663  0
O  O107  1  0.25911675  0.08678042  0.14583292  1  0  -0.314582  -0.589775  0  2.326571  0
O  O108  1  0.08237338  0.54400797  0.72815435  1  0  -0.314454  -0.519801  0  2.273082  0
O  O109  1  0.58238158  0.45599235  0.77184397  1  0  -0.31444  -0.519834  0  2.273066  0
O  O110  1  0.91764442  0.95599691  0.22815642  1  0  -0.314444  -0.519891  0  2.273135  0
O  O111  1  0.41763130  0.04400700  0.27184342  1  0  -0.314443  -0.519804  0  2.27314  0
O  O112  1  0.14260444  0.66722639  0.64591678  1  0  -0.343786  -0.585356  0  2.287933  0
O  O113  1  0.64259376  0.33277680  0.85408436  1  0  -0.343759  -0.585412  0  2.287936  0
O  O114  1  0.85740615  0.83278181  0.14591799  1  0  -0.343754  -0.585362  0  2.287688  0
O  O115  1  0.35739876  0.16722403  0.35408130  1  0  -0.343784  -0.585359  0  2.287777  0
O  O116  1  0.05602334  0.13197054  0.65857584  1  0  -0.329529  -0.569579  0  2.165372  0
O  O117  1  0.55603988  0.86803266  0.84142741  1  0  -0.329432  -0.569556  0  2.165481  0
O  O118  1  0.94397164  0.36803806  0.15857444  1  0  -0.329417  -0.569479  0  2.165499  0
O  O119  1  0.44397842  0.63196969  0.34142273  1  0  -0.329468  -0.569518  0  2.165485  0
O  O120  1  0.06627192  0.23211236  0.74753972  1  0  -0.326496  -0.570908  0  2.282209  0
O  O121  1  0.56626664  0.76788796  0.75246265  1  0  -0.326545  -0.571093  0  2.282017  0
O  O122  1  0.93371877  0.26788904  0.24753752  1  0  -0.326516  -0.570991  0  2.282062  0
O  O123  1  0.43372546  0.73211295  0.25245829  1  0  -0.326517  -0.570927  0  2.282126  0
O  O124  1  0.17719913  0.48778844  0.97013553  1  0  -0.579538  -0.738615  0  1.997654  0
O  O125  1  0.67720606  0.51222051  0.52986657  1  0  -0.579424  -0.738537  0  1.997717  0
O  O126  1  0.82279248  0.01222042  0.47013254  1  0  -0.579445  -0.738603  0  1.997523  0
O  O127  1  0.32279239  0.98777870  0.02986533  1  0  -0.579465  -0.738588  0  1.997649  0
O  O128  1  0.14389779  0.32158320  0.85638394  1  0  -0.594511  -0.748643  0  2.03953  0
O  O129  1  0.64389648  0.67841808  0.64361946  1  0  -0.594501  -0.748737  0  2.0395  0
O  O130  1  0.85610202  0.17841762  0.35638126  1  0  -0.594523  -0.748796  0  2.039423  0
O  O131  1  0.35609812  0.82158245  0.14361486  1  0  -0.594473  -0.748632  0  2.039501  0
