# generated using pymatgen
data_CuH8C12N5ClO4
_symmetry_space_group_name_H-M   'P 1'
_cell_length_a   8.44023096
_cell_length_b   8.44168380
_cell_length_c   11.62230471
_cell_angle_alpha   96.84325496
_cell_angle_beta   107.56303507
_cell_angle_gamma   114.88418434
_symmetry_Int_Tables_number   1
_chemical_formula_structural   CuH8C12N5ClO4
_chemical_formula_sum   'Cu2 H16 C24 N10 Cl2 O8'
_cell_volume   686.57666138
_cell_formula_units_Z   2
loop_
 _symmetry_equiv_pos_site_id
 _symmetry_equiv_pos_as_xyz
  1  'x, y, z'
loop_
 _atom_site_type_symbol
 _atom_site_label
 _atom_site_symmetry_multiplicity
 _atom_site_fract_x
 _atom_site_fract_y
 _atom_site_fract_z
 _atom_site_occupancy
 _atom_site_hle17_ddec_charge
 _atom_site_hle17_ddec_spin_density
 _atom_site_hle17_ddec_sum_bond_order
 _atom_site_hle17_magmom
 _atom_site_hse06_10hf_ddec_charge
 _atom_site_hse06_10hf_ddec_spin_density
 _atom_site_hse06_10hf_ddec_sum_bond_order
 _atom_site_hse06_10hf_magmom
 _atom_site_hse06_ddec_charge
 _atom_site_hse06_ddec_spin_density
 _atom_site_hse06_ddec_sum_bond_order
 _atom_site_hse06_magmom
 _atom_site_pbe_cm5_charge
 _atom_site_pbe_ddec_charge
 _atom_site_pbe_ddec_spin_density
 _atom_site_pbe_ddec_sum_bond_order
 _atom_site_pbe_magmom
Cu  Cu0  1  0.47543352  0.51269579  0.57274598  1  0.915458  0.755596  1.924219  0.534  0.882303  0.819589  2.338518  0.636  0.959709  0.891045  2.273008  0.714  0.835003  0.83547  0.766613  2.383238  0.583
Cu  Cu1  1  0.56003553  0.09764811  0.07290042  1  0.915503  -0.756423  1.924408  -0.534  0.881983  -0.820021  2.338588  -0.636  0.959307  -0.891363  2.27316  -0.714  0.834425  0.834506  -0.766902  2.384391  -0.583
H  H2  1  0.52339256  0.22331703  0.69164579  1  0.099175  0.002444  0.94043  0.004  0.103134  0.001733  1.006091  0.002  0.104013  0.001181  1.004751  0.002  0.121313  0.10231  0.002207  1.007273  0.003
H  H3  1  0.96780386  0.16784305  0.19138027  1  0.099391  -0.002444  0.942379  -0.004  0.103176  -0.001734  1.008156  -0.002  0.104058  -0.001182  1.006845  -0.002  0.121188  0.102391  -0.002205  1.009217  -0.003
H  H4  1  0.30452142  0.94359259  0.72795812  1  0.117778  0.000861  0.960575  0.001  0.124123  0.000701  1.022587  0.001  0.126094  0.000477  1.023086  0.001  0.108388  0.122505  0.000884  1.022626  0.001
H  H5  1  0.28418813  0.42253273  0.22771973  1  0.116939  -0.000859  0.962678  -0.001  0.123222  -0.000699  1.024641  -0.001  0.125253  -0.000475  1.025098  -0.001  0.107943  0.121555  -0.000881  1.024721  -0.001
H  H6  1  0.96125776  0.87399400  0.67422056  1  0.098123  0.00035  0.962368  0.001  0.105861  -3.4e-05  1.026064  0.0  0.106583  -7.5e-05  1.026574  0.0  0.108432  0.105192  3.4e-05  1.025929  0.0
H  H7  1  0.30065248  0.71224732  0.17418878  1  0.097966  -0.000353  0.962168  -0.001  0.10579  3.3e-05  1.025992  0.0  0.106449  7.4e-05  1.026573  0.0  0.108463  0.105182  -3.4e-05  1.025775  0.0
H  H8  1  0.85815340  0.08107990  0.58547664  1  0.124237  0.00116  0.942767  0.002  0.133643  0.000824  1.00052  0.001  0.135693  0.000534  1.000473  0.001  0.11546  0.132063  0.001083  1.000869  0.002
H  H9  1  0.00517912  0.72736318  0.08578316  1  0.12562  -0.001159  0.943388  -0.002  0.134665  -0.000823  1.001421  -0.001  0.136777  -0.000533  1.001311  -0.001  0.115545  0.133075  -0.00108  1.001735  -0.002
H  H10  1  0.78398000  0.25238750  0.48247227  1  0.122922  0.00117  0.950204  0.002  0.130619  0.000779  1.01094  0.001  0.132699  0.000511  1.011239  0.001  0.112675  0.129007  0.00102  1.010955  0.001
H  H11  1  0.73052328  0.69892809  0.98286795  1  0.123331  -0.001174  0.949098  -0.002  0.131411  -0.00078  1.009251  -0.001  0.133479  -0.000511  1.009584  -0.001  0.113128  0.129799  -0.001018  1.009272  -0.001
H  H12  1  0.73839268  0.48431354  0.38889850  1  0.105217  0.00036  0.963475  0.001  0.113206  3.5e-05  1.026416  0.0  0.114907  -6e-06  1.025298  0.0  0.108346  0.111808  9.9e-05  1.027492  0.0
H  H13  1  0.40495903  0.65098380  0.88918467  1  0.106052  -0.00036  0.96366  -0.001  0.114632  -3.5e-05  1.025819  0.0  0.116344  6e-06  1.024677  0.0  0.108907  0.113201  -9.8e-05  1.026963  0.0
H  H14  1  0.02544174  0.75841642  0.38982011  1  0.119456  0.000856  0.975895  0.001  0.120824  0.000591  1.047595  0.001  0.123588  0.000394  1.047326  0.001  0.105188  0.11877  0.000757  1.047943  0.001
H  H15  1  0.13159448  0.36486610  0.88995942  1  0.117966  -0.000861  0.978515  -0.001  0.119805  -0.000594  1.049893  -0.001  0.122508  -0.000396  1.04965  -0.001  0.105058  0.117816  -0.000757  1.050153  -0.001
H  H16  1  0.34061183  0.77154634  0.47508671  1  0.10358  0.002266  0.957804  0.003  0.107235  0.001568  1.024059  0.002  0.108037  0.001065  1.022835  0.002  0.120619  0.106445  0.002004  1.025238  0.003
H  H17  1  0.20358956  0.13494025  0.97526483  1  0.103427  -0.002269  0.956475  -0.003  0.107381  -0.00157  1.022576  -0.002  0.108185  -0.001067  1.021349  -0.002  0.120919  0.106584  -0.002003  1.023748  -0.003
C  C18  1  0.37465011  0.18551826  0.66780941  1  0.155977  -0.008595  3.646697  -0.01  0.125831  -0.000742  3.908782  -0.002  0.135983  -0.002162  3.928538  -0.004  0.058365  0.1193  0.000381  3.895629  -0.001
C  C19  1  0.98210194  0.29283154  0.16766239  1  0.154898  0.008577  3.650806  0.01  0.124752  0.000744  3.912562  0.002  0.13493  0.002158  3.93229  0.004  0.058535  0.118234  -0.000373  3.899282  0.001
C  C20  1  0.25049226  0.02961709  0.68777076  1  -0.107055  0.014402  3.678678  0.015  -0.12078  0.005624  3.929998  0.007  -0.129355  0.004741  3.953252  0.006  -0.07605  -0.115177  0.006491  3.914853  0.008
C  C21  1  0.15813752  0.43667473  0.18758312  1  -0.106156  -0.014387  3.679856  -0.015  -0.119634  -0.005616  3.93082  -0.007  -0.128234  -0.004734  3.95403  -0.006  -0.075833  -0.113969  -0.006486  3.915666  -0.008
C  C22  1  0.06305876  0.99194719  0.65822797  1  0.013288  -0.01086  3.686682  -0.01  -0.006134  -0.003203  3.938105  -0.003  -0.002286  -0.003416  3.958706  -0.003  -0.059483  -0.008861  -0.003054  3.924769  -0.003
C  C23  1  0.16654097  0.59469397  0.15823779  1  0.014145  0.010865  3.687852  0.01  -0.005547  0.003203  3.939621  0.003  -0.001658  0.003417  3.960318  0.003  -0.05922  -0.008299  0.003057  3.926137  0.003
C  C24  1  0.00348514  0.10792616  0.60721836  1  -0.119806  0.009914  3.659986  0.01  -0.140944  0.003882  3.90625  0.004  -0.148861  0.003412  3.928098  0.004  -0.069344  -0.136091  0.004363  3.892216  0.005
C  C25  1  0.99971569  0.60366330  0.10744045  1  -0.121319  -0.009918  3.662743  -0.01  -0.142437  -0.00388  3.909511  -0.004  -0.150401  -0.003412  3.931312  -0.004  -0.069568  -0.137542  -0.004364  3.895323  -0.005
C  C26  1  0.13318700  0.25863473  0.58595478  1  0.179437  -0.004053  3.76895  -0.004  0.177928  0.000805  4.012751  0.0  0.186775  -0.000714  4.033131  -0.002  0.121331  0.171955  0.002026  3.999461  0.001
C  C27  1  0.82752238  0.45289871  0.08615317  1  0.179121  0.004056  3.766587  0.004  0.17736  -0.0008  4.010929  0.0  0.186183  0.000722  4.031268  0.002  0.121001  0.171534  -0.002021  3.997562  -0.001
C  C28  1  0.08693405  0.38665244  0.52795282  1  0.173445  -0.001976  3.763157  -0.002  0.171756  0.001642  4.006265  0.001  0.18035  0.000311  4.02709  0.0  0.119607  0.16604  0.002755  3.992396  0.002
C  C29  1  0.64155883  0.44137182  0.02819656  1  0.176044  0.001972  3.761978  0.002  0.173912  -0.001647  4.005541  -0.001  0.182631  -0.000313  4.02617  0.0  0.120296  0.16805  -0.002749  3.991946  -0.002
C  C30  1  0.90540915  0.36811997  0.48004742  1  -0.119265  0.007562  3.66226  0.008  -0.139197  0.002936  3.908783  0.003  -0.147938  0.002417  3.932064  0.002  -0.070695  -0.133315  0.003469  3.893142  0.004
C  C31  1  0.61230859  0.57504393  0.98037620  1  -0.120968  -0.007538  3.660434  -0.008  -0.140908  -0.002925  3.907171  -0.003  -0.14971  -0.002408  3.930427  -0.002  -0.071851  -0.135031  -0.003455  3.89171  -0.004
C  C32  1  0.88050968  0.50037815  0.42780428  1  0.014046  -0.008178  3.679234  -0.008  -0.008461  -0.001989  3.933291  -0.002  -0.004586  -0.002164  3.952975  -0.002  -0.062365  -0.01119  -0.001833  3.920271  -0.002
C  C33  1  0.42777661  0.54778053  0.92809706  1  0.011897  0.008166  3.679907  0.008  -0.011212  0.001967  3.934471  0.002  -0.007383  0.00215  3.954237  0.002  -0.062973  -0.013965  0.001825  3.921382  0.002
C  C34  1  0.03717448  0.64988828  0.42745075  1  -0.114455  0.011769  3.688395  0.013  -0.127482  0.004511  3.941343  0.005  -0.135994  0.003567  3.964385  0.004  -0.080566  -0.121765  0.005424  3.926154  0.006
C  C35  1  0.27780437  0.39080968  0.92771402  1  -0.111053  -0.011783  3.691357  -0.013  -0.124756  -0.004512  3.944406  -0.005  -0.133175  -0.003565  3.967502  -0.004  -0.079236  -0.11899  -0.005419  3.929046  -0.006
C  C36  1  0.21447453  0.65903612  0.47508090  1  0.141504  -0.006804  3.670012  -0.008  0.114265  -5.2e-05  3.927251  -0.002  0.124066  -0.001291  3.947652  -0.003  0.055695  0.107748  0.000982  3.914042  0.0
C  C37  1  0.31618838  0.26114204  0.97537321  1  0.142627  0.006805  3.667205  0.008  0.114918  4e-05  3.924715  0.002  0.124713  0.001283  3.945106  0.003  0.055576  0.108428  -0.000992  3.911447  0.0
C  C38  1  0.87105298  0.58327641  0.74469985  1  0.540503  -0.004039  3.965416  -0.001  0.513503  0.001555  4.243973  0.005  0.545642  0.000185  4.250547  0.003  0.332654  0.491976  0.002588  4.238883  0.006
C  C39  1  0.66116520  0.87370522  0.24460374  1  0.540569  0.003865  3.961636  0.001  0.513554  -0.00163  4.239886  -0.005  0.545654  -0.000242  4.246317  -0.003  0.331149  0.491875  -0.002612  4.234802  -0.006
C  C40  1  0.17336463  0.76957296  0.89740432  1  0.51655  0.004143  3.95521  0.0  0.487933  -0.000701  4.234603  -0.005  0.519096  0.000715  4.242229  -0.003  0.329866  0.467071  -0.001813  4.228715  -0.006
C  C41  1  0.62773898  0.72387133  0.39717490  1  0.518806  -0.004293  3.955066  0.0  0.490284  0.000668  4.234183  0.005  0.521428  -0.000754  4.241742  0.003  0.331028  0.469346  0.001808  4.228377  0.006
N  N42  1  0.31643950  0.29671635  0.61877574  1  -0.328904  0.120988  3.332145  0.149  -0.296783  0.077797  3.635405  0.103  -0.331872  0.062002  3.660362  0.086  -0.337631  -0.275074  0.087224  3.619809  0.112
N  N43  1  0.82199697  0.30234478  0.11884464  1  -0.32887  -0.120799  3.332302  -0.149  -0.296428  -0.077565  3.635464  -0.103  -0.331513  -0.061827  3.660487  -0.086  -0.337651  -0.27471  -0.087009  3.619924  -0.112
N  N44  1  0.23702551  0.52888766  0.52187129  1  -0.322279  0.112703  3.318049  0.139  -0.289801  0.06912  3.621491  0.091  -0.323409  0.054755  3.643792  0.076  -0.340329  -0.269279  0.077939  3.607991  0.099
N  N45  1  0.49313370  0.28530834  0.02215784  1  -0.325263  -0.112747  3.317471  -0.139  -0.29237  -0.069132  3.621149  -0.091  -0.326023  -0.054737  3.643438  -0.076  -0.341139  -0.271751  -0.077857  3.607742  -0.099
N  N46  1  0.71141367  0.53030459  0.67986221  1  -0.592571  0.047633  2.985237  0.056  -0.57297  0.036494  3.304515  0.044  -0.602255  0.032563  3.300368  0.041  -0.412559  -0.554528  0.038512  3.307898  0.045
N  N47  1  0.64957004  0.96881323  0.18002028  1  -0.59267  -0.04752  2.9833  -0.056  -0.572967  -0.03649  3.302515  -0.044  -0.602277  -0.032543  3.298405  -0.041  -0.41126  -0.554358  -0.0385  3.306297  -0.045
N  N48  1  0.04308260  0.62366343  0.80907956  1  -0.43962  0.001918  3.286673  0.002  -0.387273  0.000672  3.537742  0.001  -0.41237  0.000421  3.539583  0.0  -0.29437  -0.369626  0.001072  3.535304  0.001
N  N49  1  0.68492714  0.76573239  0.30869061  1  -0.440247  -0.001686  3.28398  -0.002  -0.387706  -0.00061  3.534553  -0.001  -0.41269  -0.000397  3.53622  0.0  -0.29381  -0.369752  -0.001126  3.532103  -0.001
N  N50  1  0.30476406  0.89336458  0.97962872  1  -0.556778  -0.047646  2.982168  -0.056  -0.529505  -0.039337  3.296256  -0.048  -0.559272  -0.035323  3.29633  -0.044  -0.401254  -0.510426  -0.041284  3.296744  -0.049
N  N51  1  0.58644780  0.67459787  0.47941943  1  -0.559912  0.048187  2.983597  0.056  -0.532794  0.039583  3.297844  0.048  -0.56258  0.035493  3.297891  0.045  -0.402893  -0.513741  0.041328  3.298435  0.049
Cl  Cl52  1  0.73333132  0.00927273  0.83253782  1  1.391376  3.6e-05  6.196628  0.0  1.33977  -1.4e-05  6.750594  0.0  1.392554  0.0  6.726201  0.0  0.722216  1.303418  -7e-06  6.765284  0.0
Cl  Cl53  1  0.32311541  0.09892041  0.33257376  1  1.391679  -8.7e-05  6.192066  0.0  1.340384  1e-06  6.745445  0.0  1.393159  -2.2e-05  6.721113  0.0  0.723293  1.30406  5e-06  6.760413  0.0
O  O54  1  0.65307304  0.90674104  0.70057520  1  -0.548257  -0.000186  1.890767  0.0  -0.530608  -0.000129  2.151684  0.0  -0.547206  -0.000196  2.137526  0.0  -0.311353  -0.518601  -0.000141  2.161033  0.0
O  O55  1  0.29300134  0.04700495  0.20049841  1  -0.548394  0.000276  1.890846  0.0  -0.530327  0.000152  2.151111  0.0  -0.546953  0.000198  2.136963  0.0  -0.311577  -0.518414  0.000138  2.16041  0.0
O  O56  1  0.57972012  0.95468438  0.87958502  1  -0.593538  -0.000139  1.927224  -0.001  -0.573187  -0.00019  2.199032  -0.001  -0.59125  0.000207  2.183066  -0.001  -0.324729  -0.560079  -0.00083  2.20984  -0.002
O  O57  1  0.42485438  0.29959170  0.37952773  1  -0.592942  0.000285  1.925449  0.001  -0.572682  0.000227  2.197111  0.001  -0.590846  -0.000175  2.181202  0.001  -0.324624  -0.559805  0.000808  2.207747  0.002
O  O58  1  0.87813396  0.96857102  0.90650282  1  -0.546453  -0.000207  1.821207  0.0  -0.515766  -0.000169  2.050854  0.0  -0.531516  -8.4e-05  2.03864  0.0  -0.317636  -0.50428  -0.000266  2.058579  0.0
O  O59  1  0.43804397  0.02814690  0.40632230  1  -0.546402  0.000192  1.81888  0.0  -0.515907  0.00016  2.048575  0.0  -0.531712  8.3e-05  2.036455  0.0  -0.318249  -0.504527  0.000266  2.056366  0.0
O  O60  1  0.81547712  0.20419848  0.84452159  1  -0.542498  0.000132  1.840332  0.0  -0.512016  6.4e-05  2.072267  0.0  -0.526495  2.4e-05  2.060771  0.0  -0.31665  -0.501511  0.000145  2.079566  0.0
O  O61  1  0.14045379  0.02889189  0.34498028  1  -0.542376  -0.000165  1.840355  0.0  -0.512586  -7.6e-05  2.07339  0.0  -0.527027  -2.6e-05  2.06174  0.0  -0.316712  -0.502059  -0.000137  2.080668  0.0
