# generated using pymatgen
data_GdH25C33(N3O7)3
_symmetry_space_group_name_H-M   'P 1'
_cell_length_a   13.21798459
_cell_length_b   19.40419207
_cell_length_c   19.40415179
_cell_angle_alpha   102.80600255
_cell_angle_beta   93.22899781
_cell_angle_gamma   93.22976098
_symmetry_Int_Tables_number   1
_chemical_formula_structural   GdH25C33(N3O7)3
_chemical_formula_sum   'Gd4 H100 C132 N36 O84'
_cell_volume   4833.23951661
_cell_formula_units_Z   4
loop_
 _symmetry_equiv_pos_site_id
 _symmetry_equiv_pos_as_xyz
  1  'x, y, z'
loop_
 _atom_site_type_symbol
 _atom_site_label
 _atom_site_symmetry_multiplicity
 _atom_site_fract_x
 _atom_site_fract_y
 _atom_site_fract_z
 _atom_site_occupancy
 _atom_site_pbe_bader_charge
 _atom_site_pbe_bader_spin_density
 _atom_site_pbe_cm5_charge
 _atom_site_pbe_ddec_charge
 _atom_site_pbe_ddec_spin_density
 _atom_site_pbe_ddec_sum_bond_order
 _atom_site_pbe_magmom
Gd  Gd0  1  0.34864664  0.96875811  0.49024258  1  2.187273  0  1.462685  2.028326  0  2.204974  0
Gd  Gd1  1  0.15135132  0.50976226  0.03124587  1  2.187338  0  1.462714  2.028241  0  2.205184  0
Gd  Gd2  1  0.65135074  0.03124397  0.50975664  1  2.187188  0  1.462723  2.028357  0  2.204952  0
Gd  Gd3  1  0.84865041  0.49023774  0.96875668  1  2.187336  0  1.46268  2.028266  0  2.205116  0
H  H4  1  0.58847006  0.20972969  0.40047728  1  0.170704  0  0.127429  0.141502  0  0.990388  0
H  H5  1  0.91153210  0.59951455  0.79026868  1  0.171358  0  0.127512  0.14159  0  0.990335  0
H  H6  1  0.41153529  0.79026867  0.59951784  1  0.171074  0  0.127491  0.141553  0  0.990402  0
H  H7  1  0.08846522  0.40047908  0.20973286  1  0.171051  0  0.127437  0.141521  0  0.99046  0
H  H8  1  0.29157136  0.10469636  0.34147490  1  0.141107  0  0.128355  0.137771  0  1.007922  0
H  H9  1  0.20842866  0.65853148  0.89530857  1  0.140694  0  0.128362  0.137773  0  1.007715  0
H  H10  1  0.70843193  0.89530413  0.65852317  1  0.141033  0  0.128344  0.137788  0  1.00788  0
H  H11  1  0.79157392  0.34146955  0.10469063  1  0.141049  0  0.128374  0.137749  0  1.007821  0
H  H12  1  0.30019448  0.46087572  0.24574548  1  0.170174  0  0.133174  0.150826  0  0.966699  0
H  H13  1  0.19980092  0.75426539  0.53912887  1  0.169793  0  0.133209  0.150836  0  0.966713  0
H  H14  1  0.69980584  0.53912535  0.75425982  1  0.170248  0  0.133167  0.150797  0  0.966761  0
H  H15  1  0.80019651  0.24573722  0.46086995  1  0.170174  0  0.133216  0.150888  0  0.966741  0
H  H16  1  0.34483061  0.29750488  0.06167618  1  0.152051  0  0.122675  0.138629  0  1.012074  0
H  H17  1  0.15516583  0.93832938  0.70250380  1  0.152001  0  0.122601  0.138556  0  1.012062  0
H  H18  1  0.65516628  0.70249986  0.93832514  1  0.152017  0  0.122639  0.138621  0  1.012061  0
H  H19  1  0.84483074  0.06167218  0.29749682  1  0.152035  0  0.122613  0.138577  0  1.012064  0
H  H20  1  0.66615309  0.93990560  0.34304403  1  0.206275  0  0.13162  0.151163  0  1.024194  0
H  H21  1  0.83382529  0.65695336  0.06009029  1  0.206182  0  0.131632  0.151149  0  1.024169  0
H  H22  1  0.33384793  0.06009490  0.65695654  1  0.206286  0  0.13163  0.151186  0  1.024193  0
H  H23  1  0.16617589  0.34304875  0.93991218  1  0.206116  0  0.131634  0.151179  0  1.024141  0
H  H24  1  0.48066454  0.74997657  0.34518002  1  0.168838  0  0.132412  0.147655  0  0.969017  0
H  H25  1  0.01932596  0.65482645  0.25001639  1  0.16918  0  0.132462  0.147663  0  0.969092  0
H  H26  1  0.51933417  0.25002344  0.65482448  1  0.168902  0  0.132416  0.147636  0  0.969099  0
H  H27  1  0.98067081  0.34516929  0.74998351  1  0.169184  0  0.132423  0.147644  0  0.969121  0
H  H28  1  0.25759678  0.13251778  0.46659298  1  0.09861  0  0.123624  0.045822  0  1.013747  0
H  H29  1  0.24240070  0.53340455  0.86748641  1  0.098809  0  0.123641  0.045754  0  1.013881  0
H  H30  1  0.74240059  0.86748426  0.53340212  1  0.098644  0  0.123639  0.045812  0  1.01377  0
H  H31  1  0.75760011  0.46659386  0.13251576  1  0.098761  0  0.123621  0.045768  0  1.01383  0
H  H32  1  0.05918307  0.06569625  0.55983710  1  0.093211  0  0.111553  0.132213  0  0.998663  0
H  H33  1  0.44081738  0.44016415  0.93430809  1  0.093164  0  0.11153  0.132199  0  0.998647  0
H  H34  1  0.94081614  0.93430903  0.44016442  1  0.093029  0  0.111566  0.132277  0  0.998654  0
H  H35  1  0.55918565  0.55983372  0.06569199  1  0.093075  0  0.111552  0.132213  0  0.998619  0
H  H36  1  0.96953994  0.07108387  0.48869952  1  0.067173  0  0.10891  0.125951  0  0.983731  0
H  H37  1  0.53045985  0.51130256  0.92891708  1  0.067148  0  0.10893  0.125998  0  0.983592  0
H  H38  1  0.03045775  0.92892140  0.51130194  1  0.067119  0  0.108934  0.125974  0  0.983664  0
H  H39  1  0.46954334  0.48869688  0.07108231  1  0.067183  0  0.10893  0.125987  0  0.983646  0
H  H40  1  0.99265161  0.14440693  0.56246174  1  0.082607  0  0.106174  0.123566  0  1.008732  0
H  H41  1  0.50734658  0.43753895  0.85559447  1  0.08268  0  0.106129  0.123474  0  1.008721  0
H  H42  1  0.00734830  0.85559780  0.43753814  1  0.082707  0  0.106138  0.123502  0  1.008662  0
H  H43  1  0.49265428  0.56245996  0.14440369  1  0.082726  0  0.106155  0.123538  0  1.008667  0
H  H44  1  0.15686819  0.20534680  0.43764016  1  0.098091  0  0.108186  0.124453  0  0.99698  0
H  H45  1  0.34312440  0.56235987  0.79465587  1  0.098028  0  0.108242  0.124578  0  0.996965  0
H  H46  1  0.84312393  0.79465580  0.56235846  1  0.09802  0  0.108226  0.124524  0  0.997029  0
H  H47  1  0.65686964  0.43763905  0.20534564  1  0.098071  0  0.108197  0.124458  0  0.997009  0
H  H48  1  0.05430616  0.22849474  0.49224149  1  0.112945  0  0.106066  0.124251  0  1.001513  0
H  H49  1  0.44568933  0.50775944  0.77150658  1  0.113021  0  0.106048  0.124225  0  1.001643  0
H  H50  1  0.94569339  0.77150626  0.50775553  1  0.112951  0  0.106073  0.124228  0  1.001545  0
H  H51  1  0.55430775  0.49223947  0.22849350  1  0.11301  0  0.106013  0.124258  0  1.001622  0
H  H52  1  0.03313894  0.16337251  0.41045676  1  0.0419  0  0.096117  0.112269  0  1.011191  0
H  H53  1  0.46685823  0.58954436  0.83663066  1  0.041912  0  0.096077  0.112225  0  1.011243  0
H  H54  1  0.96685799  0.83663275  0.58954416  1  0.04193  0  0.09605  0.112182  0  1.011206  0
H  H55  1  0.53314041  0.41045509  0.16337063  1  0.04187  0  0.096095  0.112262  0  1.011185  0
H  H56  1  0.20723715  0.84632925  0.36670584  1  0.120141  0  0.134245  0.062209  0  0.978509  0
H  H57  1  0.29276210  0.63329985  0.15367629  1  0.120087  0  0.134224  0.062126  0  0.978507  0
H  H58  1  0.79276367  0.15366916  0.63329633  1  0.120179  0  0.13427  0.062211  0  0.978537  0
H  H59  1  0.70724262  0.36669963  0.84632728  1  0.120176  0  0.134233  0.062158  0  0.978525  0
H  H60  1  0.03713418  0.94857977  0.24380710  1  0.08695  0  0.103135  0.118489  0  1.012377  0
H  H61  1  0.46285494  0.75620008  0.05142181  1  0.087068  0  0.103091  0.118359  0  1.012424  0
H  H62  1  0.96286486  0.05141597  0.75619289  1  0.086966  0  0.103126  0.118461  0  1.012354  0
H  H63  1  0.53713557  0.24380146  0.94857704  1  0.086909  0  0.103093  0.118394  0  1.012414  0
H  H64  1  0.16686163  0.96029159  0.22440294  1  0.08843  0  0.107213  0.12689  0  0.981478  0
H  H65  1  0.33312619  0.77560565  0.03971410  1  0.088091  0  0.107267  0.12703  0  0.981296  0
H  H66  1  0.83313848  0.03970734  0.77559932  1  0.088548  0  0.10723  0.126928  0  0.981454  0
H  H67  1  0.66686119  0.22439485  0.96028802  1  0.088291  0  0.107275  0.127052  0  0.981332  0
H  H68  1  0.12789600  0.00161110  0.30972084  1  0.076002  0  0.106664  0.127653  0  0.998005  0
H  H69  1  0.37208952  0.69028733  0.99839103  1  0.07629  0  0.106695  0.127679  0  0.99801  0
H  H70  1  0.87210016  0.99838624  0.69028145  1  0.075979  0  0.106692  0.127674  0  0.997981  0
H  H71  1  0.62789867  0.30971369  0.00160969  1  0.076149  0  0.106723  0.127683  0  0.997996  0
H  H72  1  0.16084631  0.81998852  0.19744599  1  0.122969  0  0.106124  0.132781  0  1.024958  0
H  H73  1  0.33917243  0.80256689  0.18001411  1  0.122526  0  0.106158  0.132834  0  1.024867  0
H  H74  1  0.83916117  0.18000832  0.80255713  1  0.122649  0  0.106154  0.132756  0  1.024945  0
H  H75  1  0.66083572  0.19743681  0.81998741  1  0.122579  0  0.106137  0.132757  0  1.025011  0
H  H76  1  0.03588126  0.81755715  0.22549657  1  0.081144  0  0.093951  0.106947  0  1.04857  0
H  H77  1  0.46412562  0.77449381  0.18244743  1  0.081239  0  0.09403  0.107017  0  1.04858  0
H  H78  1  0.96412106  0.18244121  0.77449998  1  0.081184  0  0.093958  0.10693  0  1.048674  0
H  H79  1  0.53588166  0.22550088  0.81755264  1  0.081201  0  0.093957  0.106948  0  1.048598  0
H  H80  1  0.13459108  0.78160029  0.27126324  1  0.059944  0  0.104815  0.11602  0  0.998146  0
H  H81  1  0.36539513  0.72874281  0.21840265  1  0.059075  0  0.104722  0.115956  0  0.998296  0
H  H82  1  0.86540498  0.21839600  0.72873933  1  0.059525  0  0.104752  0.115945  0  0.99822  0
H  H83  1  0.63460584  0.27125718  0.78159883  1  0.059302  0  0.104701  0.115898  0  0.998284  0
H  H84  1  0.42457239  0.00427060  0.30151176  1  0.039701  0  0.100136  0.037147  0  1.015834  0
H  H85  1  0.07543850  0.69848843  0.99574048  1  0.040107  0  0.100124  0.037116  0  1.015877  0
H  H86  1  0.57544001  0.99572247  0.69848249  1  0.039608  0  0.100077  0.036943  0  1.016007  0
H  H87  1  0.92456966  0.30151529  0.00426361  1  0.039914  0  0.100215  0.037168  0  1.015806  0
H  H88  1  0.55498992  0.07298828  0.26792695  1  0.085246  0  0.103823  0.107431  0  1.019379  0
H  H89  1  0.94501440  0.73207304  0.92702477  1  0.08494  0  0.10389  0.107562  0  1.019361  0
H  H90  1  0.44502211  0.92700855  0.73207428  1  0.085064  0  0.103774  0.10735  0  1.019426  0
H  H91  1  0.05499405  0.26792591  0.07297832  1  0.085156  0  0.103852  0.107506  0  1.019412  0
H  H92  1  0.68806181  0.09081809  0.18499271  1  0.074104  0  0.10139  0.100407  0  1.020424  0
H  H93  1  0.81193336  0.81499954  0.90919346  1  0.074529  0  0.101388  0.100406  0  1.0203  0
H  H94  1  0.31195725  0.90918880  0.81500887  1  0.074448  0  0.101348  0.100288  0  1.020252  0
H  H95  1  0.18807897  0.18500044  0.09080484  1  0.074419  0  0.10145  0.100506  0  1.020277  0
H  H96  1  0.71502108  0.98970063  0.08363113  1  0.073423  0  0.108041  0.10619  0  1.008134  0
H  H97  1  0.78496673  0.91635520  0.01031490  1  0.073082  0  0.108014  0.106221  0  1.008262  0
H  H98  1  0.28499777  0.01030410  0.91636586  1  0.073822  0  0.108031  0.106321  0  1.00819  0
H  H99  1  0.21504166  0.08364320  0.98968395  1  0.073526  0  0.10809  0.106351  0  1.008061  0
H  H100  1  0.60871848  0.87544956  0.06910352  1  0.113654  0  0.108825  0.080971  0  1.019014  0
H  H101  1  0.89128516  0.93089576  0.12456269  1  0.113791  0  0.108803  0.080993  0  1.019007  0
H  H102  1  0.39129834  0.12455778  0.93088931  1  0.114115  0  0.108822  0.081046  0  1.019064  0
H  H103  1  0.10871890  0.06910477  0.87543955  1  0.113704  0  0.108802  0.080994  0  1.018989  0
C  C104  1  0.46360441  0.10091768  0.42326909  1  1.619703  0  0.228149  0.621959  0  4.195809  0
C  C105  1  0.03639696  0.57673374  0.89908485  1  1.619664  0  0.22811  0.622015  0  4.195703  0
C  C106  1  0.53639500  0.89908178  0.57673222  1  1.619804  0  0.228134  0.621934  0  4.195792  0
C  C107  1  0.96360563  0.42326734  0.10092054  1  1.619695  0  0.22812  0.622023  0  4.195768  0
C  C108  1  0.44281583  0.15111204  0.37573860  1  0.035507  0  -0.004822  -0.019889  0  3.954321  0
C  C109  1  0.05718143  0.62426278  0.84888909  1  0.035782  0  -0.00482  -0.019808  0  3.954325  0
C  C110  1  0.55718665  0.84888793  0.62426088  1  0.035718  0  -0.004849  -0.019897  0  3.954432  0
C  C111  1  0.94281520  0.37573933  0.15111424  1  0.0359  0  -0.004854  -0.019856  0  3.954401  0
C  C112  1  0.51576824  0.20372869  0.36982008  1  0.03051  0  -0.046708  -0.080919  0  3.875034  0
C  C113  1  0.98423209  0.63017575  0.79626917  1  0.029928  0  -0.046785  -0.081133  0  3.875148  0
C  C114  1  0.48423483  0.79626967  0.63017598  1  0.030289  0  -0.04678  -0.081053  0  3.875168  0
C  C115  1  0.01576569  0.36982264  0.20373237  1  0.030347  0  -0.046684  -0.080985  0  3.875275  0
C  C116  1  0.49523219  0.24862242  0.32491581  1  0.219125  0  0.085918  0.032764  0  3.886723  0
C  C117  1  0.00476769  0.67508108  0.75137717  1  0.219204  0  0.085936  0.032788  0  3.88673  0
C  C118  1  0.50477012  0.75137594  0.67507971  1  0.219159  0  0.08591  0.032751  0  3.886685  0
C  C119  1  0.99522918  0.32491572  0.24862245  1  0.219177  0  0.085904  0.032786  0  3.886794  0
C  C120  1  0.40242752  0.24441928  0.28422149  1  0.111454  0  0.036873  0.044527  0  3.92988  0
C  C121  1  0.09756859  0.71577994  0.75557996  1  0.110774  0  0.036837  0.044585  0  3.930194  0
C  C122  1  0.59757323  0.75557856  0.71577592  1  0.111257  0  0.036896  0.044605  0  3.929931  0
C  C123  1  0.90242701  0.28421946  0.24441657  1  0.110946  0  0.036855  0.04455  0  3.930097  0
C  C124  1  0.32948621  0.19156284  0.29338595  1  0.279518  0  0.083649  0.02865  0  3.868832  0
C  C125  1  0.17050665  0.70661939  0.80843929  1  0.280105  0  0.083705  0.028494  0  3.869029  0
C  C126  1  0.67050934  0.80843606  0.70661201  1  0.279497  0  0.083726  0.028702  0  3.868798  0
C  C127  1  0.82949062  0.29338161  0.19155815  1  0.280312  0  0.083666  0.028455  0  3.86901  0
C  C128  1  0.34932757  0.14554324  0.33731886  1  0.01263  0  -0.05472  -0.10917  0  3.924118  0
C  C129  1  0.15066714  0.66268653  0.85446130  1  0.012396  0  -0.054769  -0.109167  0  3.923928  0
C  C130  1  0.65067436  0.85445886  0.66268157  1  0.012394  0  -0.054709  -0.109168  0  3.924117  0
C  C131  1  0.84932933  0.33731397  0.14553807  1  0.011829  0  -0.054712  -0.109047  0  3.92405  0
C  C132  1  0.38070910  0.29437309  0.23758398  1  0.074685  0  0.026111  0.020873  0  3.953526  0
C  C133  1  0.11928041  0.76241990  0.70562856  1  0.074911  0  0.026109  0.020694  0  3.953494  0
C  C134  1  0.61928494  0.70562583  0.76241702  1  0.074672  0  0.026139  0.020816  0  3.953497  0
C  C135  1  0.88070581  0.23758428  0.29437224  1  0.074764  0  0.026111  0.020888  0  3.953542  0
C  C136  1  0.35178022  0.36321962  0.26496466  1  0.221318  0  0.082534  0.028152  0  3.894806  0
C  C137  1  0.14821651  0.73503784  0.63678433  1  0.221296  0  0.082588  0.028395  0  3.894724  0
C  C138  1  0.64821539  0.63677983  0.73503600  1  0.221831  0  0.082563  0.028327  0  3.894642  0
C  C139  1  0.85177698  0.26496320  0.36321813  1  0.221107  0  0.082597  0.028306  0  3.894883  0
C  C140  1  0.32111834  0.40780476  0.22193095  1  -0.000679  0  -0.048068  -0.096262  0  3.888143  0
C  C141  1  0.17887362  0.77807183  0.59219782  1  -0.000188  0  -0.048184  -0.096341  0  3.888309  0
C  C142  1  0.67887413  0.59219360  0.77806833  1  -0.001334  0  -0.048085  -0.096217  0  3.888113  0
C  C143  1  0.82111516  0.22192758  0.40780000  1  -0.000437  0  -0.048099  -0.096356  0  3.888363  0
C  C144  1  0.31423744  0.38348404  0.14851661  1  0.065068  0  0.000289  0.008013  0  3.931774  0
C  C145  1  0.18575797  0.85148424  0.61651859  1  0.064862  0  0.000231  0.007836  0  3.931919  0
C  C146  1  0.68576383  0.61651910  0.85148247  1  0.065112  0  0.000199  0.007702  0  3.931725  0
C  C147  1  0.81423774  0.14851625  0.38348074  1  0.065089  0  0.000161  0.007785  0  3.932097  0
C  C148  1  0.34752566  0.31706583  0.11896016  1  0.060005  0  -0.052756  -0.105057  0  3.887143  0
C  C149  1  0.15247026  0.88104437  0.68293574  1  0.060372  0  -0.052635  -0.104818  0  3.887004  0
C  C150  1  0.65247319  0.68293573  0.88104055  1  0.060174  0  -0.052664  -0.104884  0  3.886901  0
C  C151  1  0.84752398  0.11895665  0.31706365  1  0.059907  0  -0.052593  -0.104764  0  3.887015  0
C  C152  1  0.38343011  0.27505798  0.16316641  1  0.250182  0  0.081698  0.025123  0  3.89627  0
C  C153  1  0.11657039  0.83683812  0.72494599  1  0.249792  0  0.081747  0.025144  0  3.89625  0
C  C154  1  0.61656560  0.72494251  0.83683395  1  0.249908  0  0.081737  0.025093  0  3.896345  0
C  C155  1  0.88342330  0.16316502  0.27505383  1  0.250045  0  0.081658  0.025011  0  3.896216  0
C  C156  1  0.26814433  0.42816608  0.10284427  1  1.594398  0  0.18931  0.559063  0  4.270254  0
C  C157  1  0.23185236  0.89715537  0.57183741  1  1.595048  0  0.189199  0.559017  0  4.270449  0
C  C158  1  0.73185380  0.57183599  0.89715395  1  1.595026  0  0.189233  0.559041  0  4.270411  0
C  C159  1  0.76814123  0.10284670  0.42816115  1  1.595152  0  0.189219  0.558989  0  4.270499  0
C  C160  1  0.49306401  0.89314478  0.39548554  1  1.601431  0  0.218584  0.609719  0  4.199768  0
C  C161  1  0.00692544  0.60452103  0.10685557  1  1.601802  0  0.218774  0.609871  0  4.199831  0
C  C162  1  0.50693645  0.10685784  0.60451443  1  1.601364  0  0.218552  0.609559  0  4.199954  0
C  C163  1  0.99307654  0.39548160  0.89314497  1  1.601837  0  0.218759  0.609859  0  4.199592  0
C  C164  1  0.56558720  0.84974241  0.35075309  1  0.035622  0  0.007614  0.011501  0  3.908439  0
C  C165  1  0.93439143  0.64924842  0.15025521  1  0.03701  0  0.007516  0.011214  0  3.908936  0
C  C166  1  0.43441296  0.15025705  0.64924877  1  0.035934  0  0.007642  0.01164  0  3.908433  0
C  C167  1  0.06560672  0.35075367  0.84974559  1  0.036877  0  0.007532  0.01123  0  3.908873  0
C  C168  1  0.65144360  0.88248736  0.32974000  1  0.017787  0  -0.045911  -0.099093  0  3.879245  0
C  C169  1  0.84853645  0.67025865  0.11751056  1  0.017789  0  -0.045962  -0.099287  0  3.878959  0
C  C170  1  0.34855509  0.11751260  0.67025882  1  0.017774  0  -0.045954  -0.099226  0  3.879324  0
C  C171  1  0.15146034  0.32974504  0.88249208  1  0.017962  0  -0.045966  -0.099291  0  3.878802  0
C  C172  1  0.72171813  0.84067428  0.29294256  1  0.129611  0  0.086217  0.036845  0  3.900827  0
C  C173  1  0.77826550  0.70705684  0.15932275  1  0.129003  0  0.086193  0.038054  0  3.900078  0
C  C174  1  0.27828112  0.15932358  0.70705789  1  0.129689  0  0.086221  0.036918  0  3.900854  0
C  C175  1  0.22173578  0.29294632  0.84067840  1  0.129052  0  0.086183  0.038017  0  3.899983  0
C  C176  1  0.71192309  0.76628548  0.27571409  1  0.229528  0  0.019725  0.003505  0  3.973657  0
C  C177  1  0.78805832  0.72428457  0.23371092  1  0.208143  0  0.019741  0.003367  0  3.973445  0
C  C178  1  0.28807610  0.23371184  0.72428521  1  0.229485  0  0.019727  0.003489  0  3.973737  0
C  C179  1  0.21193946  0.27571382  0.76628907  1  0.208223  0  0.019765  0.003412  0  3.973394  0
C  C180  1  0.62122647  0.73605467  0.29469080  1  0.207656  0  0.089146  0.037118  0  3.91316  0
C  C181  1  0.87875516  0.70531043  0.26394283  1  0.20748  0  0.089184  0.037215  0  3.913245  0
C  C182  1  0.37877435  0.26394373  0.70531137  1  0.207792  0  0.089168  0.037114  0  3.913276  0
C  C183  1  0.12124105  0.29468743  0.73605699  1  0.207479  0  0.08919  0.037239  0  3.913222  0
C  C184  1  0.54905534  0.77614597  0.33120256  1  0.012737  0  -0.047497  -0.098917  0  3.875972  0
C  C185  1  0.95092973  0.66880492  0.22385124  1  0.011336  0  -0.047586  -0.099079  0  3.876277  0
C  C186  1  0.45094325  0.22385295  0.66879810  1  0.012133  0  -0.047558  -0.098991  0  3.876266  0
C  C187  1  0.04907052  0.33119558  0.77614878  1  0.011344  0  -0.047576  -0.099098  0  3.876347  0
C  C188  1  0.20308628  0.10633352  0.49522317  1  1.383385  0  0.185264  0.33404  0  4.08603  0
C  C189  1  0.29691197  0.50477737  0.89367080  1  1.382987  0  0.185158  0.334165  0  4.086526  0
C  C190  1  0.79691038  0.89366906  0.50477304  1  1.382559  0  0.185162  0.333978  0  4.086484  0
C  C191  1  0.70308804  0.49522051  0.10633174  1  1.383162  0  0.18526  0.334189  0  4.086224  0
C  C192  1  0.02805660  0.10083882  0.52830920  1  0.247957  0  -0.129906  -0.265829  0  3.86664  0
C  C193  1  0.47194191  0.47169267  0.89916290  1  0.247998  0  -0.129843  -0.265788  0  3.866357  0
C  C194  1  0.97194246  0.89916486  0.47169249  1  0.248026  0  -0.1299  -0.26589  0  3.866427  0
C  C195  1  0.52805970  0.52830625  0.10083683  1  0.248012  0  -0.129843  -0.265814  0  3.866401  0
C  C196  1  0.08717097  0.18478924  0.45636932  1  0.231455  0  -0.133321  -0.277812  0  3.916782  0
C  C197  1  0.41282465  0.54363158  0.81521189  1  0.231514  0  -0.133336  -0.277892  0  3.916901  0
C  C198  1  0.91282454  0.81520914  0.54363058  1  0.231552  0  -0.133313  -0.277743  0  3.916571  0
C  C199  1  0.58717323  0.45636785  0.18478730  1  0.231486  0  -0.13329  -0.277874  0  3.916937  0
C  C200  1  0.19189651  0.89745677  0.35385025  1  1.381951  0  0.185861  0.326681  0  4.091168  0
C  C201  1  0.30809635  0.64615822  0.10254900  1  1.38217  0  0.185812  0.326701  0  4.091268  0
C  C202  1  0.80810203  0.10254164  0.64615235  1  1.381994  0  0.185866  0.326688  0  4.09118  0
C  C203  1  0.69190245  0.35384283  0.89745418  1  1.382164  0  0.185844  0.326662  0  4.091142  0
C  C204  1  0.11608929  0.95467634  0.26609322  1  0.237456  0  -0.133059  -0.267262  0  3.881453  0
C  C205  1  0.38389837  0.73391497  0.04532625  1  0.237295  0  -0.133159  -0.267388  0  3.881312  0
C  C206  1  0.88390768  0.04532152  0.73390766  1  0.237982  0  -0.133126  -0.267351  0  3.881551  0
C  C207  1  0.61609360  0.26608606  0.95467461  1  0.237334  0  -0.13314  -0.26741  0  3.881417  0
C  C208  1  0.11646703  0.82370009  0.24403673  1  0.228307  0  -0.138454  -0.289257  0  3.90843  0
C  C209  1  0.38353686  0.75596740  0.17630394  1  0.229839  0  -0.138466  -0.289372  0  3.908656  0
C  C210  1  0.88353525  0.17629778  0.75596436  1  0.228701  0  -0.138414  -0.28911  0  3.908487  0
C  C211  1  0.61646871  0.24403313  0.82369835  1  0.229305  0  -0.138352  -0.289152  0  3.908564  0
C  C212  1  0.42214887  0.96165184  0.25221622  1  0.939677  0  0.102344  0.240847  0  3.939964  0
C  C213  1  0.07786282  0.74778694  0.03836547  1  0.939732  0  0.102409  0.240927  0  3.94013  0
C  C214  1  0.57786546  0.03835334  0.74777090  1  0.939318  0  0.102401  0.241215  0  3.940275  0
C  C215  1  0.92213441  0.25220529  0.96165689  1  0.939266  0  0.102407  0.241294  0  3.939335  0
C  C216  1  0.50880169  0.96697134  0.20776526  1  0.516983  0  0.097706  0.128885  0  4.050238  0
C  C217  1  0.99120779  0.79223534  0.03303377  1  0.517445  0  0.097805  0.128815  0  4.050388  0
C  C218  1  0.49122082  0.03302439  0.79222839  1  0.517104  0  0.097694  0.128658  0  4.0501  0
C  C219  1  0.00879974  0.20776201  0.96696792  1  0.517445  0  0.097807  0.128829  0  4.050243  0
C  C220  1  0.56858417  0.03107486  0.22243922  1  -0.053758  0  -0.071277  -0.124552  0  3.920794  0
C  C221  1  0.93141205  0.77755481  0.96893416  1  -0.053544  0  -0.07144  -0.124726  0  3.921224  0
C  C222  1  0.43142502  0.96892405  0.77755770  1  -0.053829  0  -0.071172  -0.124278  0  3.920919  0
C  C223  1  0.06859554  0.22244309  0.03106919  1  -0.053682  0  -0.071358  -0.124723  0  3.920967  0
C  C224  1  0.64329700  0.04045732  0.17682342  1  -0.011155  0  -0.069325  -0.021086  0  3.957671  0
C  C225  1  0.85670232  0.82316840  0.95955083  1  -0.011842  0  -0.069362  -0.021036  0  3.957863  0
C  C226  1  0.35672176  0.95954640  0.82317953  1  -0.011439  0  -0.069394  -0.020973  0  3.957708  0
C  C227  1  0.14330107  0.17682524  0.04044990  1  -0.011834  0  -0.069358  -0.02104  0  3.957778  0
C  C228  1  0.65750058  0.98441045  0.12051072  1  -0.017963  0  -0.073796  -0.10708  0  3.947113  0
C  C229  1  0.84249554  0.87948131  0.01559909  1  -0.017996  0  -0.07382  -0.107292  0  3.947324  0
C  C230  1  0.34251701  0.01559694  0.87948730  1  -0.017695  0  -0.073844  -0.10742  0  3.947106  0
C  C231  1  0.15751597  0.12051813  0.98439752  1  -0.018506  0  -0.073928  -0.107505  0  3.947315  0
C  C232  1  0.59708979  0.92079081  0.11199563  1  0.517365  0  0.046466  0.085266  0  3.981077  0
C  C233  1  0.90290713  0.88800212  0.07921722  1  0.517453  0  0.046505  0.08525  0  3.98122  0
C  C234  1  0.40292622  0.07921601  0.88799706  1  0.517002  0  0.04657  0.085293  0  3.981101  0
C  C235  1  0.09708949  0.11199207  0.92078698  1  0.517415  0  0.046547  0.085379  0  3.980884  0
N  N236  1  0.57444078  0.30461103  0.32401316  1  0.38646  0  0.058746  0.517599  0  4.204129  0
N  N237  1  0.92555386  0.67598321  0.69539007  1  0.388055  0  0.058784  0.517707  0  4.203923  0
N  N238  1  0.42555563  0.69538891  0.67598350  1  0.388057  0  0.058757  0.517725  0  4.204112  0
N  N239  1  0.07444123  0.32401093  0.30460943  1  0.3865  0  0.05879  0.51756  0  4.204056  0
N  N240  1  0.22720747  0.18225831  0.25681466  1  0.361881  0  0.06031  0.520248  0  4.185008  0
N  N241  1  0.27278470  0.74319436  0.81774285  1  0.361782  0  0.060335  0.520444  0  4.183879  0
N  N242  1  0.77279030  0.81774006  0.74318430  1  0.361893  0  0.060458  0.520466  0  4.184544  0
N  N243  1  0.72720969  0.25680823  0.18225482  1  0.362009  0  0.060427  0.52053  0  4.184347  0
N  N244  1  0.35413970  0.39199361  0.34246580  1  0.432149  0  0.057819  0.514885  0  4.210297  0
N  N245  1  0.14585751  0.65754140  0.60800804  1  0.432021  0  0.057847  0.514788  0  4.210847  0
N  N246  1  0.64585430  0.60800478  0.65753611  1  0.432153  0  0.057975  0.514901  0  4.210447  0
N  N247  1  0.85412854  0.34246115  0.39198674  1  0.431826  0  0.05764  0.514652  0  4.210304  0
N  N248  1  0.41959273  0.20612473  0.12891100  1  0.414451  0  0.0598  0.515143  0  4.201671  0
N  N249  1  0.08039940  0.87109027  0.79387958  1  0.413878  0  0.059813  0.515057  0  4.201653  0
N  N250  1  0.58040541  0.79387735  0.87108825  1  0.413777  0  0.059827  0.515217  0  4.20169  0
N  N251  1  0.91959702  0.12890970  0.20612122  1  0.414658  0  0.059815  0.515135  0  4.201663  0
N  N252  1  0.81243515  0.87958676  0.27605136  1  0.374586  0  0.063716  0.504285  0  4.216214  0
N  N253  1  0.68753541  0.72393750  0.12040915  1  0.374802  0  0.063879  0.501998  0  4.216658  0
N  N254  1  0.18756252  0.12041055  0.72394737  1  0.374665  0  0.063892  0.50457  0  4.216029  0
N  N255  1  0.31246216  0.27605876  0.87958986  1  0.374812  0  0.063853  0.501918  0  4.216461  0
N  N256  1  0.59994828  0.65875111  0.27588488  1  0.383744  0  0.063432  0.520325  0  4.198742  0
N  N257  1  0.90004105  0.72412611  0.34124322  1  0.383495  0  0.063425  0.520481  0  4.19827  0
N  N258  1  0.40004891  0.34124888  0.72411801  1  0.383787  0  0.063431  0.520328  0  4.198622  0
N  N259  1  0.09995678  0.27587279  0.65875534  1  0.383555  0  0.063473  0.52053  0  4.198184  0
N  N260  1  0.11024571  0.12962904  0.49373118  1  -1.203461  0  -0.274819  0.035289  0  3.71781  0
N  N261  1  0.38975049  0.50626785  0.87037221  1  -1.203425  0  -0.274795  0.035261  0  3.717908  0
N  N262  1  0.88975091  0.87037303  0.50626802  1  -1.203386  0  -0.274792  0.0353  0  3.717701  0
N  N263  1  0.61024961  0.49373107  0.12962850  1  -1.203491  0  -0.274863  0.035251  0  3.718013  0
N  N264  1  0.13879291  0.89227593  0.29256703  1  -1.199143  0  -0.273323  0.045714  0  3.724096  0
N  N265  1  0.36120105  0.70744121  0.10772764  1  -1.199352  0  -0.273382  0.045627  0  3.724435  0
N  N266  1  0.86120775  0.10772089  0.70743479  1  -1.199491  0  -0.273371  0.045676  0  3.724267  0
N  N267  1  0.63880003  0.29255986  0.89227614  1  -1.199035  0  -0.273425  0.045635  0  3.724345  0
N  N268  1  0.52276419  0.91185560  0.15373211  1  -1.197663  0  -0.306212  -0.268544  0  3.274347  0
N  N269  1  0.97723468  0.84626383  0.08815068  1  -1.197957  0  -0.306231  -0.268451  0  3.274618  0
N  N270  1  0.47725292  0.08814696  0.84625765  1  -1.197905  0  -0.306237  -0.268563  0  3.274366  0
N  N271  1  0.02276214  0.15373245  0.91185089  1  -1.197997  0  -0.306251  -0.268517  0  3.274318  0
O  O272  1  0.38897782  0.05895738  0.42912292  1  -1.195974  0  -0.380638  -0.652699  0  2.363646  0
O  O273  1  0.11102384  0.57088100  0.94104496  1  -1.195988  0  -0.38061  -0.652749  0  2.3636  0
O  O274  1  0.61102082  0.94104206  0.57087681  1  -1.196028  0  -0.380619  -0.652712  0  2.363587  0
O  O275  1  0.88898384  0.42911794  0.05895552  1  -1.195857  0  -0.38059  -0.65281  0  2.363648  0
O  O276  1  0.55229191  0.10528946  0.45235026  1  -1.178853  0  -0.365664  -0.619644  0  2.312316  0
O  O277  1  0.94771158  0.54764909  0.89471179  1  -1.178842  0  -0.365621  -0.619621  0  2.3123  0
O  O278  1  0.44770723  0.89470734  0.54764944  1  -1.178928  0  -0.365651  -0.619644  0  2.312306  0
O  O279  1  0.05229183  0.45235253  0.10529529  1  -1.178924  0  -0.365655  -0.619633  0  2.312229  0
O  O280  1  0.26849271  0.49465697  0.12768227  1  -1.181779  0  -0.373162  -0.615921  0  2.189932  0
O  O281  1  0.23150828  0.87231406  0.50534911  1  -1.182474  0  -0.372984  -0.615771  0  2.190114  0
O  O282  1  0.73151941  0.50534880  0.87231366  1  -1.182536  0  -0.373062  -0.615858  0  2.190082  0
O  O283  1  0.76849355  0.12768697  0.49465109  1  -1.182556  0  -0.373015  -0.615787  0  2.190073  0
O  O284  1  0.22690440  0.39744733  0.04211637  1  -1.173337  0  -0.363797  -0.606867  0  2.227659  0
O  O285  1  0.27310034  0.95788324  0.60254941  1  -1.173108  0  -0.363902  -0.606966  0  2.227688  0
O  O286  1  0.77310691  0.60254999  0.95788029  1  -1.173111  0  -0.363857  -0.606869  0  2.227659  0
O  O287  1  0.72689854  0.04211881  0.39744677  1  -1.17309  0  -0.363849  -0.606879  0  2.227603  0
O  O288  1  0.64019566  0.31857510  0.37393080  1  -0.451788  0  -0.11476  -0.314555  0  1.96744  0
O  O289  1  0.85979311  0.62606895  0.68143199  1  -0.452  0  -0.114823  -0.314635  0  1.967445  0
O  O290  1  0.35979386  0.68143174  0.62607070  1  -0.451938  0  -0.114824  -0.314663  0  1.967451  0
O  O291  1  0.14020269  0.37392468  0.31856846  1  -0.45199  0  -0.114815  -0.314557  0  1.96746  0
O  O292  1  0.57104365  0.33471473  0.27375366  1  -0.461894  0  -0.118901  -0.326487  0  1.998329  0
O  O293  1  0.92895439  0.72623795  0.66528132  1  -0.463258  0  -0.118885  -0.326467  0  1.998138  0
O  O294  1  0.42895027  0.66528306  0.72623987  1  -0.463303  0  -0.118845  -0.326464  0  1.998341  0
O  O295  1  0.07104429  0.27375407  0.33471632  1  -0.46195  0  -0.118925  -0.326481  0  1.998323  0
O  O296  1  0.16790081  0.13436624  0.26695406  1  -0.428741  0  -0.115668  -0.311206  0  1.927645  0
O  O297  1  0.33208686  0.73306911  0.86564361  1  -0.428371  0  -0.115822  -0.311323  0  1.926875  0
O  O298  1  0.83209345  0.86563480  0.73304792  1  -0.428629  0  -0.1158  -0.31134  0  1.927483  0
O  O299  1  0.66790831  0.26694145  0.13435837  1  -0.428653  0  -0.115855  -0.311368  0  1.927182  0
O  O300  1  0.20510132  0.22306117  0.21790613  1  -0.46822  0  -0.120522  -0.333225  0  2.015236  0
O  O301  1  0.29489498  0.78209430  0.77693089  1  -0.468474  0  -0.120417  -0.33319  0  2.014828  0
O  O302  1  0.79490003  0.77693507  0.78208993  1  -0.468201  0  -0.12055  -0.333301  0  2.015101  0
O  O303  1  0.70509941  0.21790829  0.22306627  1  -0.468425  0  -0.120462  -0.333257  0  2.015199  0
O  O304  1  0.35279389  0.34915760  0.38143678  1  -0.475988  0  -0.126148  -0.327122  0  1.941959  0
O  O305  1  0.14720656  0.61857034  0.65084376  1  -0.475732  0  -0.126151  -0.327141  0  1.942271  0
O  O306  1  0.64720627  0.65084186  0.61856559  1  -0.475895  0  -0.126277  -0.327207  0  1.942112  0
O  O307  1  0.85279004  0.38143169  0.34914924  1  -0.475971  0  -0.126082  -0.327081  0  1.9418  0
O  O308  1  0.35806046  0.45699704  0.36319762  1  -0.441651  0  -0.111947  -0.294897  0  1.872393  0
O  O309  1  0.14193651  0.63680986  0.54300387  1  -0.44157  0  -0.11198  -0.294843  0  1.872489  0
O  O310  1  0.64193889  0.54300189  0.63680358  1  -0.441706  0  -0.111989  -0.29491  0  1.872348  0
O  O311  1  0.85804923  0.36318952  0.45699022  1  -0.441252  0  -0.111825  -0.29472  0  1.872459  0
O  O312  1  0.45198088  0.16785331  0.16757760  1  -0.446935  0  -0.120679  -0.328982  0  1.983162  0
O  O313  1  0.04801211  0.83242213  0.83215124  1  -0.446371  0  -0.120657  -0.328939  0  1.983134  0
O  O314  1  0.54801866  0.83214771  0.83242096  1  -0.446311  0  -0.12069  -0.329045  0  1.983339  0
O  O315  1  0.95198308  0.16757305  0.16784591  1  -0.447045  0  -0.120675  -0.329014  0  1.983361  0
O  O316  1  0.41536395  0.18999157  0.06334232  1  -0.482325  0  -0.117677  -0.32003  0  1.947498  0
O  O317  1  0.08463386  0.93665818  0.81001897  1  -0.482393  0  -0.117684  -0.319935  0  1.947394  0
O  O318  1  0.58463601  0.81001369  0.93665716  1  -0.482292  0  -0.117702  -0.32003  0  1.947327  0
O  O319  1  0.91536706  0.06334129  0.18998344  1  -0.482405  0  -0.117685  -0.319982  0  1.947307  0
O  O320  1  0.40257810  0.86959412  0.39649822  1  -1.15808  0  -0.338052  -0.578794  0  2.174947  0
O  O321  1  0.09740248  0.60350640  0.13040560  1  -1.158373  0  -0.338043  -0.578774  0  2.175306  0
O  O322  1  0.59741868  0.13040956  0.60350235  1  -1.158064  0  -0.337987  -0.578685  0  2.1751  0
O  O323  1  0.90259536  0.39649253  0.86959605  1  -1.158432  0  -0.338094  -0.578816  0  2.175148  0
O  O324  1  0.52728703  0.95409799  0.43265570  1  -1.212077  0  -0.409475  -0.72904  0  2.438583  0
O  O325  1  0.97270968  0.56734084  0.04590172  1  -1.212166  0  -0.409612  -0.729126  0  2.438452  0
O  O326  1  0.47271560  0.04590355  0.56734206  1  -1.212062  0  -0.409508  -0.729084  0  2.438694  0
O  O327  1  0.02729185  0.43265704  0.95409985  1  -1.212181  0  -0.409541  -0.729089  0  2.438342  0
O  O328  1  0.79869114  0.93066592  0.24909560  1  -0.430298  0  -0.098705  -0.295404  0  1.963076  0
O  O329  1  0.70127193  0.75089504  0.06932736  1  -0.429989  0  -0.098967  -0.294523  0  1.963108  0
O  O330  1  0.20130902  0.06933353  0.75090523  1  -0.430406  0  -0.098774  -0.295537  0  1.963018  0
O  O331  1  0.29872449  0.24910494  0.93067396  1  -0.430078  0  -0.098892  -0.294422  0  1.963097  0
O  O332  1  0.89648886  0.85985534  0.29213524  1  -0.448031  0  -0.10419  -0.308166  0  2.000414  0
O  O333  1  0.60349086  0.70784556  0.14014554  1  -0.448361  0  -0.104057  -0.306854  0  2.000354  0
O  O334  1  0.10350966  0.14014302  0.70786168  1  -0.448092  0  -0.104274  -0.308278  0  2.000315  0
O  O335  1  0.39650692  0.29215281  0.85985290  1  -0.448262  0  -0.1041  -0.306868  0  2.000178  0
O  O336  1  0.67256981  0.62143809  0.26193092  1  -0.448375  0  -0.110239  -0.311101  0  1.95256  0
O  O337  1  0.82742096  0.73807804  0.37855736  1  -0.44804  0  -0.110353  -0.311233  0  1.952452  0
O  O338  1  0.32742818  0.37856243  0.73807057  1  -0.448472  0  -0.110236  -0.311089  0  1.952475  0
O  O339  1  0.17257843  0.26192139  0.62144137  1  -0.448045  0  -0.110359  -0.311249  0  1.952416  0
O  O340  1  0.51051108  0.63539344  0.27495470  1  -0.453448  0  -0.11445  -0.316372  0  1.898093  0
O  O341  1  0.98948154  0.72506151  0.36459863  1  -0.453391  0  -0.11442  -0.316453  0  1.89777  0
O  O342  1  0.48948821  0.36460495  0.72504587  1  -0.453359  0  -0.114442  -0.316371  0  1.898095  0
O  O343  1  0.01051699  0.27493686  0.63539932  1  -0.453468  0  -0.114451  -0.316478  0  1.897796  0
O  O344  1  0.22952397  0.05874050  0.52568027  1  -1.178335  0  -0.365417  -0.555364  0  2.374867  0
O  O345  1  0.27047533  0.47432163  0.94126546  1  -1.178316  0  -0.365348  -0.555396  0  2.375191  0
O  O346  1  0.77047301  0.94126528  0.47431973  1  -1.177672  0  -0.365362  -0.555317  0  2.375218  0
O  O347  1  0.72952630  0.52567731  0.05873686  1  -1.178407  0  -0.365384  -0.555406  0  2.374883  0
O  O348  1  0.22299853  0.95533852  0.39550907  1  -1.189091  0  -0.387513  -0.569364  0  2.372479  0
O  O349  1  0.27699665  0.60449806  0.04466860  1  -1.18909  0  -0.38733  -0.569105  0  2.372514  0
O  O350  1  0.77700244  0.04466147  0.60449345  1  -1.189118  0  -0.387497  -0.569312  0  2.372426  0
O  O351  1  0.72300291  0.39550300  0.95533461  1  -1.189198  0  -0.387395  -0.569183  0  2.372384  0
O  O352  1  0.35075036  0.91679796  0.23781488  1  -1.058916  0  -0.232999  -0.318746  0  2.206894  0
O  O353  1  0.14925473  0.76219948  0.08320773  1  -1.059562  0  -0.232977  -0.318652  0  2.207257  0
O  O354  1  0.64925908  0.08319606  0.76216658  1  -1.058854  0  -0.232952  -0.318758  0  2.207245  0
O  O355  1  0.85072667  0.23779373  0.91680910  1  -1.058673  0  -0.233163  -0.319113  0  2.206339  0
