# generated using pymatgen
data_CuH20C18(NO)6
_symmetry_space_group_name_H-M   'P 1'
_cell_length_a   7.41280933
_cell_length_b   8.74598680
_cell_length_c   8.92790335
_cell_angle_alpha   65.02892718
_cell_angle_beta   82.98135264
_cell_angle_gamma   74.72622274
_symmetry_Int_Tables_number   1
_chemical_formula_structural   CuH20C18(NO)6
_chemical_formula_sum   'Cu1 H20 C18 N6 O6'
_cell_volume   506.13594425
_cell_formula_units_Z   1
loop_
 _symmetry_equiv_pos_site_id
 _symmetry_equiv_pos_as_xyz
  1  'x, y, z'
loop_
 _atom_site_type_symbol
 _atom_site_label
 _atom_site_symmetry_multiplicity
 _atom_site_fract_x
 _atom_site_fract_y
 _atom_site_fract_z
 _atom_site_occupancy
 _atom_site_pbe_cm5_charge
 _atom_site_pbe_ddec_charge
 _atom_site_pbe_ddec_spin_density
 _atom_site_pbe_ddec_sum_bond_order
 _atom_site_pbe_magmom
Cu  Cu0  1  0.49999965  0.99999857  0.99999478  1  0.72087  0.712358  0.70626  2.155624  0.54
H  H1  1  0.61271995  0.28655488  0.70645102  1  0.11654  0.093527  0.000663  1.016354  0.001
H  H2  1  0.38729139  0.71343178  0.29355202  1  0.116558  0.093591  0.000663  1.016395  0.001
H  H3  1  0.51808517  0.61336368  0.58836158  1  0.109811  0.111689  0.000696  1.013698  0.001
H  H4  1  0.48193541  0.38662335  0.41164734  1  0.109806  0.111706  0.000697  1.013656  0.001
H  H5  1  0.28420604  0.75762315  0.74581388  1  0.112521  0.121765  -3.8e-05  1.039702  0.0
H  H6  1  0.71581563  0.24236676  0.25418604  1  0.112546  0.121828  -3.8e-05  1.039631  0.0
H  H7  1  0.27319220  0.25010826  0.12000790  1  0.12163  0.119736  0.000892  1.059416  0.002
H  H8  1  0.72680382  0.74988857  0.87998693  1  0.121634  0.119747  0.000893  1.059459  0.002
H  H9  1  0.12262931  0.73259386  0.98336631  1  0.330054  0.301318  0.00021  0.905662  0.0
H  H10  1  0.87739365  0.26741920  0.01662040  1  0.330063  0.301235  0.00021  0.905777  0.0
H  H11  1  0.94370122  0.75667986  0.21194557  1  0.307489  0.288965  1.2e-05  0.964465  0.0
H  H12  1  0.05629328  0.24333665  0.78805999  1  0.307425  0.288801  1.2e-05  0.964585  0.0
H  H13  1  0.85114757  0.44135824  0.44656535  1  0.099852  0.073048  4e-06  1.008038  0.0
H  H14  1  0.14886224  0.55864557  0.55342245  1  0.099848  0.073027  4e-06  1.008121  0.0
H  H15  1  0.81892530  0.64175850  0.46732957  1  0.107642  0.08257  -2.2e-05  1.023478  0.0
H  H16  1  0.18107302  0.35823903  0.53267379  1  0.107655  0.082597  -2.2e-05  1.0235  0.0
H  H17  1  0.66852277  0.84058959  0.55186971  1  0.101691  0.127773  4e-06  1.022038  0.0
H  H18  1  0.33143281  0.15941832  0.44813194  1  0.101663  0.127775  4e-06  1.022083  0.0
H  H19  1  0.68927629  0.05162883  0.47501582  1  0.102876  0.126216  0.000948  0.979063  0.001
H  H20  1  0.31067693  0.94837651  0.52499034  1  0.10291  0.126243  0.000948  0.979086  0.001
C  C21  1  0.51487735  0.35639425  0.77024239  1  0.026262  0.046955  -0.000909  3.970924  0.0
C  C22  1  0.48512630  0.64359656  0.22976306  1  0.026257  0.046807  -0.000908  3.971238  0.0
C  C23  1  0.46070390  0.53670355  0.70635742  1  -0.084372  -0.104094  0.003709  3.999202  0.004
C  C24  1  0.53931005  0.46329046  0.29364605  1  -0.084376  -0.103989  0.003709  3.999244  0.004
C  C25  1  0.33335498  0.61725095  0.79341792  1  -0.071214  -0.130604  -0.004177  3.904457  -0.002
C  C26  1  0.66665816  0.38274071  0.20658312  1  -0.071305  -0.130885  -0.004177  3.904493  -0.002
C  C27  1  0.26582351  0.51623238  0.94754332  1  0.110091  0.231341  0.003689  4.021826  0.004
C  C28  1  0.73419101  0.48375920  0.05245765  1  0.110134  0.231456  0.00369  4.021731  0.004
C  C29  1  0.32359337  0.33467371  0.00328716  1  0.029314  -0.040068  -0.001345  3.899995  -0.001
C  C30  1  0.67640189  0.66531911  0.99671370  1  0.0293  -0.04015  -0.001345  3.900015  -0.001
C  C31  1  0.08277234  0.51909732  0.19646981  1  0.324367  0.603588  3.5e-05  4.240374  0.0
C  C32  1  0.91723012  0.48091380  0.80353265  1  0.324318  0.603395  3.6e-05  4.240517  0.0
C  C33  1  0.91998751  0.54178203  0.43797614  1  -0.066823  -0.027452  3e-06  3.933799  0.0
C  C34  1  0.08001639  0.45822310  0.56201835  1  -0.066836  -0.027526  3e-06  3.933903  0.0
C  C35  1  0.61425699  0.97928462  0.29380933  1  0.197946  0.610207  -0.002446  4.154052  -0.004
C  C36  1  0.38572915  0.02071410  0.70618555  1  0.197928  0.610239  -0.002446  4.154202  -0.004
C  C37  1  0.59884649  0.97328701  0.46878638  1  -0.170179  -0.283374  0.008244  3.904278  0.008
C  C38  1  0.40112381  0.02671659  0.53120678  1  -0.170155  -0.283368  0.008242  3.9043  0.008
N  N39  1  0.44408564  0.25919598  0.91520128  1  -0.352741  -0.213429  0.057776  3.681235  0.074
N  N40  1  0.55591415  0.74079385  0.08480371  1  -0.352734  -0.213325  0.057778  3.68124  0.074
N  N41  1  0.14622076  0.60064809  0.03592666  1  -0.399733  -0.416159  0.000551  3.552508  0.001
N  N42  1  0.85379293  0.39936278  0.96406607  1  -0.399668  -0.415927  0.000551  3.552687  0.001
N  N43  1  0.98660741  0.62460724  0.27022711  1  -0.434721  -0.41537  -5e-06  3.541563  0.0
N  N44  1  0.01338928  0.37541331  0.72977005  1  -0.434697  -0.415156  -5e-06  3.541816  0.0
O  O45  1  0.11297714  0.35850385  0.26981659  1  -0.302544  -0.524029  0.000183  2.160119  0.0
O  O46  1  0.88702808  0.64151494  0.73017944  1  -0.302522  -0.523982  0.000184  2.160031  0.0
O  O47  1  0.46419413  0.97871153  0.23367202  1  -0.323541  -0.528946  0.078014  2.309924  0.109
O  O48  1  0.53580014  0.02127433  0.76631805  1  -0.323604  -0.529014  0.078008  2.309971  0.109
O  O49  1  0.76864938  0.98266217  0.21672262  1  -0.352634  -0.611325  0.000179  2.099333  0.002
O  O50  1  0.23135741  0.01732996  0.78330340  1  -0.352603  -0.61133  0.000179  2.099402  0.002
