# generated using pymatgen
data_ZnH20C19NO4
_symmetry_space_group_name_H-M   'P 1'
_cell_length_a   10.37319178
_cell_length_b   10.90219978
_cell_length_c   11.71208405
_cell_angle_alpha   83.96496717
_cell_angle_beta   81.41943879
_cell_angle_gamma   85.30607954
_symmetry_Int_Tables_number   1
_chemical_formula_structural   ZnH20C19NO4
_chemical_formula_sum   'Zn2 H40 C38 N2 O8'
_cell_volume   1299.49263204
_cell_formula_units_Z   2
loop_
 _symmetry_equiv_pos_site_id
 _symmetry_equiv_pos_as_xyz
  1  'x, y, z'
loop_
 _atom_site_type_symbol
 _atom_site_label
 _atom_site_symmetry_multiplicity
 _atom_site_fract_x
 _atom_site_fract_y
 _atom_site_fract_z
 _atom_site_occupancy
 _atom_site_pbe_bader_charge
 _atom_site_pbe_bader_spin_density
 _atom_site_pbe_cm5_charge
 _atom_site_pbe_ddec_charge
 _atom_site_pbe_ddec_spin_density
 _atom_site_pbe_ddec_sum_bond_order
 _atom_site_pbe_magmom
Zn  Zn0  1  0.64696164  0.49373862  0.49790944  1  1.310051  0  0.689312  0.878923  0  2.285356  0
Zn  Zn1  1  0.35279349  0.47267469  0.51978282  1  1.309074  0  0.692932  0.876784  0  2.315449  0
H  H2  1  0.45110776  0.11770764  0.42395620  1  0.107624  0  0.106026  0.111383  0  0.997134  0
H  H3  1  0.31456361  0.98196110  0.84951150  1  -0.010757  0  0.08233  0.105204  0  1.012068  0
H  H4  1  0.20925374  0.86104259  0.85175359  1  0.010989  0  0.081853  0.106916  0  1.008593  0
H  H5  1  0.34041691  0.83988511  0.93509594  1  0.015538  0  0.083487  0.108213  0  1.011359  0
H  H6  1  0.40068022  0.72901894  0.75564924  1  0.030044  0  0.08715  0.085141  0  0.991955  0
H  H7  1  0.50243152  0.85138604  0.75170085  1  0.019978  0  0.086722  0.077206  0  0.994717  0
H  H8  1  0.35215410  0.98640815  0.62947309  1  0.015389  0  0.091882  0.091138  0  1.001047  0
H  H9  1  0.26261750  0.85481584  0.62636165  1  0.0428  0  0.092319  0.092657  0  0.989379  0
H  H10  1  0.76360236  0.40368810  0.68762324  1  0.113563  0  0.105108  0.107975  0  1.039872  0
H  H11  1  0.71785056  0.40214398  0.90118602  1  0.080171  0  0.101035  0.098818  0  1.017533  0
H  H12  1  0.81673613  0.55145021  0.00235695  1  0.061172  0  0.103259  0.097349  0  1.016  0
H  H13  1  0.59392515  0.88667401  0.38469634  1  0.090433  0  0.104336  0.110486  0  0.994278  0
H  H14  1  0.97099909  0.69899911  0.88886904  1  0.052724  0  0.104465  0.098997  0  1.003852  0
H  H15  1  0.02186681  0.69766009  0.67626376  1  0.06992  0  0.103453  0.102232  0  1.019174  0
H  H16  1  0.26967587  0.60538127  0.31957846  1  0.185001  0  0.106765  0.116904  0  1.065061  0
H  H17  1  0.32651548  0.80420826  0.20983187  1  0.068908  0  0.106659  0.102052  0  0.986068  0
H  H18  1  0.19172070  0.99839345  0.25394343  1  0.095233  0  0.107731  0.100971  0  0.985371  0
H  H19  1  0.99659501  0.98970130  0.40678898  1  0.080537  0  0.105529  0.101912  0  1.001413  0
H  H20  1  0.93986199  0.79170936  0.51700677  1  0.059196  0  0.104384  0.099204  0  1.023844  0
H  H21  1  0.03217533  0.70565990  0.17879076  1  0.027855  0  0.08108  0.108492  0  1.04001  0
H  H22  1  0.95301592  0.60048377  0.11182282  1  0.011897  0  0.085032  0.11073  0  1.018618  0
H  H23  1  0.89490647  0.75861175  0.10838318  1  0.030079  0  0.087376  0.115791  0  0.99816  0
H  H24  1  0.76698004  0.97638272  0.87397228  1  0.029433  0  0.084383  0.110576  0  1.004377  0
H  H25  1  0.74519354  0.64508246  0.26059765  1  0.077268  0  0.091282  0.09402  0  0.994205  0
H  H26  1  0.84123309  0.73214684  0.32946215  1  0.035155  0  0.088181  0.081793  0  1.003446  0
H  H27  1  0.00104150  0.52467009  0.32987232  1  0.004165  0  0.101884  0.075498  0  1.01022  0
H  H28  1  0.85675695  0.45511154  0.31364350  1  0.084543  0  0.112658  0.10487  0  0.970075  0
H  H29  1  0.11814053  0.11981131  0.68154342  1  0.014995  0  0.087849  0.11486  0  0.998969  0
H  H30  1  0.99390468  0.13525809  0.59092973  1  -0.006778  0  0.082696  0.106283  0  1.029276  0
H  H31  1  0.14085629  0.04392809  0.55260380  1  0.073727  0  0.08411  0.108642  0  1.046421  0
H  H32  1  0.14548307  0.24981812  0.43217645  1  0.030505  0  0.088983  0.084574  0  0.968052  0
H  H33  1  0.26802797  0.23531786  0.52403346  1  0.042371  0  0.092538  0.098099  0  1.032107  0
H  H34  1  0.12223244  0.35407617  0.66844438  1  0.082669  0  0.115594  0.110073  0  0.955613  0
H  H35  1  0.75706019  0.86897889  0.77217404  1  0.037539  0  0.080019  0.104432  0  1.029675  0
H  H36  1  0.99374394  0.35822565  0.58284962  1  0.004159  0  0.102858  0.076649  0  1.02013  0
H  H37  1  0.88133772  0.97516967  0.74501704  1  0.0027  0  0.081579  0.107572  0  1.018055  0
H  H38  1  0.70435585  0.15239913  0.73254020  1  0.016203  0  0.087143  0.081584  0  0.984197  0
H  H39  1  0.58519181  0.04267809  0.75426631  1  0.023219  0  0.086986  0.076511  0  0.989925  0
H  H40  1  0.70965012  0.94624368  0.57245269  1  0.049779  0  0.090434  0.089448  0  0.996788  0
H  H41  1  0.80213507  0.07903732  0.54807020  1  0.016629  0  0.089206  0.083332  0  1.006546  0
C  C42  1  0.46546757  0.71305841  0.50872700  1  1.554888  0  0.216772  0.596944  0  4.162212  0
C  C43  1  0.60126534  0.11332061  0.52561747  1  -0.039178  0  -0.019388  -0.035973  0  3.922524  0
C  C44  1  0.52846202  0.92481005  0.45662053  1  -0.06647  0  -0.085034  -0.107581  0  3.980695  0
C  C45  1  0.52358635  0.05837646  0.46679910  1  -0.084857  0  -0.081703  -0.099102  0  3.975412  0
C  C46  1  0.06874601  0.56658073  0.49562464  1  0.663331  0  0.165985  0.16693  0  3.91422  0
C  C47  1  0.92437471  0.55377117  0.53953715  1  0.632061  0  0.165449  0.168477  0  3.938862  0
C  C48  1  0.70670923  0.04471312  0.58687069  1  -0.000511  0  -0.16193  -0.17059  0  3.964335  0
C  C49  1  0.68773137  0.05711508  0.71808079  1  -0.010923  0  -0.166022  -0.091967  0  3.951812  0
C  C50  1  0.77813203  0.96458097  0.78088768  1  -0.071166  0  -0.248545  -0.358804  0  3.988788  0
C  C51  1  0.36005594  0.88495066  0.63234159  1  -0.007213  0  -0.161677  -0.172634  0  3.954977  0
C  C52  1  0.40083892  0.83039896  0.74924292  1  0.009004  0  -0.165017  -0.088734  0  3.93423  0
C  C53  1  0.58122352  0.25071176  0.52807413  1  1.558081  0  0.211386  0.592312  0  4.163204  0
C  C54  1  0.31156258  0.88096025  0.85207465  1  -0.039175  0  -0.244888  -0.353614  0  3.993361  0
C  C55  1  0.88976058  0.55546212  0.66633817  1  0.019356  0  -0.015713  0.0105  0  4.009336  0
C  C56  1  0.80603282  0.47073418  0.73113137  1  -0.078635  0  -0.077579  -0.090631  0  3.940902  0
C  C57  1  0.78166235  0.46902744  0.85140743  1  -0.025059  0  -0.0861  -0.070059  0  3.988077  0
C  C58  1  0.83840728  0.55247386  0.90827741  1  -0.024414  0  -0.080937  -0.071324  0  3.989005  0
C  C59  1  0.92414934  0.63533840  0.84477243  1  -0.032666  0  -0.088481  -0.082347  0  4.022468  0
C  C60  1  0.95178080  0.63528989  0.72468709  1  -0.04436  0  -0.083616  -0.112215  0  3.95497  0
C  C61  1  0.10468168  0.68474945  0.42979377  1  -0.02788  0  -0.009011  0.025208  0  3.990275  0
C  C62  1  0.21185016  0.68992923  0.34086076  1  -0.088412  0  -0.078048  -0.093824  0  3.920415  0
C  C63  1  0.24287709  0.80203638  0.27850214  1  -0.056832  0  -0.084519  -0.079177  0  4.001907  0
C  C64  1  0.51669293  0.45306189  0.28783729  1  1.697057  0  0.223152  0.656429  0  4.253219  0
C  C65  1  0.16691257  0.91062312  0.30278743  1  -0.053558  0  -0.077058  -0.065453  0  3.992712  0
C  C66  1  0.05779044  0.90591670  0.38862407  1  -0.048304  0  -0.087776  -0.082618  0  4.014956  0
C  C67  1  0.02608045  0.79378979  0.45108822  1  -0.036645  0  -0.081769  -0.116131  0  3.960371  0
C  C68  1  0.89367246  0.53541847  0.34463403  1  0.296072  0  -0.069508  -0.042284  0  3.881692  0
C  C69  1  0.84553938  0.65441609  0.27613285  1  -0.03747  0  -0.167459  -0.115489  0  3.921333  0
C  C70  1  0.93635126  0.68115423  0.16243194  1  -0.059158  0  -0.245102  -0.354482  0  3.96044  0
C  C71  1  0.10017408  0.35831712  0.57881637  1  0.286023  0  -0.071389  -0.048655  0  3.91117  0
C  C72  1  0.16180124  0.24266358  0.52353130  1  -0.002725  0  -0.169013  -0.125444  0  3.942137  0
C  C73  1  0.10039217  0.12897687  0.59062340  1  -0.065075  0  -0.244961  -0.354205  0  3.968942  0
C  C74  1  0.43880916  0.46068344  0.73304377  1  1.689927  0  0.21879  0.648269  0  4.267305  0
C  C75  1  0.51293789  0.43973838  0.16658527  1  0.205364  0  -0.022261  -0.157363  0  3.860326  0
C  C76  1  0.44438788  0.44605770  0.85649467  1  0.192493  0  -0.01171  -0.138016  0  3.856391  0
C  C77  1  0.48854208  0.43719936  0.06766911  1  -0.342546  0  -0.024029  0.010905  0  4.270053  0
C  C78  1  0.46362315  0.43932811  0.95768143  1  -0.354233  0  -0.024035  0.001637  0  4.270537  0
C  C79  1  0.45423241  0.84654373  0.52984522  1  0.002791  0  -0.016923  -0.03266  0  3.925056  0
N  N80  1  0.15043860  0.47368348  0.51802745  1  -1.162476  0  -0.312278  -0.244272  0  3.363759  0
N  N81  1  0.84427809  0.53529628  0.46939480  1  -1.165007  0  -0.311092  -0.245863  0  3.381307  0
O  O82  1  0.57591625  0.66754118  0.46208683  1  -1.178854  0  -0.325552  -0.57212  0  2.37092  0
O  O83  1  0.46727860  0.30022996  0.52153979  1  -1.18596  0  -0.31224  -0.573684  0  2.393532  0
O  O84  1  0.36318879  0.65389218  0.53931713  1  -1.167977  0  -0.307063  -0.543569  0  2.38097  0
O  O85  1  0.68169659  0.30962906  0.53526797  1  -1.163256  0  -0.324621  -0.552408  0  2.289946  0
O  O86  1  0.62557967  0.45215730  0.32420991  1  -1.151133  0  -0.29629  -0.53572  0  2.269712  0
O  O87  1  0.33386453  0.43593410  0.69875839  1  -1.127814  0  -0.306929  -0.522216  0  2.231233  0
O  O88  1  0.40261168  0.46699840  0.34539614  1  -1.147412  0  -0.303414  -0.537339  0  2.358684  0
O  O89  1  0.54136947  0.49894273  0.67082844  1  -1.154798  0  -0.299462  -0.553337  0  2.318159  0
