# generated using pymatgen
data_H6AuC7N3
_symmetry_space_group_name_H-M   'P 1'
_cell_length_a   7.68894335
_cell_length_b   12.04498667
_cell_length_c   15.75229486
_cell_angle_alpha   90.00047129
_cell_angle_beta   89.99858111
_cell_angle_gamma   89.99871975
_symmetry_Int_Tables_number   1
_chemical_formula_structural   H6AuC7N3
_chemical_formula_sum   'H48 Au8 C56 N24'
_cell_volume   1458.87074962
_cell_formula_units_Z   8
loop_
 _symmetry_equiv_pos_site_id
 _symmetry_equiv_pos_as_xyz
  1  'x, y, z'
loop_
 _atom_site_type_symbol
 _atom_site_label
 _atom_site_symmetry_multiplicity
 _atom_site_fract_x
 _atom_site_fract_y
 _atom_site_fract_z
 _atom_site_occupancy
 _atom_site_hle17_bader_spin_density
 _atom_site_hle17_ddec_charge
 _atom_site_hle17_ddec_spin_density
 _atom_site_hle17_ddec_sum_bond_order
 _atom_site_hle17_magmom
 _atom_site_hse06_10hf_bader_spin_density
 _atom_site_hse06_10hf_ddec_charge
 _atom_site_hse06_10hf_ddec_spin_density
 _atom_site_hse06_10hf_ddec_sum_bond_order
 _atom_site_hse06_10hf_magmom
 _atom_site_hse06_bader_spin_density
 _atom_site_hse06_ddec_charge
 _atom_site_hse06_ddec_spin_density
 _atom_site_hse06_ddec_sum_bond_order
 _atom_site_hse06_magmom
 _atom_site_pbe_bader_spin_density
 _atom_site_pbe_cm5_charge
 _atom_site_pbe_ddec_charge
 _atom_site_pbe_ddec_spin_density
 _atom_site_pbe_ddec_sum_bond_order
 _atom_site_pbe_magmom
H  H0  1  0.06432959  0.28088085  0.17976415  1  0  0.099698  0  0.959203  0  0  0.110753  0  1.022709  0  0  0.113579  0  1.021357  0  0  0.094394  0.108737  0  1.023723  0
H  H1  1  0.56432193  0.71912100  0.32023728  1  0  0.099738  0  0.959072  0  0  0.110724  0  1.022672  0  0  0.113546  0  1.021327  0  0  0.094378  0.108707  0  1.023682  0
H  H2  1  0.93567570  0.21912391  0.67975250  1  0  0.0997  0  0.959206  0  0  0.110719  0  1.022717  0  0  0.113545  0  1.021367  0  0  0.094367  0.108707  0  1.02374  0
H  H3  1  0.43568579  0.78087309  0.82024032  1  0  0.099663  0  0.959338  0  0  0.110676  0  1.022878  0  0  0.113501  0  1.02153  0  0  0.094358  0.108657  0  1.023894  0
H  H4  1  0.93566847  0.71910363  0.82023584  1  0  0.099714  0  0.959063  0  0  0.110832  0  1.022529  0  0  0.113658  0  1.021184  0  0  0.094453  0.108816  0  1.023541  0
H  H5  1  0.43566702  0.28087676  0.67975572  1  0  0.099729  0  0.959201  0  0  0.110785  0  1.022691  0  0  0.11361  0  1.021345  0  0  0.094405  0.108772  0  1.023703  0
H  H6  1  0.06433666  0.78087967  0.32023860  1  0  0.099661  0  0.959212  0  0  0.110679  0  1.022772  0  0  0.113501  0  1.021428  0  0  0.094373  0.108664  0  1.023787  0
H  H7  1  0.56432007  0.21911388  0.17976538  1  0  0.099708  0  0.959034  0  0  0.110667  0  1.022677  0  0  0.113493  0  1.021333  0  0  0.094374  0.108647  0  1.023694  0
H  H8  1  0.90163087  0.17682730  0.29305463  1  0  0.074378  0  0.971323  0  0  0.08546  0  1.036769  0  0  0.08844  0  1.035062  0  0  0.087113  0.0833  0  1.038095  0
H  H9  1  0.40162830  0.82318143  0.20695288  1  0  0.074395  0  0.971451  0  0  0.085426  0  1.036951  0  0  0.088402  0  1.03524  0  0  0.087113  0.083266  0  1.038278  0
H  H10  1  0.09837648  0.32317286  0.79303662  1  0  0.074202  0  0.971522  0  0  0.085274  0  1.037009  0  0  0.088245  0  1.035297  0  0  0.08708  0.083113  0  1.038328  0
H  H11  1  0.59837477  0.67682141  0.70694504  1  0  0.07431  0  0.97143  0  0  0.085414  0  1.036846  0  0  0.088392  0  1.035136  0  0  0.087084  0.083254  0  1.038173  0
H  H12  1  0.09836198  0.82316216  0.70695297  1  0  0.074424  0  0.971377  0  0  0.085447  0  1.036913  0  0  0.088427  0  1.0352  0  0  0.087112  0.083287  0  1.038236  0
H  H13  1  0.59836845  0.17682630  0.79303949  1  0  0.074325  0  0.971584  0  0  0.085393  0  1.037057  0  0  0.08837  0  1.035347  0  0  0.087101  0.083236  0  1.038379  0
H  H14  1  0.90165279  0.67682325  0.20695194  1  0  0.074347  0  0.971365  0  0  0.085396  0  1.036866  0  0  0.088369  0  1.035155  0  0  0.087071  0.083238  0  1.038188  0
H  H15  1  0.40163109  0.32317054  0.29305685  1  0  0.074453  0  0.971261  0  0  0.085508  0  1.03674  0  0  0.088491  0  1.035033  0  0  0.087112  0.083341  0  1.038069  0
H  H16  1  0.88169604  0.97231025  0.28913848  1  0  0.087507  0  0.984563  0  0  0.098625  0  1.043494  0  0  0.100475  0  1.044491  0  0  0.090897  0.097275  0  1.042939  0
H  H17  1  0.38168640  0.02769461  0.21086737  1  0  0.087495  0  0.984605  0  0  0.098615  0  1.043528  0  0  0.100464  0  1.044528  0  0  0.090896  0.097262  0  1.042976  0
H  H18  1  0.11830937  0.52769015  0.78913169  1  0  0.087512  0  0.9845  0  0  0.098626  0  1.043439  0  0  0.100479  0  1.044431  0  0  0.090878  0.097271  0  1.042885  0
H  H19  1  0.61831992  0.47230384  0.71085355  1  0  0.08746  0  0.984518  0  0  0.09857  0  1.043465  0  0  0.10042  0  1.044464  0  0  0.090851  0.097216  0  1.042914  0
H  H20  1  0.11829682  0.02767672  0.71086405  1  0  0.087318  0  0.984777  0  0  0.098391  0  1.04374  0  0  0.100237  0  1.044747  0  0  0.090834  0.097041  0  1.043183  0
H  H21  1  0.61831166  0.97231145  0.78913198  1  0  0.087515  0  0.984449  0  0  0.098599  0  1.043412  0  0  0.100453  0  1.044401  0  0  0.090878  0.09725  0  1.042853  0
H  H22  1  0.88169649  0.47231011  0.21087147  1  0  0.08746  0  0.984553  0  0  0.098574  0  1.043481  0  0  0.100427  0  1.044473  0  0  0.090853  0.097224  0  1.042926  0
H  H23  1  0.38168984  0.52768811  0.28914771  1  0  0.087412  0  0.984608  0  0  0.098525  0  1.043543  0  0  0.100376  0  1.044541  0  0  0.090821  0.097171  0  1.042991  0
H  H24  1  0.02083623  0.86336329  0.17205436  1  0  0.089288  0  0.967183  0  0  0.101236  0  1.032257  0  0  0.104098  0  1.03024  0  0  0.092475  0.099117  0  1.033838  0
H  H25  1  0.52083325  0.13664083  0.32794061  1  0  0.089307  0  0.96736  0  0  0.101244  0  1.03243  0  0  0.104099  0  1.030419  0  0  0.092513  0.099147  0  1.033992  0
H  H26  1  0.97918422  0.63663834  0.67205119  1  0  0.089312  0  0.967335  0  0  0.101295  0  1.032368  0  0  0.104152  0  1.030356  0  0  0.092497  0.099185  0  1.033941  0
H  H27  1  0.47918793  0.36335721  0.82793794  1  0  0.089323  0  0.967162  0  0  0.101245  0  1.032272  0  0  0.104112  0  1.030248  0  0  0.09249  0.099123  0  1.033856  0
H  H28  1  0.97915793  0.13662617  0.82794499  1  0  0.089289  0  0.967262  0  0  0.101265  0  1.032301  0  0  0.104123  0  1.030285  0  0  0.092506  0.099155  0  1.033875  0
H  H29  1  0.47918431  0.86336025  0.67205430  1  0  0.089339  0  0.967144  0  0  0.101315  0  1.032185  0  0  0.104171  0  1.030174  0  0  0.092475  0.099208  0  1.033754  0
H  H30  1  0.02082424  0.36336357  0.32795134  1  0  0.089258  0  0.967396  0  0  0.101244  0  1.032422  0  0  0.104101  0  1.030411  0  0  0.092483  0.099143  0  1.033986  0
H  H31  1  0.52081923  0.63663225  0.17206522  1  0  0.089406  0  0.967239  0  0  0.101356  0  1.032294  0  0  0.104212  0  1.030281  0  0  0.092544  0.099241  0  1.03387  0
H  H32  1  0.36720081  0.14085582  0.89479928  1  0  0.308827  0  0.919527  0  0  0.29491  0  0.986712  0  0  0.300864  0  0.981565  0  0  0.29538  0.290719  0  0.990347  0
H  H33  1  0.86719779  0.85915127  0.60519692  1  0  0.30883  0  0.919661  0  0  0.294865  0  0.986857  0  0  0.30082  0  0.981713  0  0  0.295337  0.290672  0  0.990494  0
H  H34  1  0.63278707  0.35915456  0.39480264  1  0  0.308857  0  0.919713  0  0  0.294892  0  0.986977  0  0  0.300852  0  0.981821  0  0  0.295301  0.290697  0  0.990615  0
H  H35  1  0.13280134  0.64085546  0.10519669  1  0  0.308864  0  0.919491  0  0  0.294939  0  0.986665  0  0  0.300892  0  0.981523  0  0  0.295398  0.290745  0  0.990304  0
H  H36  1  0.63279335  0.85915688  0.10520960  1  0  0.308851  0  0.919641  0  0  0.294919  0  0.986765  0  0  0.300872  0  0.981619  0  0  0.295346  0.290727  0  0.990402  0
H  H37  1  0.13279897  0.14085148  0.39480053  1  0  0.308769  0  0.919651  0  0  0.294859  0  0.986816  0  0  0.300815  0  0.981669  0  0  0.295326  0.290666  0  0.990452  0
H  H38  1  0.36720838  0.64085400  0.60520623  1  0  0.308893  0  0.919414  0  0  0.294993  0  0.98656  0  0  0.30095  0  0.981405  0  0  0.295386  0.290801  0  0.990196  0
H  H39  1  0.86719932  0.35915309  0.89480012  1  0  0.308816  0  0.919706  0  0  0.294856  0  0.9869  0  0  0.300812  0  0.981754  0  0  0.295325  0.290662  0  0.990538  0
H  H40  1  0.33410925  0.00130749  0.88529122  1  0  0.327377  0  0.891915  0  0  0.314618  0  0.952287  0  0  0.320279  0  0.948377  0  0  0.304055  0.310674  0  0.954998  0
H  H41  1  0.83409559  0.99869923  0.61469967  1  0  0.327313  0  0.892043  0  0  0.314488  0  0.952477  0  0  0.320148  0  0.948569  0  0  0.304003  0.310544  0  0.955188  0
H  H42  1  0.66588561  0.49870279  0.38529633  1  0  0.327402  0  0.891903  0  0  0.314678  0  0.952227  0  0  0.320339  0  0.948316  0  0  0.304065  0.31073  0  0.954944  0
H  H43  1  0.16590176  0.50131009  0.11470324  1  0  0.327359  0  0.892067  0  0  0.314488  0  0.95258  0  0  0.32015  0  0.948667  0  0  0.303987  0.31054  0  0.955295  0
H  H44  1  0.66589531  0.99870106  0.11470941  1  0  0.327414  0  0.892009  0  0  0.314684  0  0.952346  0  0  0.320345  0  0.948437  0  0  0.304113  0.31074  0  0.955057  0
H  H45  1  0.16589726  0.00130434  0.38529715  1  0  0.327395  0  0.892011  0  0  0.314594  0  0.952416  0  0  0.320255  0  0.948506  0  0  0.304033  0.310647  0  0.955131  0
H  H46  1  0.33410724  0.50130660  0.61470746  1  0  0.327444  0  0.891968  0  0  0.314684  0  0.952326  0  0  0.320346  0  0.948415  0  0  0.304079  0.310738  0  0.955039  0
H  H47  1  0.83409760  0.49870096  0.88529802  1  0  0.327343  0  0.891962  0  0  0.314517  0  0.952399  0  0  0.320178  0  0.94849  0  0  0.304011  0.310569  0  0.95511  0
Au  Au48  1  0.24068370  0.81865130  0.99932029  1  0  0.264681  0  1.947186  0  0  0.168731  0  2.39352  0  0  0.189141  0  2.367271  0  0  0.395668  0.155028  0  2.411022  0
Au  Au49  1  0.74068013  0.18135259  0.50067362  1  0  0.26475  0  1.947138  0  0  0.168668  0  2.393404  0  0  0.189113  0  2.36711  0  0  0.395653  0.154963  0  2.410918  0
Au  Au50  1  0.75932535  0.68135217  0.49931973  1  0  0.264718  0  1.947183  0  0  0.168667  0  2.393498  0  0  0.189098  0  2.367222  0  0  0.395701  0.154968  0  2.411004  0
Au  Au51  1  0.25931865  0.31865109  0.00067299  1  0  0.264735  0  1.947215  0  0  0.168639  0  2.393483  0  0  0.189102  0  2.367172  0  0  0.395668  0.154941  0  2.410988  0
Au  Au52  1  0.75931826  0.18134812  0.00067589  1  0  0.26463  0  1.947107  0  0  0.168598  0  2.393399  0  0  0.189044  0  2.367127  0  0  0.395643  0.154899  0  2.410911  0
Au  Au53  1  0.25932313  0.81865348  0.49932129  1  0  0.264641  0  1.947298  0  0  0.168625  0  2.393604  0  0  0.18907  0  2.367307  0  0  0.395632  0.154919  0  2.411113  0
Au  Au54  1  0.24068311  0.31865306  0.50067835  1  0  0.264645  0  1.947068  0  0  0.168727  0  2.393405  0  0  0.189158  0  2.367131  0  0  0.395667  0.155035  0  2.410909  0
Au  Au55  1  0.74067681  0.68134917  0.99933652  1  0  0.26467  0  1.94737  0  0  0.168561  0  2.393682  0  0  0.189062  0  2.367318  0  0  0.395662  0.154867  0  2.411185  0
C  C56  1  0.26008073  0.06823438  0.99800942  1  0  0.583851  0  3.831091  0  0  0.531422  0  4.107618  0  0  0.55805  0  4.116678  0  0  0.316056  0.513618  0  4.100887  0
C  C57  1  0.76007907  0.93176508  0.50198236  1  0  0.583773  0  3.831133  0  0  0.531451  0  4.107403  0  0  0.558074  0  4.116464  0  0  0.316015  0.513646  0  4.10067  0
C  C58  1  0.73992142  0.43177046  0.49801195  1  0  0.583841  0  3.831117  0  0  0.531547  0  4.107358  0  0  0.558169  0  4.11642  0  0  0.316089  0.51375  0  4.100625  0
C  C59  1  0.23992270  0.56823391  0.00198419  1  0  0.583729  0  3.831353  0  0  0.531398  0  4.107661  0  0  0.558019  0  4.116719  0  0  0.31599  0.513594  0  4.100925  0
C  C60  1  0.73989262  0.93176670  0.00199120  1  0  0.583952  0  3.831347  0  0  0.531443  0  4.107891  0  0  0.558059  0  4.11696  0  0  0.316185  0.51364  0  4.101157  0
C  C61  1  0.23989948  0.06823268  0.49801636  1  0  0.5841  0  3.830836  0  0  0.531528  0  4.107481  0  0  0.558151  0  4.116545  0  0  0.316176  0.513728  0  4.100753  0
C  C62  1  0.26008834  0.56823810  0.50198994  1  0  0.584048  0  3.830848  0  0  0.531443  0  4.107666  0  0  0.558068  0  4.116734  0  0  0.316104  0.513644  0  4.100932  0
C  C63  1  0.76009877  0.43177133  0.99801771  1  0  0.583978  0  3.831172  0  0  0.531364  0  4.107772  0  0  0.557981  0  4.116833  0  0  0.316064  0.513565  0  4.101037  0
C  C64  1  0.13091529  0.12937384  0.11332787  1  0  0.126935  0  3.871866  0  0  0.120976  0  4.115679  0  0  0.1259  0  4.138061  0  0  0.068949  0.117601  0  4.100581  0
C  C65  1  0.63090278  0.87063122  0.38666895  1  0  0.126726  0  3.872295  0  0  0.120837  0  4.116064  0  0  0.12576  0  4.138446  0  0  0.068838  0.117458  0  4.100969  0
C  C66  1  0.86909208  0.37063187  0.61332497  1  0  0.126938  0  3.871934  0  0  0.120887  0  4.115821  0  0  0.125808  0  4.138206  0  0  0.068846  0.117511  0  4.100729  0
C  C67  1  0.36909507  0.62936772  0.88667057  1  0  0.126906  0  3.87196  0  0  0.121005  0  4.115788  0  0  0.125932  0  4.138164  0  0  0.068897  0.117627  0  4.100684  0
C  C68  1  0.86908147  0.87061562  0.88667402  1  0  0.127026  0  3.871718  0  0  0.121125  0  4.115505  0  0  0.126049  0  4.137874  0  0  0.068912  0.117754  0  4.100415  0
C  C69  1  0.36909008  0.12936986  0.61332278  1  0  0.126892  0  3.871803  0  0  0.120847  0  4.115783  0  0  0.125765  0  4.138158  0  0  0.068897  0.11748  0  4.100689  0
C  C70  1  0.13091638  0.62937254  0.38667438  1  0  0.12687  0  3.871846  0  0  0.120892  0  4.115675  0  0  0.125809  0  4.138055  0  0  0.068865  0.117523  0  4.100584  0
C  C71  1  0.63091339  0.37062340  0.11333450  1  0  0.126866  0  3.871997  0  0  0.12083  0  4.115957  0  0  0.125753  0  4.138331  0  0  0.068807  0.117461  0  4.100864  0
C  C72  1  0.05569804  0.19056283  0.17892213  1  0  -0.161446  0  3.791248  0  0  -0.179301  0  4.041753  0  0  -0.181834  0  4.062093  0  0  -0.111694  -0.17753  0  4.027964  0
C  C73  1  0.55569884  0.80944744  0.32108004  1  0  -0.161452  0  3.791468  0  0  -0.179271  0  4.041974  0  0  -0.181802  0  4.06231  0  0  -0.111668  -0.177508  0  4.028185  0
C  C74  1  0.94429819  0.30944358  0.67891476  1  0  -0.161485  0  3.791264  0  0  -0.179285  0  4.041825  0  0  -0.181818  0  4.062159  0  0  -0.111658  -0.177539  0  4.028057  0
C  C75  1  0.44430755  0.69055413  0.82107923  1  0  -0.16139  0  3.791326  0  0  -0.17921  0  4.04186  0  0  -0.181743  0  4.062197  0  0  -0.111626  -0.17745  0  4.028074  0
C  C76  1  0.94429742  0.80943327  0.82108674  1  0  -0.161505  0  3.79124  0  0  -0.179439  0  4.041791  0  0  -0.181981  0  4.062138  0  0  -0.111765  -0.177673  0  4.027998  0
C  C77  1  0.44429792  0.19056195  0.67891106  1  0  -0.161517  0  3.791035  0  0  -0.179333  0  4.041612  0  0  -0.181868  0  4.06195  0  0  -0.111733  -0.177562  0  4.027821  0
C  C78  1  0.05570637  0.69055751  0.32108522  1  0  -0.161295  0  3.791241  0  0  -0.179109  0  4.041761  0  0  -0.181642  0  4.0621  0  0  -0.111599  -0.177344  0  4.027973  0
C  C79  1  0.55569051  0.30944281  0.17892203  1  0  -0.16132  0  3.791465  0  0  -0.17905  0  4.041985  0  0  -0.181587  0  4.062333  0  0  -0.111564  -0.177284  0  4.028197  0
C  C80  1  0.96659508  0.13170739  0.24195869  1  0  -0.103494  0  3.82958  0  0  -0.114537  0  4.078112  0  0  -0.117731  0  4.101986  0  0  -0.117917  -0.112342  0  4.061928  0
C  C81  1  0.46660132  0.86829628  0.25804360  1  0  -0.103439  0  3.829749  0  0  -0.114433  0  4.078264  0  0  -0.117617  0  4.102128  0  0  -0.117858  -0.112246  0  4.062104  0
C  C82  1  0.03340706  0.36829472  0.74194937  1  0  -0.103256  0  3.829495  0  0  -0.114299  0  4.078029  0  0  -0.117474  0  4.101883  0  0  -0.117846  -0.112113  0  4.061869  0
C  C83  1  0.53340956  0.63170129  0.75803563  1  0  -0.103491  0  3.829498  0  0  -0.114547  0  4.078031  0  0  -0.117741  0  4.101909  0  0  -0.117967  -0.112358  0  4.061858  0
C  C84  1  0.03339387  0.86827875  0.75804828  1  0  -0.103611  0  3.829639  0  0  -0.114649  0  4.078211  0  0  -0.117838  0  4.102079  0  0  -0.117932  -0.112459  0  4.062045  0
C  C85  1  0.53341624  0.13171062  0.74194940  1  0  -0.103419  0  3.829529  0  0  -0.114454  0  4.078049  0  0  -0.117641  0  4.101916  0  0  -0.117831  -0.112269  0  4.061888  0
C  C86  1  0.96660921  0.63170637  0.25804681  1  0  -0.103468  0  3.829377  0  0  -0.114493  0  4.077901  0  0  -0.117674  0  4.101761  0  0  -0.117848  -0.112304  0  4.061735  0
C  C87  1  0.46658980  0.36828900  0.24196055  1  0  -0.103694  0  3.829639  0  0  -0.114725  0  4.078133  0  0  -0.117925  0  4.102014  0  0  -0.118005  -0.112538  0  4.061973  0
C  C88  1  0.95467229  0.01517682  0.23973586  1  0  -0.10024  0  3.814065  0  0  -0.110768  0  4.059319  0  0  -0.112743  0  4.082901  0  0  -0.11714  -0.10939  0  4.043424  0
C  C89  1  0.45467038  0.98482701  0.26026086  1  0  -0.10031  0  3.813893  0  0  -0.110842  0  4.059152  0  0  -0.112815  0  4.082728  0  0  -0.117201  -0.109467  0  4.043264  0
C  C90  1  0.04532606  0.48482443  0.73972967  1  0  -0.100131  0  3.814035  0  0  -0.11066  0  4.05931  0  0  -0.112634  0  4.082884  0  0  -0.117067  -0.109283  0  4.043413  0
C  C91  1  0.54532738  0.51516975  0.76025582  1  0  -0.100239  0  3.814039  0  0  -0.110752  0  4.0593  0  0  -0.112727  0  4.08288  0  0  -0.117101  -0.109375  0  4.043399  0
C  C92  1  0.04532317  0.98481098  0.76026413  1  0  -0.099839  0  3.813722  0  0  -0.11029  0  4.058924  0  0  -0.112258  0  4.082495  0  0  -0.117005  -0.10892  0  4.043031  0
C  C93  1  0.54533418  0.01517905  0.73972834  1  0  -0.100103  0  3.81399  0  0  -0.110593  0  4.059218  0  0  -0.112566  0  4.082793  0  0  -0.117115  -0.109221  0  4.043322  0
C  C94  1  0.95468110  0.51517416  0.26026905  1  0  -0.100086  0  3.813737  0  0  -0.110588  0  4.058975  0  0  -0.112561  0  4.082547  0  0  -0.117019  -0.109215  0  4.043078  0
C  C95  1  0.45465897  0.48482220  0.23974417  1  0  -0.100059  0  3.813535  0  0  -0.110535  0  4.058723  0  0  -0.112508  0  4.082299  0  0  -0.117049  -0.109164  0  4.042831  0
C  C96  1  0.03108955  0.95363315  0.17440282  1  0  -0.160094  0  3.790275  0  0  -0.176593  0  4.039633  0  0  -0.179552  0  4.059636  0  0  -0.110592  -0.174568  0  4.026186  0
C  C97  1  0.53108990  0.04637913  0.32559585  1  0  -0.160142  0  3.789921  0  0  -0.176603  0  4.039317  0  0  -0.179567  0  4.059344  0  0  -0.110633  -0.1746  0  4.025868  0
C  C98  1  0.96891517  0.54637266  0.67440237  1  0  -0.160265  0  3.790374  0  0  -0.176826  0  4.03976  0  0  -0.179793  0  4.05979  0  0  -0.110715  -0.174815  0  4.026311  0
C  C99  1  0.46891580  0.45362802  0.82558752  1  0  -0.160158  0  3.790218  0  0  -0.176606  0  4.039581  0  0  -0.179578  0  4.059605  0  0  -0.110642  -0.174585  0  4.026137  0
C  C100  1  0.96890070  0.04636295  0.82559971  1  0  -0.160039  0  3.789926  0  0  -0.17656  0  4.039309  0  0  -0.179525  0  4.059325  0  0  -0.110565  -0.174545  0  4.025863  0
C  C101  1  0.46891986  0.95363109  0.67439906  1  0  -0.16032  0  3.790336  0  0  -0.17684  0  4.039743  0  0  -0.179814  0  4.059769  0  0  -0.110639  -0.174822  0  4.026292  0
C  C102  1  0.03109459  0.45362593  0.32560333  1  0  -0.160091  0  3.79024  0  0  -0.176643  0  4.039611  0  0  -0.179617  0  4.059636  0  0  -0.110673  -0.17463  0  4.026161  0
C  C103  1  0.53108486  0.54637057  0.17440866  1  0  -0.160372  0  3.789983  0  0  -0.176836  0  4.039376  0  0  -0.179805  0  4.059394  0  0  -0.110717  -0.174817  0  4.025935  0
C  C104  1  0.11891969  0.01168346  0.11108155  1  0  0.139905  0  3.847588  0  0  0.132806  0  4.090127  0  0  0.137921  0  4.113136  0  0  0.073647  0.129357  0  4.074618  0
C  C105  1  0.61891719  0.98831597  0.38892050  1  0  0.140057  0  3.84755  0  0  0.132817  0  4.090148  0  0  0.137922  0  4.113165  0  0  0.073666  0.129373  0  4.074639  0
C  C106  1  0.88107869  0.48832306  0.61108115  1  0  0.139961  0  3.84753  0  0  0.132874  0  4.090009  0  0  0.137982  0  4.113025  0  0  0.073695  0.129431  0  4.074501  0
C  C107  1  0.38108185  0.51168051  0.88891234  1  0  0.140034  0  3.847426  0  0  0.132776  0  4.09005  0  0  0.137881  0  4.113062  0  0  0.073684  0.129332  0  4.074535  0
C  C108  1  0.88107447  0.98830268  0.88892416  1  0  0.139697  0  3.847645  0  0  0.132505  0  4.090273  0  0  0.137628  0  4.113257  0  0  0.073567  0.129047  0  4.074777  0
C  C109  1  0.38107956  0.01168097  0.61108013  1  0  0.140069  0  3.847539  0  0  0.132922  0  4.090153  0  0  0.138053  0  4.113138  0  0  0.073687  0.129462  0  4.07466  0
C  C110  1  0.11892587  0.51168134  0.38892138  1  0  0.13969  0  3.847663  0  0  0.132661  0  4.09019  0  0  0.13779  0  4.113181  0  0  0.073641  0.129202  0  4.074703  0
C  C111  1  0.61892011  0.48831061  0.11108702  1  0  0.14007  0  3.847559  0  0  0.132788  0  4.090307  0  0  0.137911  0  4.113291  0  0  0.07367  0.12933  0  4.074807  0
N  N112  1  0.20341019  0.97546270  0.03826803  1  0  -0.428382  0  3.387833  0  0  -0.34485  0  3.678802  0  0  -0.369612  0  3.69307  0  0  -0.384557  -0.328121  0  3.668488  0
N  N113  1  0.70340830  0.02454134  0.46172411  1  0  -0.42843  0  3.387874  0  0  -0.344678  0  3.678544  0  0  -0.369459  0  3.692882  0  0  -0.384495  -0.327947  0  3.668214  0
N  N114  1  0.79658844  0.52454248  0.53827143  1  0  -0.428377  0  3.387976  0  0  -0.344706  0  3.678653  0  0  -0.369476  0  3.69296  0  0  -0.384522  -0.327982  0  3.668325  0
N  N115  1  0.29658399  0.47545896  0.96172054  1  0  -0.428487  0  3.387891  0  0  -0.344697  0  3.678558  0  0  -0.3695  0  3.692947  0  0  -0.384541  -0.327967  0  3.668229  0
N  N116  1  0.79656836  0.02453755  0.96172688  1  0  -0.428341  0  3.387734  0  0  -0.344656  0  3.678613  0  0  -0.369477  0  3.693032  0  0  -0.384558  -0.327919  0  3.668287  0
N  N117  1  0.29657935  0.97545808  0.53827461  1  0  -0.428516  0  3.387832  0  0  -0.344797  0  3.678723  0  0  -0.369582  0  3.693038  0  0  -0.384563  -0.328058  0  3.668395  0
N  N118  1  0.20342002  0.47546275  0.46172919  1  0  -0.428246  0  3.387596  0  0  -0.344756  0  3.678712  0  0  -0.369532  0  3.693004  0  0  -0.384557  -0.328018  0  3.668386  0
N  N119  1  0.70342838  0.52454296  0.03828707  1  0  -0.428581  0  3.388144  0  0  -0.344726  0  3.678958  0  0  -0.369548  0  3.693378  0  0  -0.384546  -0.327995  0  3.66863  0
N  N120  1  0.22007443  0.16262318  0.04090053  1  0  -0.453101  0  3.430677  0  0  -0.368179  0  3.723266  0  0  -0.393118  0  3.737212  0  0  -0.388681  -0.35136  0  3.713261  0
N  N121  1  0.72006203  0.83737814  0.45909522  1  0  -0.452922  0  3.430765  0  0  -0.368139  0  3.723386  0  0  -0.393072  0  3.737327  0  0  -0.3886  -0.351318  0  3.71338  0
N  N122  1  0.77992881  0.33738093  0.54090040  1  0  -0.453131  0  3.430775  0  0  -0.368256  0  3.723347  0  0  -0.39319  0  3.737292  0  0  -0.388664  -0.351441  0  3.713345  0
N  N123  1  0.27994385  0.66262241  0.95910066  1  0  -0.452964  0  3.430822  0  0  -0.36822  0  3.723517  0  0  -0.393152  0  3.737456  0  0  -0.388593  -0.35139  0  3.713495  0
N  N124  1  0.77991322  0.83737791  0.95910644  1  0  -0.453152  0  3.430699  0  0  -0.368247  0  3.723318  0  0  -0.393188  0  3.737274  0  0  -0.388712  -0.351437  0  3.713318  0
N  N125  1  0.27991912  0.16262128  0.54090160  1  0  -0.453153  0  3.430681  0  0  -0.368245  0  3.723442  0  0  -0.393182  0  3.73739  0  0  -0.388703  -0.351435  0  3.713445  0
N  N126  1  0.22007835  0.66262348  0.45910022  1  0  -0.453117  0  3.430641  0  0  -0.368169  0  3.723352  0  0  -0.393105  0  3.737301  0  0  -0.388689  -0.351351  0  3.713349  0
N  N127  1  0.72007371  0.33738117  0.04090123  1  0  -0.453024  0  3.430545  0  0  -0.368043  0  3.7232  0  0  -0.392977  0  3.737145  0  0  -0.388584  -0.351239  0  3.713208  0
N  N128  1  0.35157633  0.06696975  0.92471795  1  0  -0.6957  0  3.155798  0  0  -0.665276  0  3.395216  0  0  -0.684121  0  3.392483  0  0  -0.588032  -0.652059  0  3.396643  0
N  N129  1  0.85157740  0.93303922  0.57527335  1  0  -0.695716  0  3.156039  0  0  -0.665183  0  3.39555  0  0  -0.684031  0  3.392823  0  0  -0.587998  -0.651972  0  3.396983  0
N  N130  1  0.64841654  0.43304344  0.42472223  1  0  -0.695777  0  3.155901  0  0  -0.665439  0  3.395217  0  0  -0.684288  0  3.392486  0  0  -0.588006  -0.652228  0  3.39665  0
N  N131  1  0.14843105  0.56696885  0.07527628  1  0  -0.695644  0  3.155926  0  0  -0.665137  0  3.395443  0  0  -0.683981  0  3.392714  0  0  -0.587953  -0.651925  0  3.396878  0
N  N132  1  0.64840352  0.93304461  0.07528267  1  0  -0.695802  0  3.156122  0  0  -0.665348  0  3.395616  0  0  -0.684191  0  3.392893  0  0  -0.588131  -0.652135  0  3.397045  0
N  N133  1  0.14840635  0.06696187  0.42472537  1  0  -0.695777  0  3.155902  0  0  -0.66526  0  3.39542  0  0  -0.684108  0  3.392687  0  0  -0.58804  -0.652047  0  3.396854  0
N  N134  1  0.35157241  0.56696844  0.57528156  1  0  -0.695931  0  3.155813  0  0  -0.66544  0  3.39533  0  0  -0.684289  0  3.392597  0  0  -0.588081  -0.652228  0  3.396763  0
N  N135  1  0.85158262  0.43304136  0.92472561  1  0  -0.695739  0  3.156091  0  0  -0.665103  0  3.395648  0  0  -0.683946  0  3.39292  0  0  -0.587976  -0.651891  0  3.397078  0
