# generated using pymatgen
data_CsH5C6(ClO3)2
_symmetry_space_group_name_H-M   'P 1'
_cell_length_a   7.65510401
_cell_length_b   9.23815825
_cell_length_c   14.91261471
_cell_angle_alpha   95.72385923
_cell_angle_beta   90.00102117
_cell_angle_gamma   89.99954764
_symmetry_Int_Tables_number   1
_chemical_formula_structural   CsH5C6(ClO3)2
_chemical_formula_sum   'Cs4 H20 C24 Cl8 O24'
_cell_volume   1049.34799300
_cell_formula_units_Z   4
loop_
 _symmetry_equiv_pos_site_id
 _symmetry_equiv_pos_as_xyz
  1  'x, y, z'
loop_
 _atom_site_type_symbol
 _atom_site_label
 _atom_site_symmetry_multiplicity
 _atom_site_fract_x
 _atom_site_fract_y
 _atom_site_fract_z
 _atom_site_occupancy
 _atom_site_hle17_bader_spin_density
 _atom_site_hle17_ddec_charge
 _atom_site_hle17_ddec_spin_density
 _atom_site_hle17_ddec_sum_bond_order
 _atom_site_hle17_magmom
 _atom_site_hse06_10hf_bader_spin_density
 _atom_site_hse06_10hf_ddec_charge
 _atom_site_hse06_10hf_ddec_spin_density
 _atom_site_hse06_10hf_ddec_sum_bond_order
 _atom_site_hse06_10hf_magmom
 _atom_site_hse06_bader_spin_density
 _atom_site_hse06_ddec_charge
 _atom_site_hse06_ddec_spin_density
 _atom_site_hse06_ddec_sum_bond_order
 _atom_site_hse06_magmom
 _atom_site_pbe_bader_spin_density
 _atom_site_pbe_cm5_charge
 _atom_site_pbe_ddec_charge
 _atom_site_pbe_ddec_spin_density
 _atom_site_pbe_ddec_sum_bond_order
 _atom_site_pbe_magmom
Cs  Cs0  1  0.43307077  0.01854587  0.84182979  1  0  0.919796  0  0.580831  0  0  0.841183  0  0.829538  0  0  0.85937  0  0.804182  0  0  0.7517  0.827847  0  0.847555  0
Cs  Cs1  1  0.93304883  0.48146510  0.65817629  1  0  0.919828  0  0.580813  0  0  0.841229  0  0.829524  0  0  0.859421  0  0.804154  0  0  0.751717  0.827891  0  0.847542  0
Cs  Cs2  1  0.56695605  0.98145293  0.15817320  1  0  0.919855  0  0.580772  0  0  0.841214  0  0.829536  0  0  0.85944  0  0.804107  0  0  0.751679  0.827873  0  0.847557  0
Cs  Cs3  1  0.06692443  0.51854458  0.34182796  1  0  0.919784  0  0.580831  0  0  0.841191  0  0.82951  0  0  0.859362  0  0.804177  0  0  0.751692  0.827845  0  0.847529  0
H  H4  1  0.03919865  0.11387760  0.73927700  1  0  0.442859  0  0.856166  0  0  0.404652  0  0.929173  0  0  0.418164  0  0.909767  0  0  0.301632  0.39518  0  0.942741  0
H  H5  1  0.53919553  0.38613704  0.76071955  1  0  0.442888  0  0.856116  0  0  0.404683  0  0.929114  0  0  0.418204  0  0.9097  0  0  0.301696  0.395212  0  0.942682  0
H  H6  1  0.96081118  0.88613858  0.26072626  1  0  0.442982  0  0.855959  0  0  0.404674  0  0.929115  0  0  0.418218  0  0.909673  0  0  0.301637  0.395202  0  0.942683  0
H  H7  1  0.46079863  0.61386403  0.23928826  1  0  0.443068  0  0.855881  0  0  0.404821  0  0.928936  0  0  0.418362  0  0.909499  0  0  0.301734  0.395348  0  0.942505  0
H  H8  1  0.96068710  0.05806258  0.84336698  1  0  0.473573  0  0.814345  0  0  0.437928  0  0.88058  0  0  0.450357  0  0.862934  0  0  0.306532  0.42924  0  0.892898  0
H  H9  1  0.46065579  0.44193732  0.65663115  1  0  0.473547  0  0.814357  0  0  0.437898  0  0.880597  0  0  0.450327  0  0.862949  0  0  0.306576  0.429216  0  0.892903  0
H  H10  1  0.03935409  0.94193835  0.15663411  1  0  0.473597  0  0.814292  0  0  0.437943  0  0.880545  0  0  0.450374  0  0.862892  0  0  0.306542  0.429257  0  0.892859  0
H  H11  1  0.53931094  0.55806388  0.34338270  1  0  0.473611  0  0.814291  0  0  0.437946  0  0.880556  0  0  0.450383  0  0.862898  0  0  0.306542  0.429257  0  0.892876  0
H  H12  1  0.84437620  0.90110834  0.92910696  1  0  0.433933  0  0.864884  0  0  0.396816  0  0.9389  0  0  0.408356  0  0.92185  0  0  0.292983  0.388642  0  0.950958  0
H  H13  1  0.34432403  0.59888384  0.57088466  1  0  0.433811  0  0.865028  0  0  0.396688  0  0.939054  0  0  0.408229  0  0.922005  0  0  0.292976  0.388521  0  0.9511  0
H  H14  1  0.15566237  0.09887926  0.07088067  1  0  0.433898  0  0.864932  0  0  0.396786  0  0.938951  0  0  0.408327  0  0.9219  0  0  0.292991  0.388616  0  0.951001  0
H  H15  1  0.65563877  0.40111508  0.42912437  1  0  0.433932  0  0.864912  0  0  0.396841  0  0.938882  0  0  0.408383  0  0.921831  0  0  0.293002  0.388672  0  0.950932  0
H  H16  1  0.78479064  0.06742817  0.94183939  1  0  0.425049  0  0.878486  0  0  0.39671  0  0.93762  0  0  0.406606  0  0.923132  0  0  0.296968  0.389777  0  0.947763  0
H  H17  1  0.28473599  0.43256855  0.55814970  1  0  0.425061  0  0.878437  0  0  0.396675  0  0.937663  0  0  0.406571  0  0.923175  0  0  0.296884  0.389738  0  0.947816  0
H  H18  1  0.21524924  0.93256383  0.05815049  1  0  0.425047  0  0.878461  0  0  0.39666  0  0.937688  0  0  0.406556  0  0.9232  0  0  0.296889  0.389722  0  0.947841  0
H  H19  1  0.71523073  0.56743250  0.44185744  1  0  0.425093  0  0.878396  0  0  0.39676  0  0.937561  0  0  0.406659  0  0.923069  0  0  0.296896  0.389816  0  0.947726  0
H  H20  1  0.93936569  0.77037661  0.16271505  1  0  0.441689  0  0.862272  0  0  0.403322  0  0.935036  0  0  0.417177  0  0.915533  0  0  0.301202  0.393645  0  0.94863  0
H  H21  1  0.43932242  0.72962595  0.33729543  1  0  0.441651  0  0.862357  0  0  0.40329  0  0.93511  0  0  0.417138  0  0.915623  0  0  0.301225  0.393616  0  0.9487  0
H  H22  1  0.06066635  0.22962977  0.83728701  1  0  0.44163  0  0.862366  0  0  0.403255  0  0.935147  0  0  0.417108  0  0.915647  0  0  0.301234  0.393579  0  0.948739  0
H  H23  1  0.56064169  0.27037178  0.66270885  1  0  0.44166  0  0.862338  0  0  0.403297  0  0.935091  0  0  0.417144  0  0.915604  0  0  0.301246  0.393621  0  0.948683  0
C  C24  1  0.64357803  0.41957655  0.92303530  1  0  0.287576  0  3.845239  0  0  0.262641  0  4.124202  0  0  0.282822  0  4.132891  0  0  0.107261  0.24906  0  4.118045  0
C  C25  1  0.14352918  0.08043574  0.57696054  1  0  0.287304  0  3.8452  0  0  0.262598  0  4.12379  0  0  0.282828  0  4.132379  0  0  0.107171  0.248951  0  4.117736  0
C  C26  1  0.35647230  0.58041890  0.07696349  1  0  0.287532  0  3.845014  0  0  0.262836  0  4.123483  0  0  0.283078  0  4.132055  0  0  0.107266  0.249167  0  4.117472  0
C  C27  1  0.85643101  0.91957260  0.42303156  1  0  0.287685  0  3.845576  0  0  0.262764  0  4.124472  0  0  0.282948  0  4.133149  0  0  0.10728  0.249171  0  4.11833  0
C  C28  1  0.79930363  0.40303871  0.07159562  1  0  -0.145458  0  3.772183  0  0  -0.147942  0  4.064736  0  0  -0.16539  0  4.089449  0  0  -0.039954  -0.136507  0  4.048075  0
C  C29  1  0.29927120  0.09695750  0.42840563  1  0  -0.145753  0  3.77224  0  0  -0.148131  0  4.064817  0  0  -0.165576  0  4.08952  0  0  -0.040045  -0.13669  0  4.048165  0
C  C30  1  0.20072841  0.59696340  0.92841024  1  0  -0.145812  0  3.772327  0  0  -0.148196  0  4.064778  0  0  -0.165646  0  4.089479  0  0  -0.039958  -0.136757  0  4.048125  0
C  C31  1  0.70068507  0.90303257  0.57159555  1  0  -0.145493  0  3.772316  0  0  -0.147907  0  4.064737  0  0  -0.165345  0  4.089453  0  0  -0.039983  -0.136478  0  4.048083  0
C  C32  1  0.83928641  0.55177299  0.07879897  1  0  0.295067  0  3.816425  0  0  0.267772  0  4.098953  0  0  0.288653  0  4.106461  0  0  0.111818  0.25373  0  4.093561  0
C  C33  1  0.33923983  0.94824275  0.42121079  1  0  0.295343  0  3.816133  0  0  0.267976  0  4.098787  0  0  0.288849  0  4.106297  0  0  0.111862  0.253903  0  4.093444  0
C  C34  1  0.16074955  0.44822911  0.92120622  1  0  0.295336  0  3.815663  0  0  0.267984  0  4.098365  0  0  0.28887  0  4.105852  0  0  0.111835  0.253937  0  4.092982  0
C  C35  1  0.66070469  0.05176586  0.57879408  1  0  0.295003  0  3.816163  0  0  0.267762  0  4.098657  0  0  0.288614  0  4.106212  0  0  0.111826  0.253712  0  4.093265  0
C  C36  1  0.78340276  0.64033690  0.00162528  1  0  0.300723  0  3.839012  0  0  0.276151  0  4.118483  0  0  0.297687  0  4.12468  0  0  0.113507  0.261776  0  4.113834  0
C  C37  1  0.28336144  0.85966882  0.49836913  1  0  0.300562  0  3.839143  0  0  0.275873  0  4.118769  0  0  0.297415  0  4.124958  0  0  0.113343  0.261502  0  4.114136  0
C  C38  1  0.21664757  0.35966282  0.99837038  1  0  0.300815  0  3.83861  0  0  0.276056  0  4.118317  0  0  0.297592  0  4.124518  0  0  0.113477  0.261703  0  4.113637  0
C  C39  1  0.71659352  0.14033417  0.50162671  1  0  0.300735  0  3.838957  0  0  0.275979  0  4.118694  0  0  0.297524  0  4.124892  0  0  0.113455  0.261637  0  4.113993  0
C  C40  1  0.70090738  0.33164026  0.00017308  1  0  0.3167  0  3.821374  0  0  0.293182  0  4.094802  0  0  0.315348  0  4.099449  0  0  0.1156  0.278417  0  4.0912  0
C  C41  1  0.20085497  0.16837454  0.49982640  1  0  0.31719  0  3.820976  0  0  0.293396  0  4.094653  0  0  0.315562  0  4.099266  0  0  0.115743  0.278658  0  4.09105  0
C  C42  1  0.29913511  0.66835305  0.99982761  1  0  0.317138  0  3.821223  0  0  0.293507  0  4.094613  0  0  0.315664  0  4.099239  0  0  0.115702  0.278755  0  4.091055  0
C  C43  1  0.79909869  0.83164703  0.50017446  1  0  0.316694  0  3.821095  0  0  0.29322  0  4.09439  0  0  0.31539  0  4.099031  0  0  0.11565  0.278466  0  4.090774  0
C  C44  1  0.69041371  0.56702970  0.92838121  1  0  -0.164386  0  3.792921  0  0  -0.167142  0  4.087664  0  0  -0.185241  0  4.113465  0  0  -0.04467  -0.155178  0  4.070215  0
C  C45  1  0.19036648  0.93297802  0.57161447  1  0  -0.164007  0  3.792631  0  0  -0.166625  0  4.087022  0  0  -0.184744  0  4.112817  0  0  -0.044424  -0.15464  0  4.069584  0
C  C46  1  0.30964185  0.43295363  0.07161022  1  0  -0.164224  0  3.79246  0  0  -0.166844  0  4.086933  0  0  -0.184964  0  4.112719  0  0  -0.044458  -0.15486  0  4.069498  0
C  C47  1  0.80958588  0.06703486  0.42838660  1  0  -0.164341  0  3.792667  0  0  -0.167073  0  4.087479  0  0  -0.18518  0  4.113286  0  0  -0.04461  -0.155117  0  4.070018  0
Cl  Cl48  1  0.63470203  0.66473614  0.83952039  1  0  -0.110964  0  1.592878  0  0  -0.091543  0  1.872578  0  0  -0.093431  0  1.869907  0  0  -0.017841  -0.090107  0  1.874666  0
Cl  Cl49  1  0.13467666  0.83527382  0.66047469  1  0  -0.111004  0  1.592948  0  0  -0.091642  0  1.872561  0  0  -0.093534  0  1.869898  0  0  -0.017875  -0.090209  0  1.87464  0
Cl  Cl50  1  0.36534177  0.33525489  0.16047548  1  0  -0.110983  0  1.592853  0  0  -0.091612  0  1.872442  0  0  -0.093501  0  1.869774  0  0  -0.017882  -0.090177  0  1.874522  0
Cl  Cl51  1  0.86526524  0.16474112  0.33952112  1  0  -0.11104  0  1.592775  0  0  -0.091593  0  1.872464  0  0  -0.093483  0  1.869795  0  0  -0.017885  -0.09016  0  1.874553  0
Cl  Cl52  1  0.86861918  0.29947732  0.15512469  1  0  -0.104631  0  1.56118  0  0  -0.085727  0  1.834391  0  0  -0.087201  0  1.830694  0  0  -0.023329  -0.084494  0  1.837155  0
Cl  Cl53  1  0.36853771  0.20050870  0.34486199  1  0  -0.104615  0  1.561089  0  0  -0.085719  0  1.834285  0  0  -0.087193  0  1.830584  0  0  -0.02339  -0.084491  0  1.837053  0
Cl  Cl54  1  0.13144813  0.70051586  0.84486995  1  0  -0.104566  0  1.561144  0  0  -0.08568  0  1.834309  0  0  -0.087153  0  1.83061  0  0  -0.023368  -0.08445  0  1.837078  0
Cl  Cl55  1  0.63140550  0.79947902  0.65513102  1  0  -0.10456  0  1.561369  0  0  -0.085679  0  1.834527  0  0  -0.087152  0  1.830828  0  0  -0.023305  -0.084451  0  1.837297  0
O  O56  1  0.05027194  0.11899284  0.80855782  1  0  -0.812112  0  2.044849  0  0  -0.748903  0  2.229017  0  0  -0.770244  0  2.189907  0  0  -0.612398  -0.734053  0  2.25613  0
O  O57  1  0.55024865  0.38101085  0.69143547  1  0  -0.812178  0  2.044882  0  0  -0.748981  0  2.229081  0  0  -0.770318  0  2.189956  0  0  -0.612495  -0.734135  0  2.256201  0
O  O58  1  0.94976532  0.88101562  0.19143966  1  0  -0.812241  0  2.044627  0  0  -0.748974  0  2.228913  0  0  -0.770337  0  2.189744  0  0  -0.612295  -0.734128  0  2.256034  0
O  O59  1  0.44972199  0.61898914  0.30857295  1  0  -0.812315  0  2.044644  0  0  -0.749076  0  2.228878  0  0  -0.770436  0  2.189703  0  0  -0.61252  -0.73423  0  2.255999  0
O  O60  1  0.83282264  0.99051998  0.89728261  1  0  -0.855198  0  1.882381  0  0  -0.799081  0  2.047095  0  0  -0.818751  0  2.015134  0  0  -0.623242  -0.785255  0  2.069333  0
O  O61  1  0.33276491  0.50947768  0.60270997  1  0  -0.855079  0  1.882385  0  0  -0.798924  0  2.047076  0  0  -0.818593  0  2.015123  0  0  -0.623176  -0.7851  0  2.069308  0
O  O62  1  0.16722116  0.00947309  0.10270666  1  0  -0.855185  0  1.882395  0  0  -0.799041  0  2.047067  0  0  -0.818715  0  2.015106  0  0  -0.62323  -0.78521  0  2.069306  0
O  O63  1  0.66718614  0.49052566  0.39730266  1  0  -0.855305  0  1.882363  0  0  -0.799219  0  2.046962  0  0  -0.818894  0  2.014997  0  0  -0.623217  -0.785384  0  2.069208  0
O  O64  1  0.55841370  0.35095290  0.85907047  1  0  -0.536308  0  2.046028  0  0  -0.482365  0  2.266173  0  0  -0.504918  0  2.261441  0  0  -0.340211  -0.466819  0  2.269158  0
O  O65  1  0.05836794  0.14905850  0.64092861  1  0  -0.536447  0  2.046072  0  0  -0.482571  0  2.266092  0  0  -0.505135  0  2.261323  0  0  -0.340279  -0.467005  0  2.269114  0
O  O66  1  0.44162226  0.64904159  0.14093498  1  0  -0.53648  0  2.045964  0  0  -0.482588  0  2.265981  0  0  -0.505164  0  2.261202  0  0  -0.340226  -0.467014  0  2.269013  0
O  O67  1  0.94157788  0.85095555  0.35907655  1  0  -0.536362  0  2.046537  0  0  -0.482366  0  2.266703  0  0  -0.504918  0  2.261957  0  0  -0.340207  -0.466823  0  2.269696  0
O  O68  1  0.82495195  0.77279245  0.00878640  1  0  -0.508629  0  2.012233  0  0  -0.460139  0  2.233179  0  0  -0.47952  0  2.228389  0  0  -0.303324  -0.446627  0  2.236195  0
O  O69  1  0.32490322  0.72721445  0.49121548  1  0  -0.508574  0  2.012431  0  0  -0.460047  0  2.233419  0  0  -0.47942  0  2.22862  0  0  -0.303247  -0.446538  0  2.236436  0
O  O70  1  0.17508923  0.22719963  0.99120751  1  0  -0.508757  0  2.011939  0  0  -0.460247  0  2.232976  0  0  -0.479628  0  2.228185  0  0  -0.303413  -0.446747  0  2.235986  0
O  O71  1  0.67503868  0.27278656  0.50878964  1  0  -0.508594  0  2.012149  0  0  -0.460104  0  2.233264  0  0  -0.479483  0  2.228466  0  0  -0.303334  -0.446603  0  2.236263  0
O  O72  1  0.92233070  0.61655977  0.14512402  1  0  -0.529154  0  2.066399  0  0  -0.47696  0  2.288031  0  0  -0.499951  0  2.282747  0  0  -0.323072  -0.461145  0  2.29137  0
O  O73  1  0.42230563  0.88343170  0.35487444  1  0  -0.529453  0  2.065549  0  0  -0.477228  0  2.287217  0  0  -0.500233  0  2.281938  0  0  -0.323126  -0.461391  0  2.290569  0
O  O74  1  0.07769481  0.38343782  0.85487354  1  0  -0.529324  0  2.065828  0  0  -0.477113  0  2.287498  0  0  -0.500105  0  2.282205  0  0  -0.32312  -0.461298  0  2.290846  0
O  O75  1  0.57765718  0.11655824  0.64512070  1  0  -0.529112  0  2.066131  0  0  -0.476944  0  2.287732  0  0  -0.499924  0  2.28247  0  0  -0.323034  -0.46113  0  2.291076  0
O  O76  1  0.65902163  0.19891756  0.99540506  1  0  -0.570089  0  2.069377  0  0  -0.520525  0  2.294503  0  0  -0.539885  0  2.288657  0  0  -0.371202  -0.507087  0  2.298229  0
O  O77  1  0.15894604  0.30107812  0.50457717  1  0  -0.570098  0  2.069472  0  0  -0.520441  0  2.29478  0  0  -0.539785  0  2.288925  0  0  -0.371135  -0.507012  0  2.298496  0
O  O78  1  0.34104698  0.80107447  0.00458617  1  0  -0.570262  0  2.069079  0  0  -0.520657  0  2.294292  0  0  -0.540018  0  2.288444  0  0  -0.371252  -0.507212  0  2.298024  0
O  O79  1  0.84101285  0.69891833  0.49541765  1  0  -0.570151  0  2.068961  0  0  -0.520611  0  2.294112  0  0  -0.539969  0  2.288259  0  0  -0.37124  -0.507168  0  2.297837  0
