# generated using pymatgen
data_AgH16C18S2(NO)3
_symmetry_space_group_name_H-M   'P 1'
_cell_length_a   8.17377917
_cell_length_b   9.94067172
_cell_length_c   11.62029394
_cell_angle_alpha   106.42456436
_cell_angle_beta   97.41948802
_cell_angle_gamma   91.41229702
_symmetry_Int_Tables_number   1
_chemical_formula_structural   AgH16C18S2(NO)3
_chemical_formula_sum   'Ag2 H32 C36 S4 N6 O6'
_cell_volume   896.21147753
_cell_formula_units_Z   2
loop_
 _symmetry_equiv_pos_site_id
 _symmetry_equiv_pos_as_xyz
  1  'x, y, z'
loop_
 _atom_site_type_symbol
 _atom_site_label
 _atom_site_symmetry_multiplicity
 _atom_site_fract_x
 _atom_site_fract_y
 _atom_site_fract_z
 _atom_site_occupancy
 _atom_site_hle17_bader_spin_density
 _atom_site_hle17_ddec_charge
 _atom_site_hle17_ddec_spin_density
 _atom_site_hle17_ddec_sum_bond_order
 _atom_site_hle17_magmom
 _atom_site_hse06_10hf_bader_spin_density
 _atom_site_hse06_10hf_ddec_charge
 _atom_site_hse06_10hf_ddec_spin_density
 _atom_site_hse06_10hf_ddec_sum_bond_order
 _atom_site_hse06_10hf_magmom
 _atom_site_hse06_bader_spin_density
 _atom_site_hse06_ddec_charge
 _atom_site_hse06_ddec_spin_density
 _atom_site_hse06_ddec_sum_bond_order
 _atom_site_hse06_magmom
 _atom_site_pbe_bader_spin_density
 _atom_site_pbe_cm5_charge
 _atom_site_pbe_ddec_charge
 _atom_site_pbe_ddec_spin_density
 _atom_site_pbe_ddec_sum_bond_order
 _atom_site_pbe_magmom
Ag  Ag0  1  0.52938214  0.59224869  0.86293967  1  0  0.42269  0  1.616992  0  0  0.279708  0  2.100609  0  0  0.304367  0  2.05534  0  0  0.420446  0.263671  0  2.131442  0
Ag  Ag1  1  0.47061613  0.40775135  0.13705966  1  0  0.422698  0  1.616988  0  0  0.279719  0  2.100607  0  0  0.304376  0  2.055343  0  0  0.420449  0.26368  0  2.131443  0
H  H2  1  0.55644396  0.38543331  0.56090201  1  0  0.107592  0  0.955567  0  0  0.113272  0  1.026455  0  0  0.116536  0  1.0247  0  0  0.098616  0.110781  0  1.028237  0
H  H3  1  0.44355554  0.61456673  0.43909485  1  0  0.107575  0  0.955512  0  0  0.113246  0  1.026423  0  0  0.11651  0  1.024669  0  0  0.0986  0.110755  0  1.028205  0
H  H4  1  0.55779723  0.00939463  0.67718877  1  0  0.107088  0  0.948946  0  0  0.117274  0  1.009287  0  0  0.120681  0  1.007614  0  0  0.100158  0.114384  0  1.011294  0
H  H5  1  0.44220384  0.99060961  0.32281699  1  0  0.107111  0  0.948905  0  0  0.117283  0  1.009263  0  0  0.120686  0  1.007598  0  0  0.100157  0.114393  0  1.011269  0
H  H6  1  0.81699922  0.95092368  0.59799161  1  0  0.088481  0  0.989514  0  0  0.093709  0  1.059883  0  0  0.097624  0  1.0567  0  0  0.093795  0.091165  0  1.061876  0
H  H7  1  0.18300432  0.04908056  0.40201610  1  0  0.088492  0  0.989525  0  0  0.093713  0  1.059899  0  0  0.097627  0  1.056719  0  0  0.093808  0.09117  0  1.061893  0
H  H8  1  0.95887534  0.11452318  0.50613484  1  0  0.086293  0  0.970273  0  0  0.098769  0  1.033651  0  0  0.1011  0  1.03281  0  0  0.095876  0.097021  0  1.034436  0
H  H9  1  0.04112548  0.88547791  0.49386756  1  0  0.086266  0  0.970284  0  0  0.098741  0  1.033663  0  0  0.101073  0  1.03282  0  0  0.095871  0.096992  0  1.03445  0
H  H10  1  0.85937275  0.47003027  0.54702118  1  0  0.121142  0  0.958981  0  0  0.130874  0  1.027503  0  0  0.133738  0  1.024958  0  0  0.103185  0.128869  0  1.029311  0
H  H11  1  0.14063186  0.52997186  0.45298181  1  0  0.121131  0  0.959054  0  0  0.130904  0  1.027515  0  0  0.13377  0  1.024969  0  0  0.103208  0.1289  0  1.029323  0
H  H12  1  0.97995859  0.33852293  0.46496979  1  0  0.10734  0  0.978476  0  0  0.117726  0  1.046535  0  0  0.119875  0  1.044941  0  0  0.096818  0.116019  0  1.048003  0
H  H13  1  0.02003959  0.66147606  0.53502842  1  0  0.107355  0  0.978473  0  0  0.117727  0  1.046538  0  0  0.119875  0  1.044949  0  0  0.096821  0.116021  0  1.048002  0
H  H14  1  0.96004398  0.15463792  0.31669344  1  0  0.10904  0  0.985955  0  0  0.117035  0  1.052033  0  0  0.120163  0  1.05118  0  0  0.104713  0.114659  0  1.052992  0
H  H15  1  0.03995708  0.84536632  0.68330888  1  0  0.109056  0  0.985927  0  0  0.117047  0  1.052008  0  0  0.120173  0  1.051157  0  0  0.10472  0.11467  0  1.052966  0
H  H16  1  0.95822468  0.94688549  0.13755856  1  0  0.089779  0  0.954913  0  0  0.102601  0  1.012919  0  0  0.104205  0  1.013383  0  0  0.10289  0.101271  0  1.012813  0
H  H17  1  0.04177977  0.05311454  0.86244649  1  0  0.089839  0  0.954912  0  0  0.10268  0  1.012893  0  0  0.104284  0  1.013356  0  0  0.102905  0.101349  0  1.012788  0
H  H18  1  0.75224019  0.92670989  0.94905691  1  0  0.117341  0  0.976951  0  0  0.122935  0  1.044718  0  0  0.12676  0  1.042752  0  0  0.103222  0.120148  0  1.046382  0
H  H19  1  0.24776433  0.07329120  0.05094496  1  0  0.117409  0  0.97682  0  0  0.122924  0  1.044668  0  0  0.126771  0  1.042659  0  0  0.103277  0.120139  0  1.046328  0
H  H20  1  0.56518585  0.12149512  0.95155317  1  0  0.067242  0  0.955673  0  0  0.073742  0  1.024919  0  0  0.075755  0  1.023846  0  0  0.106823  0.072208  0  1.025711  0
H  H21  1  0.43481596  0.87850281  0.04844856  1  0  0.067245  0  0.955665  0  0  0.073731  0  1.024922  0  0  0.075757  0  1.023837  0  0  0.106828  0.072195  0  1.025715  0
H  H22  1  0.31316355  0.30757182  0.62485947  1  0  0.109223  0  0.96627  0  0  0.118797  0  1.036313  0  0  0.120677  0  1.035194  0  0  0.09867  0.117452  0  1.037134  0
H  H23  1  0.68683586  0.69242717  0.37513885  1  0  0.109212  0  0.966281  0  0  0.118784  0  1.036335  0  0  0.120663  0  1.035215  0  0  0.098661  0.11744  0  1.037153  0
H  H24  1  0.30291375  0.14848807  0.66913890  1  0  0.109969  0  0.921282  0  0  0.12725  0  0.976685  0  0  0.127891  0  0.977775  0  0  0.104912  0.126895  0  0.975695  0
H  H25  1  0.69708797  0.85150881  0.33085912  1  0  0.109902  0  0.921376  0  0  0.127195  0  0.976771  0  0  0.127836  0  0.977861  0  0  0.104892  0.126835  0  0.975794  0
H  H26  1  0.08818158  0.32903870  0.70599881  1  0  0.110699  0  0.972236  0  0  0.119953  0  1.035574  0  0  0.122576  0  1.035799  0  0  0.105658  0.118024  0  1.035604  0
H  H27  1  0.91181907  0.67096029  0.29399962  1  0  0.110711  0  0.972252  0  0  0.119976  0  1.035575  0  0  0.1226  0  1.035799  0  0  0.105676  0.118045  0  1.035607  0
H  H28  1  0.81854599  0.31588922  0.78037153  1  0  0.093436  0  0.972435  0  0  0.10281  0  1.035426  0  0  0.104245  0  1.036024  0  0  0.104162  0.101632  0  1.03524  0
H  H29  1  0.18145210  0.68410872  0.21962298  1  0  0.093472  0  0.97244  0  0  0.102859  0  1.035404  0  0  0.104297  0  1.035996  0  0  0.104194  0.101695  0  1.035203  0
H  H30  1  0.81635915  0.32727293  0.99960288  1  0  0.100128  0  0.982058  0  0  0.106611  0  1.050057  0  0  0.10923  0  1.05006  0  0  0.100797  0.104769  0  1.050029  0
H  H31  1  0.18363648  0.67272502  0.00039313  1  0  0.10011  0  0.982073  0  0  0.106604  0  1.050053  0  0  0.109228  0  1.05005  0  0  0.100807  0.104762  0  1.050025  0
H  H32  1  0.08827953  0.35651813  0.13491299  1  0  0.083796  0  0.958653  0  0  0.090023  0  1.023758  0  0  0.092391  0  1.022282  0  0  0.112751  0.088225  0  1.024901  0
H  H33  1  0.91171611  0.64347981  0.86508388  1  0  0.083762  0  0.9587  0  0  0.089985  0  1.023809  0  0  0.092352  0  1.022336  0  0  0.112736  0.088188  0  1.02495  0
C  C34  1  0.76690281  0.26092699  0.52745344  1  0  0.10063  0  3.774421  0  0  0.125925  0  4.004738  0  0  0.12529  0  4.030283  0  0  -0.018385  0.126339  0  3.987445  0
C  C35  1  0.23309809  0.73907515  0.47254922  1  0  0.100747  0  3.774341  0  0  0.125935  0  4.004797  0  0  0.125297  0  4.03035  0  0  -0.01839  0.12635  0  3.987503  0
C  C36  1  0.61477601  0.29059720  0.56925798  1  0  -0.144308  0  3.672603  0  0  -0.174538  0  3.918607  0  0  -0.176833  0  3.938648  0  0  -0.089984  -0.172921  0  3.905425  0
C  C37  1  0.38522373  0.70940599  0.43074311  1  0  -0.144293  0  3.672581  0  0  -0.17449  0  3.918587  0  0  -0.176785  0  3.93863  0  0  -0.089956  -0.172874  0  3.905402  0
C  C38  1  0.53954167  0.20268943  0.62460845  1  0  0.090117  0  3.785459  0  0  0.11521  0  4.022546  0  0  0.114087  0  4.047776  0  0  -0.020938  0.115882  0  4.005432  0
C  C39  1  0.46045652  0.79730956  0.37539321  1  0  0.090022  0  3.785613  0  0  0.115154  0  4.022628  0  0  0.11403  0  4.047858  0  0  -0.020968  0.115827  0  4.005515  0
C  C40  1  0.61460910  0.08069786  0.63541593  1  0  -0.113116  0  3.723985  0  0  -0.13719  0  3.972056  0  0  -0.139891  0  3.993869  0  0  -0.092145  -0.135194  0  3.958044  0
C  C41  1  0.38538916  0.91930218  0.36458341  1  0  -0.113125  0  3.723927  0  0  -0.137194  0  3.971991  0  0  -0.139896  0  3.993802  0  0  -0.09213  -0.135199  0  3.95798  0
C  C42  1  0.76344572  0.04807704  0.59087563  1  0  -0.066977  0  3.791997  0  0  -0.078959  0  4.047654  0  0  -0.081292  0  4.069392  0  0  -0.098532  -0.077508  0  4.032897  0
C  C43  1  0.23655131  0.95192300  0.40912359  1  0  -0.067022  0  3.792085  0  0  -0.079004  0  4.047736  0  0  -0.081336  0  4.069475  0  0  -0.098577  -0.077555  0  4.032985  0
C  C44  1  0.83978972  0.13804184  0.53771828  1  0  -0.141332  0  3.754056  0  0  -0.162417  0  3.999565  0  0  -0.165622  0  4.022484  0  0  -0.10015  -0.160008  0  3.983786  0
C  C45  1  0.16021110  0.86195925  0.46228412  1  0  -0.141302  0  3.754084  0  0  -0.162351  0  3.999617  0  0  -0.165555  0  4.022537  0  0  -0.10013  -0.159942  0  3.983837  0
C  C46  1  0.85381558  0.36530987  0.48109560  1  0  -0.199203  0  3.654328  0  0  -0.235919  0  3.896715  0  0  -0.235906  0  3.906647  0  0  -0.150253  -0.236068  0  3.890331  0
C  C47  1  0.14618655  0.63469226  0.51890717  1  0  -0.199308  0  3.654483  0  0  -0.235999  0  3.896881  0  0  -0.235988  0  3.906816  0  0  -0.150289  -0.236148  0  3.890496  0
C  C48  1  0.75739891  0.24494488  0.23031981  1  0  0.195815  0  3.781346  0  0  0.197049  0  4.038949  0  0  0.207465  0  4.057926  0  0  0.113606  0.189801  0  4.026243  0
C  C49  1  0.24260075  0.75505727  0.76968015  1  0  0.19578  0  3.781417  0  0  0.197022  0  4.039009  0  0  0.207438  0  4.057984  0  0  0.113597  0.189774  0  4.026303  0
C  C50  1  0.87036788  0.14221524  0.23615829  1  0  -0.163539  0  3.714352  0  0  -0.179576  0  3.956659  0  0  -0.188269  0  3.978483  0  0  -0.093787  -0.174251  0  3.94243  0
C  C51  1  0.12963392  0.85778270  0.76384086  1  0  -0.163453  0  3.714341  0  0  -0.179489  0  3.956643  0  0  -0.188182  0  3.978466  0  0  -0.093737  -0.174164  0  3.942412  0
C  C52  1  0.86969773  0.02661793  0.13498134  1  0  0.007501  0  3.725702  0  0  -0.00802  0  3.969615  0  0  -0.003304  0  3.988344  0  0  -0.071039  -0.01091  0  3.956701  0
C  C53  1  0.13030564  0.97338421  0.86502240  1  0  0.007351  0  3.72571  0  0  -0.008199  0  3.969611  0  0  -0.003486  0  3.988346  0  0  -0.071093  -0.011089  0  3.956698  0
C  C54  1  0.75788366  0.01520290  0.03047694  1  0  -0.142178  0  3.731826  0  0  -0.156506  0  3.981991  0  0  -0.163909  0  4.002862  0  0  -0.09661  -0.151699  0  3.967998  0
C  C55  1  0.24212185  0.98479503  0.96952511  1  0  -0.142249  0  3.731769  0  0  -0.156477  0  3.981912  0  0  -0.16389  0  4.002786  0  0  -0.096644  -0.15167  0  3.967917  0
C  C56  1  0.65215926  0.12288224  0.03148463  1  0  0.129613  0  3.733228  0  0  0.103619  0  3.979463  0  0  0.110825  0  3.99719  0  0  0.042864  0.099039  0  3.967384  0
C  C57  1  0.34784148  0.87711780  0.96851665  1  0  0.129655  0  3.733247  0  0  0.103674  0  3.979454  0  0  0.110866  0  3.997183  0  0  0.042862  0.099094  0  3.967378  0
C  C58  1  0.38103410  0.24179026  0.67349413  1  0  -0.170106  0  3.62902  0  0  -0.212378  0  3.875232  0  0  -0.211233  0  3.885397  0  0  -0.139204  -0.21309  0  3.868148  0
C  C59  1  0.61896540  0.75820978  0.32650531  1  0  -0.169995  0  3.62911  0  0  -0.212297  0  3.875333  0  0  -0.211148  0  3.885489  0  0  -0.139174  -0.213007  0  3.868235  0
C  C60  1  0.22925672  0.34178025  0.88069657  1  0  0.182556  0  3.793848  0  0  0.183678  0  4.054952  0  0  0.192303  0  4.07529  0  0  0.112123  0.177853  0  4.040662  0
C  C61  1  0.77074277  0.65821979  0.11930202  1  0  0.182579  0  3.793778  0  0  0.183672  0  4.054912  0  0  0.192293  0  4.075255  0  0  0.11209  0.177846  0  4.040623  0
C  C62  1  0.08414690  0.33074349  0.79949107  1  0  -0.163867  0  3.734615  0  0  -0.181656  0  3.979979  0  0  -0.189728  0  4.002742  0  0  -0.088857  -0.176028  0  3.964355  0
C  C63  1  0.91585021  0.66925761  0.20050756  1  0  -0.163862  0  3.734623  0  0  -0.181661  0  3.980002  0  0  -0.189734  0  4.002766  0  0  -0.088862  -0.176031  0  3.964379  0
C  C64  1  0.93327878  0.32398782  0.84175100  1  0  0.008207  0  3.722801  0  0  -0.00638  0  3.965117  0  0  -0.00196  0  3.983031  0  0  -0.064831  -0.009394  0  3.953232  0
C  C65  1  0.06671694  0.67601117  0.15824699  1  0  0.008207  0  3.722753  0  0  -0.006392  0  3.965074  0  0  -0.001973  0  3.982991  0  0  -0.064838  -0.009418  0  3.953184  0
C  C66  1  0.93167211  0.33009885  0.96289740  1  0  -0.129632  0  3.737992  0  0  -0.142842  0  3.985927  0  0  -0.149909  0  4.00805  0  0  -0.092411  -0.138238  0  3.971161  0
C  C67  1  0.06832714  0.66989803  0.03709954  1  0  -0.129618  0  3.737885  0  0  -0.142832  0  3.985843  0  0  -0.149902  0  4.007964  0  0  -0.092411  -0.138229  0  3.971084  0
C  C68  1  0.08171282  0.34602288  0.03850180  1  0  0.137084  0  3.693775  0  0  0.110253  0  3.941274  0  0  0.117184  0  3.958947  0  0  0.044646  0.105641  0  3.929488  0
C  C69  1  0.91828528  0.65397506  0.96149615  1  0  0.137126  0  3.693805  0  0  0.110291  0  3.941294  0  0  0.117222  0  3.958964  0  0  0.044629  0.105679  0  3.929508  0
S  S70  1  0.74223225  0.39871524  0.34680660  1  0  -0.006646  0  2.441989  0  0  -0.004582  0  2.80238  0  0  -0.0108  0  2.800553  0  0  0.021428  -0.000157  0  2.803489  0
S  S71  1  0.25776734  0.60128585  0.65319483  1  0  -0.006618  0  2.442066  0  0  -0.004561  0  2.802455  0  0  -0.010777  0  2.80063  0  0  0.021408  -0.000138  0  2.803566  0
S  S72  1  0.42876195  0.33890289  0.83576661  1  0  -0.019407  0  2.652898  0  0  0.003345  0  3.074396  0  0  -0.00092  0  3.062293  0  0  0.012851  0.006159  0  3.082304  0
S  S73  1  0.57123492  0.66109505  0.16423209  1  0  -0.019422  0  2.652792  0  0  0.003333  0  3.074319  0  0  -0.000932  0  3.062218  0  0  0.012849  0.006147  0  3.082229  0
N  N74  1  0.65082407  0.23506725  0.12864778  1  0  -0.34613  0  3.30564  0  0  -0.268859  0  3.579474  0  0  -0.286483  0  3.591972  0  0  -0.345267  -0.256909  0  3.57063  0
N  N75  1  0.34917781  0.76493173  0.87135076  1  0  -0.346125  0  3.305566  0  0  -0.268859  0  3.579391  0  0  -0.286488  0  3.591905  0  0  -0.345262  -0.256907  0  3.570545  0
N  N76  1  0.22846861  0.35142722  0.99849910  1  0  -0.336024  0  3.271454  0  0  -0.265114  0  3.547589  0  0  -0.282141  0  3.561745  0  0  -0.33732  -0.253803  0  3.538295  0
N  N77  1  0.77152950  0.64857072  0.00149885  1  0  -0.336086  0  3.271511  0  0  -0.26514  0  3.547621  0  0  -0.282161  0  3.561768  0  0  -0.337285  -0.253829  0  3.538328  0
N  N78  1  0.28291626  0.29064168  0.32034474  1  0  0.68943  0  4.152812  0  0  0.733092  0  4.43284  0  0  0.762072  0  4.437843  0  0  0.09413  0.713535  0  4.428795  0
N  N79  1  0.71708316  0.70935731  0.67965445  1  0  0.689434  0  4.152765  0  0  0.73306  0  4.43284  0  0  0.76204  0  4.437842  0  0  0.09413  0.713504  0  4.428792  0
O  O80  1  0.22689155  0.28867191  0.41675220  1  0  -0.482106  0  1.772649  0  0  -0.470528  0  1.985434  0  0  -0.486833  0  1.97967  0  0  -0.197332  -0.458712  0  1.988606  0
O  O81  1  0.77310910  0.71132708  0.58324710  1  0  -0.482097  0  1.772597  0  0  -0.470508  0  1.985406  0  0  -0.486812  0  1.979642  0  0  -0.197312  -0.458692  0  1.988575  0
O  O82  1  0.29107225  0.40781944  0.29443379  1  0  -0.493954  0  1.839651  0  0  -0.471789  0  2.083047  0  0  -0.49021  0  2.074006  0  0  -0.210994  -0.458453  0  2.08906  0
O  O83  1  0.70892471  0.59217956  0.70556517  1  0  -0.493969  0  1.839689  0  0  -0.471805  0  2.083108  0  0  -0.490225  0  2.074069  0  0  -0.211022  -0.458468  0  2.089119  0
O  O84  1  0.32819509  0.18101201  0.25068998  1  0  -0.453705  0  1.749324  0  0  -0.44801  0  1.955163  0  0  -0.461801  0  1.949535  0  0  -0.187099  -0.438098  0  1.959361  0
O  O85  1  0.67180441  0.81898803  0.74930946  1  0  -0.453706  0  1.749276  0  0  -0.447997  0  1.955125  0  0  -0.461787  0  1.949495  0  0  -0.187098  -0.438089  0  1.959324  0
