# generated using pymatgen
data_CuH9C14NO5
_symmetry_space_group_name_H-M   'P 1'
_cell_length_a   13.23189794
_cell_length_b   13.95592670
_cell_length_c   25.70254820
_cell_angle_alpha   89.99938150
_cell_angle_beta   90.06556939
_cell_angle_gamma   89.99988489
_symmetry_Int_Tables_number   1
_chemical_formula_structural   CuH9C14NO5
_chemical_formula_sum   'Cu8 H72 C112 N8 O40'
_cell_volume   4746.31677200
_cell_formula_units_Z   8
loop_
 _symmetry_equiv_pos_site_id
 _symmetry_equiv_pos_as_xyz
  1  'x, y, z'
loop_
 _atom_site_type_symbol
 _atom_site_label
 _atom_site_symmetry_multiplicity
 _atom_site_fract_x
 _atom_site_fract_y
 _atom_site_fract_z
 _atom_site_occupancy
 _atom_site_pbe_bader_charge
 _atom_site_pbe_bader_spin_density
 _atom_site_pbe_cm5_charge
 _atom_site_pbe_ddec_charge
 _atom_site_pbe_ddec_spin_density
 _atom_site_pbe_ddec_sum_bond_order
 _atom_site_pbe_magmom
Cu  Cu0  1  0.94048609  0.82644305  0.21030754  1  1.077815  0.5819  0.686414  0.768943  0.745046  2.398375  0.583
Cu  Cu1  1  0.44044804  0.67354286  0.78968760  1  1.077243  0.582695  0.687464  0.770247  0.74625  2.402109  0.583
Cu  Cu2  1  0.05950442  0.82645669  0.28969259  1  1.075653  0.581015  0.6863  0.768874  0.743984  2.398386  0.582
Cu  Cu3  1  0.55956761  0.67354139  0.71030628  1  1.079255  0.582767  0.687453  0.770298  0.746262  2.401885  0.583
Cu  Cu4  1  0.05965808  0.17353270  0.78966529  1  1.076535  0.582439  0.68708  0.769618  0.745937  2.400855  0.583
Cu  Cu5  1  0.55996044  0.32656617  0.21010789  1  1.072334  0.5508  0.684683  0.76541  0.701946  2.403948  0.548
Cu  Cu6  1  0.94034733  0.17353984  0.71032996  1  1.07875  0.582515  0.686973  0.769307  0.74593  2.40111  0.583
Cu  Cu7  1  0.43997680  0.32654615  0.28993911  1  1.073746  -0.548959  0.68421  0.764003  -0.783496  2.405028  -0.546
H  H8  1  0.78968080  0.66826139  0.66857482  1  0.089206  -8.9e-05  0.126543  0.096739  -5.9e-05  0.959145  0.0
H  H9  1  0.28945005  0.83169542  0.33144656  1  0.092152  -8.9e-05  0.12665  0.097182  -5.9e-05  0.959459  0.0
H  H10  1  0.21031900  0.66826748  0.83142414  1  0.08925  -9e-05  0.126537  0.096692  -5.9e-05  0.959209  0.0
H  H11  1  0.71055406  0.83170023  0.16855315  1  0.092238  -8.8e-05  0.126682  0.097212  -5.8e-05  0.9594  0.0
H  H12  1  0.21020952  0.33170648  0.33147458  1  0.0898  6.8e-05  0.126746  0.096952  4.5e-05  0.959156  0.0
H  H13  1  0.71052634  0.16828679  0.66852350  1  0.092593  -8.9e-05  0.126756  0.09727  -5.9e-05  0.959324  0.0
H  H14  1  0.78977981  0.33170684  0.16853350  1  0.089445  -6.8e-05  0.126695  0.09692  -4.9e-05  0.959201  0.0
H  H15  1  0.28948059  0.16827839  0.83147606  1  0.092498  -8.9e-05  0.12672  0.097239  -5.9e-05  0.959292  0.0
H  H16  1  0.50802950  0.67732516  0.59947449  1  0.134388  -0.000121  0.11539  0.087584  -8.1e-05  1.003302  0.0
H  H17  1  0.00798755  0.82265582  0.40034202  1  0.133748  -0.00012  0.115414  0.08798  -8e-05  1.00355  0.0
H  H18  1  0.49197405  0.67732433  0.90052208  1  0.134291  -0.000121  0.115381  0.087639  -8.1e-05  1.003219  0.0
H  H19  1  0.99201279  0.82265790  0.09965502  1  0.133489  -0.00012  0.115383  0.087885  -8e-05  1.003542  0.0
H  H20  1  0.49184119  0.32266349  0.40059319  1  0.135183  7.6e-05  0.11551  0.087921  5.8e-05  1.003593  0.0
H  H21  1  0.99199112  0.17732208  0.59964633  1  0.13267  -0.00012  0.115231  0.087578  -8.1e-05  1.003656  0.0
H  H22  1  0.50814816  0.32266002  0.09941611  1  0.134955  -7.9e-05  0.11542  0.087721  -6.5e-05  1.003518  0.0
H  H23  1  0.00801428  0.17732144  0.90035551  1  0.132721  -0.000121  0.11522  0.087623  -8.1e-05  1.003604  0.0
H  H24  1  0.86273534  0.68993368  0.39571775  1  0.094397  0.000379  0.103058  0.114161  0.000289  1.042919  0.0
H  H25  1  0.36271315  0.80995277  0.60428819  1  0.097637  0.00037  0.103224  0.114129  0.000287  1.043299  0.0
H  H26  1  0.13730762  0.68997380  0.10428086  1  0.09364  0.000367  0.102991  0.114113  0.000284  1.042712  0.0
H  H27  1  0.63728482  0.80995248  0.89570877  1  0.097603  0.00037  0.103222  0.11407  0.000287  1.043369  0.0
H  H28  1  0.13720621  0.30981564  0.60418187  1  0.101236  0.000371  0.102729  0.113376  0.000287  1.044201  0.0
H  H29  1  0.63693518  0.19013118  0.39562302  1  0.09296  -0.000263  0.103039  0.113811  -0.00027  1.043781  0.0
H  H30  1  0.86280269  0.30981565  0.89582074  1  0.101107  0.000369  0.102768  0.113453  0.000286  1.044082  0.0
H  H31  1  0.36300608  0.19018736  0.10436954  1  0.099223  0.000256  0.102955  0.113737  0.00024  1.044053  0.0
H  H32  1  0.61590337  0.48626345  0.39653846  1  0.104993  -0.000152  0.109611  0.128477  -0.000157  0.997938  0.0
H  H33  1  0.11613147  0.01388978  0.60330194  1  0.102847  0.000258  0.109332  0.128136  0.000176  0.998304  0.0
H  H34  1  0.38405462  0.48621212  0.10344731  1  0.104254  0.000115  0.109623  0.128356  0.000116  0.997867  0.0
H  H35  1  0.88387202  0.01387970  0.89669852  1  0.102687  0.000258  0.10936  0.128111  0.000175  0.998388  0.0
H  H36  1  0.38375635  0.51376605  0.60342178  1  0.104206  0.00026  0.109382  0.127953  0.000177  0.998728  0.0
H  H37  1  0.88372163  0.98644568  0.39657509  1  0.095958  0.000286  0.109411  0.128312  0.000189  0.999048  0.0
H  H38  1  0.61625435  0.51377152  0.89657303  1  0.104055  0.000259  0.109441  0.128089  0.000177  0.998625  0.0
H  H39  1  0.11630556  0.98640774  0.10341710  1  0.095616  0.000288  0.109242  0.128088  0.000191  0.999068  0.0
H  H40  1  0.75288460  0.57288315  0.25181217  1  0.087803  0.000552  0.111964  0.129399  0.000431  0.990152  0.0
H  H41  1  0.25324754  0.92680000  0.74812360  1  0.08892  0.000661  0.111872  0.129087  0.000471  0.989899  0.0
H  H42  1  0.24713971  0.57288509  0.24817972  1  0.088102  0.000208  0.111887  0.129249  0.000104  0.990355  0.0
H  H43  1  0.74676226  0.92680739  0.75187307  1  0.089224  0.000661  0.111913  0.129129  0.000471  0.989865  0.0
H  H44  1  0.24689601  0.42689412  0.74811892  1  0.089446  0.000659  0.111863  0.129224  0.00047  0.9899  0.0
H  H45  1  0.74644081  0.07327893  0.25176389  1  0.086263  0.000575  0.112286  0.129609  0.000437  0.990174  0.0
H  H46  1  0.75311187  0.42689146  0.75187990  1  0.089364  0.000659  0.111867  0.129248  0.00047  0.989936  0.0
H  H47  1  0.25357703  0.07326509  0.24822471  1  0.086656  8e-06  0.112246  0.129525  -6.9e-05  0.990372  0.0
H  H48  1  0.77804495  0.72921171  0.46656010  1  0.076614  -3.3e-05  0.10943  0.080869  -3.1e-05  0.963558  0.0
H  H49  1  0.27825093  0.77072076  0.53347520  1  0.075975  -3.4e-05  0.109542  0.080884  -3.3e-05  0.963562  0.0
H  H50  1  0.22196013  0.72920722  0.03343632  1  0.076652  -5e-05  0.109445  0.080865  -4e-05  0.963561  0.0
H  H51  1  0.72173881  0.77071604  0.96652354  1  0.075807  -3.4e-05  0.109534  0.08087  -3.3e-05  0.963725  0.0
H  H52  1  0.22177123  0.27059207  0.53342625  1  0.075759  4.3e-05  0.109671  0.081192  9e-06  0.963667  0.0
H  H53  1  0.72159402  0.22943915  0.46655045  1  0.074288  -3.1e-05  0.109577  0.08125  -9e-06  0.963482  0.0
H  H54  1  0.77822112  0.27059871  0.96658048  1  0.075442  -3.1e-05  0.109617  0.081026  -3.1e-05  0.963709  0.0
H  H55  1  0.27840158  0.22944315  0.03344968  1  0.074231  -3.2e-05  0.109579  0.081218  -2.9e-05  0.963527  0.0
H  H56  1  0.86294950  0.63725695  0.48733225  1  0.050777  1e-06  0.106268  0.076186  -3e-06  0.961214  0.0
H  H57  1  0.36308486  0.86272982  0.51282405  1  0.049806  1e-05  0.10644  0.076289  3e-06  0.960722  0.0
H  H58  1  0.13704822  0.63726162  0.01266082  1  0.050487  -2e-06  0.106263  0.076202  -4e-06  0.961153  0.0
H  H59  1  0.63690846  0.86272485  0.98717688  1  0.049664  1e-05  0.106415  0.076302  3e-06  0.960678  0.0
H  H60  1  0.13688862  0.36261276  0.51266228  1  0.04899  3.2e-05  0.106333  0.076153  1.1e-05  0.961037  0.0
H  H61  1  0.63683487  0.13734338  0.48717245  1  0.049488  8e-06  0.106484  0.076378  9e-06  0.960765  0.0
H  H62  1  0.86310505  0.36261883  0.98734197  1  0.049095  1.2e-05  0.106283  0.076138  3e-06  0.960972  0.0
H  H63  1  0.36316697  0.13734907  0.01283211  1  0.049504  -1e-05  0.106511  0.076448  -7e-06  0.960694  0.0
H  H64  1  0.58248110  0.66719838  0.50979707  1  0.086864  -2.7e-05  0.109637  0.117697  -1.3e-05  0.995309  0.0
H  H65  1  0.08268172  0.83274233  0.49009704  1  0.089205  -2.7e-05  0.109541  0.117577  -1.3e-05  0.995188  0.0
H  H66  1  0.41752323  0.66719591  0.99019956  1  0.086881  -2.9e-05  0.109632  0.117737  -1.4e-05  0.995263  0.0
H  H67  1  0.91731558  0.83273988  0.00989955  1  0.089153  -2.7e-05  0.109521  0.117577  -1.3e-05  0.995184  0.0
H  H68  1  0.41732613  0.33276519  0.49028732  1  0.090928  2.8e-05  0.109595  0.117617  1.3e-05  0.995531  0.0
H  H69  1  0.91733549  0.16721909  0.50988275  1  0.088878  -2.6e-05  0.109611  0.117515  -1.3e-05  0.995535  0.0
H  H70  1  0.58266320  0.33276981  0.00972425  1  0.090262  -2.5e-05  0.10962  0.11774  -1.2e-05  0.995548  0.0
H  H71  1  0.08267673  0.16722441  0.99011836  1  0.089039  -3e-05  0.109643  0.117583  -1.5e-05  0.995397  0.0
H  H72  1  0.87703450  0.65840041  0.58223665  1  0.082588  -4e-05  0.109913  0.114883  -2e-05  0.994247  0.0
H  H73  1  0.37705174  0.84155050  0.41788469  1  0.081709  -3.9e-05  0.109845  0.114988  -1.9e-05  0.993996  0.0
H  H74  1  0.12296985  0.65839276  0.91776276  1  0.082652  -4e-05  0.109869  0.114821  -1.9e-05  0.994346  0.0
H  H75  1  0.62294781  0.84154931  0.08211613  1  0.081723  -3.9e-05  0.109873  0.115011  -1.9e-05  0.993911  0.0
H  H76  1  0.12281807  0.34158394  0.41784192  1  0.080176  3.4e-05  0.110188  0.115247  1.4e-05  0.994159  0.0
H  H77  1  0.62293750  0.15841235  0.58208926  1  0.081595  -3.8e-05  0.109917  0.114971  -1.9e-05  0.994141  0.0
H  H78  1  0.87716974  0.34158515  0.08217000  1  0.080445  -3.5e-05  0.110188  0.115211  -1.7e-05  0.994311  0.0
H  H79  1  0.37706945  0.15841354  0.91791152  1  0.081467  -4e-05  0.109908  0.114906  -2e-05  0.994042  0.0
C  C80  1  0.74661096  0.66869172  0.63230391  1  0.484276  -0.000736  0.058209  0.113945  -0.000548  3.947462  0.0
C  C81  1  0.24652010  0.83124582  0.36770314  1  0.482766  -0.000744  0.057849  0.112962  -0.000556  3.948268  0.0
C  C82  1  0.25338959  0.66869055  0.86769388  1  0.484132  -0.000735  0.058156  0.11396  -0.000547  3.947661  0.0
C  C83  1  0.75348324  0.83125056  0.13229424  1  0.482787  -0.000742  0.057804  0.11288  -0.000554  3.948358  0.0
C  C84  1  0.25323629  0.33125322  0.36775015  1  0.482742  0.000691  0.058022  0.114078  0.000446  3.947718  0.0
C  C85  1  0.75345477  0.16871775  0.63226380  1  0.482363  -0.000744  0.057882  0.112927  -0.000555  3.947978  0.0
C  C86  1  0.74674927  0.33125439  0.13225988  1  0.482954  -0.000685  0.058103  0.114106  -0.000494  3.947945  0.0
C  C87  1  0.24654989  0.16871588  0.86773653  1  0.4825  -0.000744  0.057917  0.112904  -0.000555  3.947947  0.0
C  C88  1  0.58954331  0.67335049  0.59352507  1  0.466163  -0.00071  0.047063  0.103774  -0.000513  3.961698  0.0
C  C89  1  0.08950641  0.82659165  0.40637505  1  0.476694  -0.000716  0.04752  0.10377  -0.000519  3.962413  0.0
C  C90  1  0.41045874  0.67334754  0.90647191  1  0.466331  -0.000703  0.046967  0.103514  -0.000509  3.961785  0.0
C  C91  1  0.91049241  0.82659543  0.09362158  1  0.476956  -0.000716  0.047612  0.103931  -0.000519  3.962207  0.0
C  C92  1  0.41032815  0.32660019  0.40655116  1  0.468581  0.000644  0.046996  0.103208  0.000421  3.962954  0.0
C  C93  1  0.91047074  0.17336619  0.59360317  1  0.476997  -0.000719  0.047566  0.103904  -0.00052  3.961289  0.0
C  C94  1  0.58966422  0.32659884  0.09346045  1  0.468479  -0.000637  0.047063  0.103532  -0.000465  3.962819  0.0
C  C95  1  0.08953542  0.17336671  0.90639713  1  0.477635  -0.000723  0.047492  0.103721  -0.000523  3.961509  0.0
C  C96  1  0.88532817  0.70204567  0.29320764  1  1.550719  -0.001567  0.213284  0.57847  0.000497  4.155383  -0.004
C  C97  1  0.38551133  0.79786582  0.70673614  1  1.551028  -0.001147  0.213021  0.579135  0.000807  4.156787  -0.004
C  C98  1  0.11465657  0.70202861  0.20678776  1  1.551198  -0.001267  0.213317  0.578841  0.000728  4.155077  -0.004
C  C99  1  0.61450027  0.79786332  0.79325701  1  1.549567  -0.001143  0.213165  0.579042  0.000806  4.156834  -0.004
C  C100  1  0.11448870  0.29783909  0.70670945  1  1.551047  -0.001167  0.213168  0.578949  0.000794  4.156276  -0.004
C  C101  1  0.61449736  0.20262871  0.29305651  1  1.545168  0.000214  0.213055  0.577251  -0.000174  4.160117  0.0
C  C102  1  0.88551945  0.29784539  0.79328467  1  1.550673  -0.001166  0.213079  0.578692  0.000795  4.156505  -0.004
C  C103  1  0.38548698  0.20260613  0.20696127  1  1.545274  0.000212  0.212988  0.577373  -0.000197  4.15935  0.0
C  C104  1  0.81296652  0.63819301  0.32146162  1  0.071228  0.015435  -0.014499  0.008277  0.010828  3.985249  0.012
C  C105  1  0.31314467  0.86174799  0.67848405  1  0.068208  0.016784  -0.014352  0.007324  0.01172  3.987164  0.013
C  C106  1  0.18706144  0.63822367  0.17853650  1  0.070959  0.016591  -0.014456  0.007846  0.011654  3.986073  0.013
C  C107  1  0.68685924  0.86174837  0.82151066  1  0.068047  0.016779  -0.014492  0.007303  0.011717  3.987407  0.013
C  C108  1  0.18683373  0.36165090  0.67846247  1  0.066645  0.016779  -0.014605  0.007515  0.011713  3.986062  0.013
C  C109  1  0.68662151  0.13841836  0.32138440  1  0.076835  0.000584  -0.013798  0.009835  0.000208  3.984318  0.0
C  C110  1  0.81317580  0.36165176  0.82153790  1  0.066751  0.016776  -0.014575  0.007688  0.011711  3.985753  0.013
C  C111  1  0.31337201  0.13842228  0.17861471  1  0.077336  0.000873  -0.013796  0.009856  0.000418  3.984512  0.001
C  C112  1  0.80940885  0.64298828  0.37599602  1  -0.066227  0.001083  -0.105403  -0.240203  0.000778  3.975019  0.001
C  C113  1  0.30950081  0.85695344  0.62395921  1  -0.071611  0.002056  -0.105653  -0.239979  0.001416  3.974881  0.001
C  C114  1  0.19062968  0.64302504  0.12400208  1  -0.066115  0.000618  -0.105424  -0.240139  0.00043  3.974648  0.0
C  C115  1  0.69049933  0.85695416  0.87603553  1  -0.071327  0.002056  -0.105527  -0.239742  0.001416  3.974841  0.001
C  C116  1  0.19042541  0.35680618  0.62393236  1  -0.079253  0.002062  -0.105025  -0.239195  0.00142  3.974436  0.001
C  C117  1  0.69018980  0.14318927  0.37591700  1  -0.069022  0.00186  -0.104683  -0.239295  0.001126  3.974262  0.001
C  C118  1  0.80958413  0.35680955  0.87606726  1  -0.078992  0.002061  -0.105177  -0.23941  0.001419  3.974583  0.001
C  C119  1  0.30978935  0.14321434  0.12408091  1  -0.075325  0.000449  -0.104707  -0.239228  0.000278  3.974347  0.0
C  C120  1  0.73799409  0.58854096  0.40284573  1  0.450097  0.001548  0.075848  0.245618  0.000978  4.102694  0.001
C  C121  1  0.23806148  0.91146395  0.59708005  1  0.450397  0.001567  0.07643  0.246699  0.000912  4.101673  0.001
C  C122  1  0.26202113  0.58854516  0.09715347  1  0.450656  0.000162  0.075939  0.245967  -7e-06  4.102262  0.0
C  C123  1  0.76193854  0.91146042  0.90291670  1  0.450122  0.001567  0.076397  0.2465  0.000912  4.101728  0.001
C  C124  1  0.26184852  0.41130724  0.59711262  1  0.451656  0.001573  0.076616  0.246724  0.000916  4.102048  0.001
C  C125  1  0.76167827  0.08872175  0.40280784  1  0.453451  0.001332  0.076231  0.246589  0.000838  4.102059  0.001
C  C126  1  0.73816166  0.41131093  0.90288668  1  0.451441  0.001564  0.076685  0.246644  0.00091  4.101974  0.001
C  C127  1  0.23832519  0.08871739  0.09719039  1  0.452786  4.7e-05  0.076315  0.246405  -8.4e-05  4.102021  0.0
C  C128  1  0.67239642  0.52786958  0.37560095  1  -0.057449  -0.000478  -0.092458  -0.203076  -0.000494  3.935232  0.0
C  C129  1  0.17258945  0.97221499  0.62428949  1  -0.056021  0.00101  -0.09215  -0.202492  0.000659  3.934863  0.001
C  C130  1  0.32759474  0.52784159  0.12439198  1  -0.057006  -0.001174  -0.09251  -0.203163  -0.000852  3.934938  -0.001
C  C131  1  0.82741421  0.97220902  0.87570885  1  -0.055452  0.001008  -0.092213  -0.202364  0.000658  3.934862  0.001
C  C132  1  0.32733282  0.47208324  0.62435036  1  0.017307  0.000948  -0.092261  -0.20232  0.000668  3.936482  0.001
C  C133  1  0.82714954  0.02799507  0.37559412  1  0.026616  0.001501  -0.092415  -0.203338  0.001072  3.936226  0.001
C  C134  1  0.67267874  0.47208831  0.87564703  1  0.0175  0.00095  -0.092283  -0.20247  0.00067  3.936467  0.001
C  C135  1  0.17286992  0.02796450  0.12440058  1  0.027008  0.00195  -0.092338  -0.203036  0.001379  3.935904  0.001
C  C136  1  0.67927464  0.52111886  0.32155231  1  0.086778  0.000654  -0.012407  0.005705  0.000216  3.985211  0.0
C  C137  1  0.17952032  0.97887542  0.67836319  1  0.046481  0.017129  -0.01341  0.002716  0.011948  3.988013  0.014
C  C138  1  0.32072258  0.52110557  0.17844650  1  0.087133  0.001228  -0.012276  0.005839  0.000666  3.98506  0.001
C  C139  1  0.82048409  0.97887483  0.82163355  1  0.046427  0.017125  -0.01346  0.002644  0.011945  3.987925  0.014
C  C140  1  0.32045687  0.47879456  0.67840211  1  -0.025884  0.017198  -0.013109  0.002823  0.011942  3.989349  0.014
C  C141  1  0.82021565  0.02123147  0.32152431  1  -0.024029  0.015675  -0.013353  0.003525  0.010934  3.985356  0.012
C  C142  1  0.67955316  0.47879781  0.82159523  1  -0.025911  0.017192  -0.013217  0.00295  0.011939  3.989296  0.014
C  C143  1  0.17979702  0.02119407  0.17847121  1  -0.023664  0.016796  -0.013212  0.003652  0.011753  3.98533  0.013
C  C144  1  0.74899048  0.57692332  0.29403213  1  -0.06347  -0.000347  -0.08264  -0.1291  -0.000181  3.923699  0.0
C  C145  1  0.24925087  0.92295475  0.70589782  1  -0.022335  0.002869  -0.082368  -0.127289  0.002033  3.922655  0.002
C  C146  1  0.25102702  0.57694042  0.20595974  1  -0.063343  0.001811  -0.082672  -0.128879  0.001136  3.92401  0.001
C  C147  1  0.75075139  0.92295627  0.79410042  1  -0.022296  0.002869  -0.082392  -0.127389  0.002034  3.922783  0.002
C  C148  1  0.25076821  0.42290411  0.70590012  1  -0.022943  0.00288  -0.082477  -0.127516  0.00204  3.922425  0.002
C  C149  1  0.75046091  0.07715356  0.29398578  1  -0.031547  0.000975  -0.082803  -0.128581  0.000706  3.922909  0.0
C  C150  1  0.74924043  0.42290636  0.79409833  1  -0.022975  0.002884  -0.082402  -0.127543  0.002042  3.922173  0.002
C  C151  1  0.24955163  0.07713054  0.20600473  1  -0.032328  0.003434  -0.082768  -0.128565  0.002237  3.923299  0.002
C  C152  1  0.61122960  0.45274753  0.29339098  1  1.547931  -6.3e-05  0.213654  0.579018  -0.000444  4.157841  0.0
C  C153  1  0.11150054  0.04697936  0.70653345  1  1.553115  -0.001695  0.213415  0.579612  0.000398  4.154182  -0.004
C  C154  1  0.38876098  0.45274287  0.20661484  1  1.547363  0.000482  0.213561  0.578483  7.4e-05  4.157847  0.0
C  C155  1  0.88850060  0.04697491  0.79345981  1  1.552124  -0.001694  0.213519  0.579587  0.000399  4.154043  -0.004
C  C156  1  0.38847545  0.54698460  0.70655799  1  1.553671  -0.001688  0.213192  0.578901  0.000413  4.156146  -0.004
C  C157  1  0.88833220  0.95310387  0.29339065  1  1.554555  -0.002114  0.213539  0.579297  0.000108  4.154187  -0.005
C  C158  1  0.61153140  0.54698138  0.79343701  1  1.553246  -0.001685  0.213255  0.578825  0.000412  4.155939  -0.004
C  C159  1  0.11166484  0.95310689  0.20661341  1  1.554387  -0.001801  0.213416  0.579043  0.000346  4.154262  -0.004
C  C160  1  0.78259153  0.65812058  0.48543564  1  0.421097  3.3e-05  -0.052358  -0.012231  1.6e-05  3.9164  0.0
C  C161  1  0.28272423  0.84182120  0.51459413  1  0.433704  4.6e-05  -0.052084  -0.011711  2.8e-05  3.915157  0.0
C  C162  1  0.21740917  0.65811790  0.01456080  1  0.421488  -7.3e-05  -0.052278  -0.012171  -7.6e-05  3.916209  0.0
C  C163  1  0.71726914  0.84181611  0.98540497  1  0.433822  4.6e-05  -0.052087  -0.011839  2.8e-05  3.91532  0.0
C  C164  1  0.21724206  0.34171545  0.51456977  1  0.434855  6.4e-05  -0.052281  -0.012093  5e-05  3.916548  0.0
C  C165  1  0.71718414  0.15827708  0.48537240  1  0.435332  5.3e-05  -0.052256  -0.012507  5.6e-05  3.915435  0.0
C  C166  1  0.78275014  0.34172171  0.98543615  1  0.435113  4.7e-05  -0.052189  -0.012047  2.9e-05  3.916435  0.0
C  C167  1  0.28281614  0.15828145  0.01462736  1  0.435554  6e-05  -0.05234  -0.012686  3e-05  3.915569  0.0
C  C168  1  0.73628280  0.66300762  0.53878136  1  -0.091797  -0.000636  0.00448  0.12597  -0.000451  3.977432  0.0
C  C169  1  0.23638103  0.83688265  0.46120529  1  -0.093115  -0.000645  0.004421  0.125787  -0.000456  3.978392  0.0
C  C170  1  0.26371927  0.66300242  0.96121530  1  -0.093328  -0.000644  0.00444  0.125966  -0.000455  3.977232  0.0
C  C171  1  0.76361702  0.83687776  0.03879361  1  -0.093052  -0.000643  0.004443  0.125871  -0.000455  3.978221  0.0
C  C172  1  0.26356745  0.33686352  0.46124858  1  -0.061341  0.000638  0.004149  0.125121  0.000408  3.979359  0.0
C  C173  1  0.76360366  0.16308809  0.53875310  1  -0.06344  -0.000645  0.004627  0.125972  -0.000461  3.977278  0.0
C  C174  1  0.73642339  0.33686943  0.03875986  1  -0.062156  -0.000604  0.004208  0.125446  -0.000425  3.978909  0.0
C  C175  1  0.23640404  0.16309512  0.96124610  1  -0.063331  -0.000659  0.004706  0.126164  -0.000468  3.977279  0.0
C  C176  1  0.63114348  0.66838961  0.54402974  1  -0.018723  0.000348  -0.087708  -0.185534  0.00023  3.967407  0.0
C  C177  1  0.13123294  0.83151806  0.45588510  1  -0.027876  0.000353  -0.088022  -0.185539  0.000233  3.968253  0.0
C  C178  1  0.36886236  0.66838504  0.95596883  1  -0.018825  0.000323  -0.087709  -0.185538  0.000215  3.967181  0.0
C  C179  1  0.86876511  0.83151573  0.04411266  1  -0.027962  0.000352  -0.088047  -0.185614  0.000233  3.968199  0.0
C  C180  1  0.36871059  0.33153312  0.45603560  1  -0.024067  -0.000225  -0.087734  -0.184848  -0.000174  3.967927  0.0
C  C181  1  0.86875705  0.16843047  0.54408418  1  -0.027326  0.000352  -0.088034  -0.185264  0.000232  3.967346  0.0
C  C182  1  0.63127799  0.33153483  0.04397365  1  -0.022079  0.000255  -0.087697  -0.185098  0.000176  3.967421  0.0
C  C183  1  0.13124988  0.16843709  0.95591460  1  -0.027416  0.000344  -0.088065  -0.185334  0.000225  3.967273  0.0
C  C184  1  0.79479283  0.66330233  0.58405824  1  0.059858  0.000339  -0.085295  -0.193696  0.000216  3.96856  0.0
C  C185  1  0.29480667  0.83661219  0.41597360  1  0.061568  0.000347  -0.085244  -0.19368  0.000222  3.969706  0.0
C  C186  1  0.20521151  0.66329743  0.91593997  1  0.061474  0.000311  -0.085261  -0.193676  0.000198  3.968855  0.0
C  C187  1  0.70519440  0.83661010  0.08402647  1  0.061499  0.000346  -0.085206  -0.193614  0.000221  3.969598  0.0
C  C188  1  0.20504911  0.33662542  0.41598103  1  0.026566  -0.000214  -0.085373  -0.193747  -0.000159  3.969609  0.0
C  C189  1  0.70518105  0.16334493  0.58398945  1  0.030366  0.000345  -0.085566  -0.193797  0.00022  3.968972  0.0
C  C190  1  0.79493870  0.33662817  0.08402703  1  0.026886  0.000243  -0.085398  -0.193786  0.000158  3.969866  0.0
C  C191  1  0.29482514  0.16334846  0.91600974  1  0.029986  0.000341  -0.085566  -0.193748  0.000218  3.96886  0.0
N  N192  1  0.64582125  0.67342739  0.63712637  1  -1.220023  -0.001695  -0.327268  -0.231842  -0.000607  3.481597  0.0
N  N193  1  0.14571807  0.82652396  0.36281998  1  -1.223338  -0.001694  -0.327639  -0.231048  -0.000601  3.483059  0.0
N  N194  1  0.35418080  0.67342756  0.86287100  1  -1.220207  -0.00172  -0.327135  -0.231681  -0.000625  3.481537  0.0
N  N195  1  0.85428378  0.82653558  0.13717782  1  -1.223359  -0.001695  -0.32772  -0.231111  -0.000601  3.483078  0.0
N  N196  1  0.35403661  0.32651111  0.36295414  1  -1.217452  0.001607  -0.327617  -0.231898  0.000739  3.485438  0.0
N  N197  1  0.85424926  0.17345609  0.63715435  1  -1.221771  -0.001698  -0.327678  -0.231085  -0.000603  3.482624  0.0
N  N198  1  0.64594972  0.32651380  0.13705708  1  -1.218094  -0.001578  -0.32766  -0.232375  -0.000816  3.485331  0.0
N  N199  1  0.14575464  0.17345236  0.86284439  1  -1.222296  -0.001702  -0.327626  -0.231012  -0.000606  3.482599  0.0
O  O200  1  0.86674468  0.71968024  0.24550491  1  -1.101321  0.094193  -0.312463  -0.510863  0.060263  2.323063  0.085
O  O201  1  0.36696480  0.78022627  0.75440735  1  -1.102473  0.094132  -0.312687  -0.511152  0.060206  2.326147  0.085
O  O202  1  0.13325739  0.71970878  0.25448339  1  -1.100904  0.093896  -0.312507  -0.511093  0.060089  2.323043  0.085
O  O203  1  0.63305137  0.78023184  0.74558356  1  -1.101656  0.094142  -0.312791  -0.511121  0.060216  2.325628  0.085
O  O204  1  0.13317949  0.28020881  0.75440171  1  -1.102759  0.094241  -0.312811  -0.511569  0.060278  2.32429  0.085
O  O205  1  0.63320410  0.21975092  0.24537951  1  -1.102132  0.08465  -0.312145  -0.509382  0.054533  2.327945  0.076
O  O206  1  0.86682341  0.28021753  0.74559408  1  -1.102205  0.094213  -0.312656  -0.511272  0.060261  2.324513  0.085
O  O207  1  0.36674769  0.21974248  0.25462805  1  -1.102788  -0.084081  -0.312198  -0.509415  -0.060858  2.327729  -0.076
O  O208  1  0.95878126  0.73534516  0.31990077  1  -1.114395  0.093174  -0.315358  -0.526251  0.059697  2.376536  0.085
O  O209  1  0.45889514  0.76461778  0.68008569  1  -1.11431  0.093666  -0.315657  -0.526876  0.060004  2.378491  0.085
O  O210  1  0.04112784  0.73523276  0.18010765  1  -1.114786  0.093688  -0.315442  -0.526427  0.060028  2.375722  0.085
O  O211  1  0.54111653  0.76460700  0.81990609  1  -1.11424  0.093655  -0.315711  -0.52678  0.059997  2.378876  0.085
O  O212  1  0.04094648  0.26463417  0.68006727  1  -1.113992  0.09369  -0.315435  -0.526383  0.060001  2.378234  0.085
O  O213  1  0.54167074  0.23637833  0.31988492  1  -1.114321  -0.081473  -0.315659  -0.526239  -0.059093  2.385248  -0.074
O  O214  1  0.95906477  0.26463695  0.81992511  1  -1.114164  0.093693  -0.315505  -0.52649  0.060005  2.378148  0.085
O  O215  1  0.45837930  0.23632104  0.18014942  1  -1.113814  0.082123  -0.315664  -0.526528  0.053041  2.384171  0.074
O  O216  1  0.72562049  0.58981947  0.45592205  1  -1.078737  0.000613  -0.185376  -0.20778  0.000383  2.541256  0.0
O  O217  1  0.22566085  0.91012527  0.54400074  1  -1.092719  0.000703  -0.185668  -0.20848  0.000404  2.541118  0.001
O  O218  1  0.27437432  0.58980966  0.04407557  1  -1.078982  0.000315  -0.18541  -0.207872  0.000187  2.541105  0.0
O  O219  1  0.77433162  0.91012138  0.95599680  1  -1.092484  0.000703  -0.185589  -0.208335  0.000404  2.54116  0.001
O  O220  1  0.27425993  0.40999649  0.54405887  1  -1.09082  0.000749  -0.185625  -0.208248  0.00043  2.541809  0.001
O  O221  1  0.77419226  0.09005183  0.45588135  1  -1.088458  0.000573  -0.185646  -0.208205  0.000331  2.541305  0.0
O  O222  1  0.72574042  0.41000344  0.95594082  1  -1.090706  0.000703  -0.185655  -0.208152  0.000404  2.541677  0.001
O  O223  1  0.22580666  0.09005428  0.04411648  1  -1.088407  -0.000145  -0.185652  -0.208121  -0.000141  2.541314  0.0
O  O224  1  0.64352991  0.41966665  0.25031493  1  -1.10134  0.084785  -0.311655  -0.510549  0.054683  2.328559  0.077
O  O225  1  0.14334171  0.07984021  0.74983297  1  -1.101543  0.095641  -0.312006  -0.51177  0.061194  2.323034  0.087
O  O226  1  0.35642294  0.41962034  0.24967784  1  -1.101731  -0.084274  -0.311916  -0.510619  -0.061076  2.328433  -0.076
O  O227  1  0.85665331  0.07983668  0.75015893  1  -1.10094  0.095651  -0.312021  -0.511716  0.0612  2.322799  0.087
O  O228  1  0.35670966  0.57990641  0.74981433  1  -1.101784  0.095565  -0.312345  -0.511745  0.061158  2.324418  0.087
O  O229  1  0.85664895  0.92024088  0.25005811  1  -1.098999  0.095486  -0.311489  -0.511297  0.061097  2.322566  0.087
O  O230  1  0.64329486  0.57990829  0.75018203  1  -1.101789  0.095548  -0.312438  -0.511771  0.061149  2.324225  0.087
O  O231  1  0.14334817  0.92024082  0.24994691  1  -1.099318  0.095304  -0.311507  -0.511348  0.061009  2.322893  0.087
O  O232  1  0.52786815  0.43275517  0.31571806  1  -1.106881  -0.086221  -0.314726  -0.522936  -0.062597  2.363622  -0.078
O  O233  1  0.02804542  0.06738318  0.68423758  1  -1.107921  0.096783  -0.314929  -0.523671  0.062147  2.359037  0.088
O  O234  1  0.47217088  0.43280668  0.18432018  1  -1.106568  0.086906  -0.314577  -0.52243  0.056198  2.363265  0.079
O  O235  1  0.97195945  0.06737383  0.81574895  1  -1.107704  0.096752  -0.31497  -0.523729  0.062123  2.359202  0.088
O  O236  1  0.47182334  0.56739542  0.68427253  1  -1.108052  0.096677  -0.314759  -0.523178  0.062075  2.360574  0.088
O  O237  1  0.97169447  0.93267211  0.31577521  1  -1.108921  0.096327  -0.314711  -0.52323  0.061873  2.357868  0.088
O  O238  1  0.52817742  0.56738332  0.81572080  1  -1.107611  0.096688  -0.314745  -0.523175  0.06208  2.360735  0.088
O  O239  1  0.02826410  0.93270224  0.18424880  1  -1.109154  0.096705  -0.314812  -0.523254  0.062096  2.357358  0.088
