# generated using pymatgen
data_ZnPH12C6N3Cl2O
_symmetry_space_group_name_H-M   'P 1'
_cell_length_a   7.03336017
_cell_length_b   7.23890025
_cell_length_c   20.92560000
_cell_angle_alpha   90.00000000
_cell_angle_beta   90.00000000
_cell_angle_gamma   101.96043512
_symmetry_Int_Tables_number   1
_chemical_formula_structural   ZnPH12C6N3Cl2O
_chemical_formula_sum   'Zn4 P4 H48 C24 N12 Cl8 O4'
_cell_volume   1042.27278943
_cell_formula_units_Z   4
loop_
 _symmetry_equiv_pos_site_id
 _symmetry_equiv_pos_as_xyz
  1  'x, y, z'
loop_
 _atom_site_type_symbol
 _atom_site_label
 _atom_site_symmetry_multiplicity
 _atom_site_fract_x
 _atom_site_fract_y
 _atom_site_fract_z
 _atom_site_occupancy
 _atom_site_hle17_bader_spin_density
 _atom_site_hle17_ddec_charge
 _atom_site_hle17_ddec_spin_density
 _atom_site_hle17_ddec_sum_bond_order
 _atom_site_hle17_magmom
 _atom_site_hse06_10hf_bader_spin_density
 _atom_site_hse06_10hf_ddec_charge
 _atom_site_hse06_10hf_ddec_spin_density
 _atom_site_hse06_10hf_ddec_sum_bond_order
 _atom_site_hse06_10hf_magmom
 _atom_site_hse06_bader_spin_density
 _atom_site_hse06_ddec_charge
 _atom_site_hse06_ddec_spin_density
 _atom_site_hse06_ddec_sum_bond_order
 _atom_site_hse06_magmom
 _atom_site_pbe_bader_charge
 _atom_site_pbe_bader_spin_density
 _atom_site_pbe_cm5_charge
 _atom_site_pbe_ddec_charge
 _atom_site_pbe_ddec_spin_density
 _atom_site_pbe_ddec_sum_bond_order
 _atom_site_pbe_magmom
Zn  Zn0  1  0.59518597  0.42463230  0.60943772  1  0  0.926258  0  2.02606  0  0  0.758115  0  2.511062  0  0  0.79959  0  2.460311  0  1.152911  0  0.552428  0.729074  0  2.546177  0
Zn  Zn1  1  0.40481400  0.07536696  0.10943772  1  0  0.926225  0  2.026064  0  0  0.75808  0  2.511076  0  0  0.799567  0  2.460332  0  1.152866  0  0.552422  0.729038  0  2.54619  0
Zn  Zn2  1  0.40481287  0.57536763  0.39056228  1  0  0.926234  0  2.026066  0  0  0.758088  0  2.51107  0  0  0.799566  0  2.460322  0  1.152878  0  0.552426  0.729047  0  2.546182  0
Zn  Zn3  1  0.59518626  0.92463297  0.89056228  1  0  0.926233  0  2.026092  0  0  0.758097  0  2.511108  0  0  0.799582  0  2.460359  0  1.152861  0  0.552411  0.729055  0  2.546223  0
P  P4  1  0.93419423  0.19823489  0.64906765  1  0  1.019196  0  4.198671  0  0  0.929672  0  4.627985  0  0  0.959838  0  4.616432  0  2.505526  0  0.240274  0.908466  0  4.636001  0
P  P5  1  0.06580320  0.30176578  0.14906765  1  0  1.019214  0  4.198617  0  0  0.929722  0  4.627903  0  0  0.959901  0  4.616355  0  2.505619  0  0.240292  0.908513  0  4.635923  0
P  P6  1  0.06580319  0.80176504  0.35093187  1  0  1.019237  0  4.198593  0  0  0.929721  0  4.627894  0  0  0.959889  0  4.616344  0  2.505618  0  0.240284  0.908514  0  4.635912  0
P  P7  1  0.93419564  0.69823414  0.85093235  1  0  1.019224  0  4.19867  0  0  0.929705  0  4.627947  0  0  0.959879  0  4.616403  0  2.505498  0  0.240279  0.908496  0  4.635965  0
H  H8  1  0.16427873  0.44348639  0.59414115  1  0  0.135827  0  0.952071  0  0  0.148958  0  1.012311  0  0  0.150891  0  1.012327  0  0.131154  0  0.108334  0.147482  0  1.012455  0
H  H9  1  0.83571981  0.05651286  0.09414115  1  0  0.135813  0  0.952058  0  0  0.148938  0  1.012299  0  0  0.15087  0  1.012315  0  0.131156  0  0.108322  0.147462  0  1.01244  0
H  H10  1  0.83572183  0.55651495  0.40585885  1  0  0.135816  0  0.952068  0  0  0.148944  0  1.012312  0  0  0.150878  0  1.012328  0  0.131156  0  0.10834  0.147468  0  1.012458  0
H  H11  1  0.16427873  0.94348565  0.90585933  1  0  0.135804  0  0.952026  0  0  0.148924  0  1.012267  0  0  0.150855  0  1.012285  0  0.131157  0  0.108315  0.14745  0  1.01241  0
H  H12  1  0.21170499  0.44339037  0.67813253  1  0  0.129008  0  0.947798  0  0  0.137992  0  1.015181  0  0  0.140342  0  1.014666  0  0.117772  0  0.112804  0.136229  0  1.015686  0
H  H13  1  0.78829386  0.05661030  0.17813205  1  0  0.128975  0  0.947865  0  0  0.137951  0  1.015261  0  0  0.140301  0  1.014745  0  0.117823  0  0.112785  0.136188  0  1.015766  0
H  H14  1  0.78829385  0.55660955  0.32186795  1  0  0.128964  0  0.947858  0  0  0.137944  0  1.015255  0  0  0.140295  0  1.014738  0  0.117818  0  0.112783  0.136181  0  1.015759  0
H  H15  1  0.21170671  0.94339104  0.82186795  1  0  0.128992  0  0.947868  0  0  0.137966  0  1.015256  0  0  0.140314  0  1.014741  0  0.117815  0  0.112794  0.136204  0  1.01576  0
H  H16  1  0.03035003  0.13392734  0.75574703  1  0  0.127061  0  0.939552  0  0  0.138051  0  1.003831  0  0  0.140154  0  1.003275  0  0.103183  0  0.116869  0.136484  0  1.004318  0
H  H17  1  0.96964851  0.36607192  0.25574703  1  0  0.127039  0  0.939582  0  0  0.138035  0  1.003865  0  0  0.14014  0  1.003309  0  0.103179  0  0.116862  0.136468  0  1.004352  0
H  H18  1  0.96964739  0.86607259  0.24425249  1  0  0.127039  0  0.939575  0  0  0.138023  0  1.003857  0  0  0.140127  0  1.003302  0  0.103174  0  0.116854  0.136456  0  1.004345  0
H  H19  1  0.03035317  0.63392801  0.74425297  1  0  0.127043  0  0.939595  0  0  0.138023  0  1.003878  0  0  0.140127  0  1.003324  0  0.103182  0  0.116858  0.136456  0  1.004365  0
H  H20  1  0.86714204  0.93409391  0.72322180  1  0  0.138187  0  0.947773  0  0  0.146962  0  1.01131  0  0  0.149486  0  1.010367  0  0.116908  0  0.110284  0.145039  0  1.012188  0
H  H21  1  0.13285821  0.56590528  0.22322227  1  0  0.138191  0  0.947752  0  0  0.146957  0  1.011324  0  0  0.14948  0  1.010386  0  0.11691  0  0.110284  0.145034  0  1.012201  0
H  H22  1  0.13285650  0.06590461  0.27677725  1  0  0.138215  0  0.947732  0  0  0.146956  0  1.01132  0  0  0.14948  0  1.010379  0  0.116916  0  0.110296  0.145033  0  1.012198  0
H  H23  1  0.86714347  0.43409465  0.77677677  1  0  0.138214  0  0.947721  0  0  0.146965  0  1.011292  0  0  0.149488  0  1.010354  0  0.116917  0  0.110297  0.145042  0  1.012169  0
H  H24  1  0.78837758  0.93007513  0.58365160  1  0  0.126255  0  0.954193  0  0  0.136228  0  1.017527  0  0  0.1385  0  1.016783  0  0.114548  0  0.106109  0.134517  0  1.018243  0
H  H25  1  0.21162237  0.56992265  0.08365208  1  0  0.126267  0  0.954201  0  0  0.136236  0  1.017535  0  0  0.13851  0  1.01679  0  0.11441  0  0.106118  0.134524  0  1.018252  0
H  H26  1  0.21162238  0.06992339  0.41634696  1  0  0.126214  0  0.954233  0  0  0.136199  0  1.017569  0  0  0.138475  0  1.01682  0  0.114568  0  0.106094  0.134488  0  1.018285  0
H  H27  1  0.78837759  0.43007587  0.91634792  1  0  0.12625  0  0.954218  0  0  0.136218  0  1.017557  0  0  0.138492  0  1.016811  0  0.114563  0  0.106108  0.134506  0  1.018273  0
H  H28  1  0.90210204  0.12762522  0.53569073  1  0  0.133638  0  0.976781  0  0  0.136035  0  1.051653  0  0  0.139181  0  1.05033  0  0.129544  0  0.1065  0.133697  0  1.052742  0
H  H29  1  0.09789763  0.37237262  0.03569073  1  0  0.13364  0  0.976797  0  0  0.136035  0  1.051675  0  0  0.139184  0  1.05035  0  0.129537  0  0.106493  0.133697  0  1.052763  0
H  H30  1  0.09789793  0.87237329  0.46430831  1  0  0.133623  0  0.9768  0  0  0.136046  0  1.051657  0  0  0.139195  0  1.05033  0  0.129566  0  0.106514  0.133708  0  1.052746  0
H  H31  1  0.90210263  0.62762731  0.96430879  1  0  0.133666  0  0.976764  0  0  0.136066  0  1.051633  0  0  0.139215  0  1.050309  0  0.129553  0  0.106511  0.133728  0  1.052722  0
H  H32  1  0.45812500  0.04608041  0.67382536  1  0  0.082377  0  0.933867  0  0  0.091688  0  1.002991  0  0  0.09245  0  1.002178  0  0.10062  0  0.114018  0.091026  0  1.003715  0
H  H33  1  0.54187558  0.45392167  0.17382536  1  0  0.082366  0  0.933919  0  0  0.091695  0  1.003053  0  0  0.092458  0  1.00224  0  0.100596  0  0.114018  0.091032  0  1.003777  0
H  H34  1  0.54187557  0.95392092  0.32617512  1  0  0.08238  0  0.933913  0  0  0.091694  0  1.003038  0  0  0.092456  0  1.002227  0  0.100609  0  0.11403  0.091031  0  1.003763  0
H  H35  1  0.45812499  0.54607967  0.82617512  1  0  0.082405  0  0.933903  0  0  0.091728  0  1.003025  0  0  0.092493  0  1.002214  0  0.100597  0  0.114026  0.091065  0  1.003749  0
H  H36  1  0.36589182  0.20468386  0.72455413  1  0  0.087045  0  0.921408  0  0  0.096669  0  0.989602  0  0  0.097901  0  0.988355  0  0.106661  0  0.113141  0.095646  0  0.990708  0
H  H37  1  0.63410733  0.29531823  0.22455366  1  0  0.087044  0  0.921367  0  0  0.096691  0  0.989562  0  0  0.097925  0  0.988316  0  0.106639  0  0.113147  0.095668  0  0.990669  0
H  H38  1  0.63410732  0.79531748  0.27544634  1  0  0.087041  0  0.92141  0  0  0.096669  0  0.989602  0  0  0.097903  0  0.988355  0  0.106669  0  0.113146  0.095647  0  0.990708  0
H  H39  1  0.36589354  0.70468453  0.77544634  1  0  0.087071  0  0.921377  0  0  0.096705  0  0.989573  0  0  0.09794  0  0.98833  0  0.106674  0  0.113134  0.095682  0  0.99068  0
H  H40  1  0.25174688  0.20606205  0.52700233  1  0  0.085867  0  0.926114  0  0  0.098712  0  0.990767  0  0  0.099085  0  0.990902  0  0.084342  0  0.116458  0.098321  0  0.990819  0
H  H41  1  0.74825451  0.29393721  0.02700138  1  0  0.085839  0  0.926129  0  0  0.098681  0  0.990784  0  0  0.099053  0  0.990919  0  0.08487  0  0.116438  0.098288  0  0.990836  0
H  H42  1  0.74825369  0.79393929  0.47299815  1  0  0.085839  0  0.926139  0  0  0.098718  0  0.990764  0  0  0.09909  0  0.990898  0  0.084901  0  0.116453  0.098327  0  0.990818  0
H  H43  1  0.25174575  0.70606272  0.97299862  1  0  0.085829  0  0.926145  0  0  0.09865  0  0.990815  0  0  0.099022  0  0.990952  0  0.084858  0  0.116436  0.098259  0  0.990863  0
H  H44  1  0.39194530  0.04570339  0.55792092  1  0  0.07813  0  0.909596  0  0  0.091265  0  0.973963  0  0  0.09186  0  0.973213  0  0.081484  0  0.118288  0.090736  0  0.974632  0
H  H45  1  0.60805609  0.45429587  0.05791996  1  0  0.078127  0  0.909623  0  0  0.091262  0  0.973977  0  0  0.091855  0  0.973228  0  0.081484  0  0.118292  0.090732  0  0.974647  0
H  H46  1  0.60805496  0.95429654  0.44207956  1  0  0.078174  0  0.90961  0  0  0.091344  0  0.97394  0  0  0.091937  0  0.97319  0  0.08147  0  0.118313  0.090814  0  0.974613  0
H  H47  1  0.39194448  0.54570547  0.94208004  1  0  0.078139  0  0.909618  0  0  0.091283  0  0.973959  0  0  0.091877  0  0.973212  0  0.081493  0  0.118299  0.090753  0  0.974629  0
H  H48  1  0.24044241  0.78642703  0.62416657  1  0  0.073238  0  0.950718  0  0  0.081368  0  1.026567  0  0  0.081904  0  1.026155  0  0.108418  0  0.106203  0.080886  0  1.026962  0
H  H49  1  0.75955957  0.71357357  0.12416657  1  0  0.073245  0  0.950706  0  0  0.081371  0  1.026529  0  0  0.081902  0  1.026125  0  0.108427  0  0.1062  0.080889  0  1.026924  0
H  H50  1  0.75955786  0.21357290  0.37583343  1  0  0.073237  0  0.950695  0  0  0.081353  0  1.02654  0  0  0.081887  0  1.026129  0  0.108422  0  0.106196  0.08087  0  1.026935  0
H  H51  1  0.24044241  0.28642777  0.87583343  1  0  0.0732  0  0.95075  0  0  0.081332  0  1.026566  0  0  0.081864  0  1.026162  0  0.108414  0  0.106193  0.08085  0  1.026962  0
H  H52  1  0.98350686  0.74967764  0.63991761  1  0  0.071999  0  0.933139  0  0  0.084863  0  0.999935  0  0  0.085452  0  0.999016  0  0.064429  0  0.110797  0.084293  0  1.000774  0
H  H53  1  0.01649339  0.75032155  0.13991761  1  0  0.07202  0  0.933147  0  0  0.084874  0  0.999926  0  0  0.085464  0  0.999006  0  0.064438  0  0.110801  0.084304  0  1.000765  0
H  H54  1  0.01649340  0.25032229  0.36008239  1  0  0.072011  0  0.933159  0  0  0.084863  0  0.999942  0  0  0.085452  0  0.999023  0  0.064433  0  0.110799  0.084293  0  1.000781  0
H  H55  1  0.98350717  0.24967979  0.86008239  1  0  0.072001  0  0.933136  0  0  0.084842  0  0.999931  0  0  0.085433  0  0.999011  0  0.064452  0  0.110784  0.084273  0  1.00077  0
C  C56  1  0.17072493  0.35324176  0.63605345  1  0  -0.30217  0  3.576724  0  0  -0.337994  0  3.817517  0  0  -0.341742  0  3.827501  0  -0.313341  0  -0.083645  -0.335253  0  3.810855  0
C  C57  1  0.82927392  0.14675891  0.13605345  1  0  -0.302111  0  3.576717  0  0  -0.337917  0  3.817491  0  0  -0.341665  0  3.827473  0  -0.313394  0  -0.0836  -0.335178  0  3.810833  0
C  C58  1  0.82927391  0.64675817  0.36394655  1  0  -0.302075  0  3.576668  0  0  -0.337898  0  3.81747  0  0  -0.341649  0  3.827452  0  -0.3134  0  -0.083607  -0.33516  0  3.810808  0
C  C59  1  0.17072492  0.85324102  0.86394608  1  0  -0.30206  0  3.576674  0  0  -0.337851  0  3.817432  0  0  -0.341597  0  3.827414  0  -0.313388  0  -0.083576  -0.335117  0  3.810777  0
C  C60  1  0.99270157  0.04779327  0.71252867  1  0  -0.297306  0  3.620497  0  0  -0.332959  0  3.871014  0  0  -0.336065  0  3.879191  0  -0.253651  0  -0.078944  -0.330655  0  3.865458  0
C  C61  1  0.00729840  0.45220599  0.21252915  1  0  -0.297257  0  3.620484  0  0  -0.332948  0  3.871041  0  0  -0.336059  0  3.879221  0  -0.253761  0  -0.078933  -0.330645  0  3.865488  0
C  C62  1  0.00729728  0.95220666  0.28747085  1  0  -0.297342  0  3.620599  0  0  -0.332967  0  3.871083  0  0  -0.336075  0  3.879263  0  -0.253763  0  -0.078951  -0.330665  0  3.86553  0
C  C63  1  0.99270328  0.54779394  0.78747085  1  0  -0.297324  0  3.620504  0  0  -0.332938  0  3.870977  0  0  -0.336049  0  3.879158  0  -0.253623  0  -0.078943  -0.330634  0  3.865421  0
C  C64  1  0.91607442  0.04626257  0.57918196  1  0  -0.307827  0  3.630825  0  0  -0.339995  0  3.871922  0  0  -0.343979  0  3.881313  0  -0.249771  0  -0.081208  -0.337181  0  3.865689  0
C  C65  1  0.08392555  0.45373668  0.07918196  1  0  -0.307896  0  3.630937  0  0  -0.340049  0  3.872001  0  0  -0.344038  0  3.881398  0  -0.249556  0  -0.081197  -0.337234  0  3.865769  0
C  C66  1  0.08392270  0.95373594  0.42081756  1  0  -0.307751  0  3.630993  0  0  -0.339928  0  3.87202  0  0  -0.343917  0  3.881414  0  -0.24971  0  -0.081151  -0.337112  0  3.865785  0
C  C67  1  0.91607442  0.54626183  0.92081756  1  0  -0.307911  0  3.630952  0  0  -0.340055  0  3.871997  0  0  -0.344043  0  3.881392  0  -0.249755  0  -0.081209  -0.337239  0  3.865764  0
C  C68  1  0.33516637  0.11461149  0.68207172  1  0  0.062025  0  3.607687  0  0  -0.006955  0  3.869679  0  0  0.001342  0  3.878594  0  0.510358  0  0.01337  -0.012504  0  3.863496  0
C  C69  1  0.66483278  0.38539059  0.18207124  1  0  0.062141  0  3.60755  0  0  -0.00695  0  3.8697  0  0  0.001346  0  3.878611  0  0.510408  0  0.013397  -0.012499  0  3.863517  0
C  C70  1  0.66483247  0.88538843  0.31792828  1  0  0.062087  0  3.60771  0  0  -0.006915  0  3.869733  0  0  0.001381  0  3.878649  0  0.510348  0  0.013383  -0.012462  0  3.863547  0
C  C71  1  0.33516951  0.61461216  0.81792924  1  0  0.062018  0  3.607684  0  0  -0.007025  0  3.869781  0  0  0.001274  0  3.878676  0  0.510407  0  0.013408  -0.012572  0  3.863597  0
C  C72  1  0.26934199  0.11441380  0.56740595  1  0  0.063656  0  3.618889  0  0  -0.007362  0  3.878106  0  0  0.000824  0  3.888162  0  0.549866  0  0.019814  -0.012872  0  3.871157  0
C  C73  1  0.73065655  0.38558546  0.06740500  1  0  0.063638  0  3.618781  0  0  -0.007366  0  3.877999  0  0  0.000826  0  3.888043  0  0.549308  0  0.019835  -0.012875  0  3.871052  0
C  C74  1  0.73065715  0.88558754  0.43259405  1  0  0.063609  0  3.618872  0  0  -0.007476  0  3.878131  0  0  0.000724  0  3.88816  0  0.54931  0  0.019812  -0.012994  0  3.871193  0
C  C75  1  0.26934259  0.61441588  0.93259548  1  0  0.063641  0  3.618788  0  0  -0.00737  0  3.878055  0  0  0.000813  0  3.888112  0  0.549299  0  0.019812  -0.012879  0  3.871109  0
C  C76  1  0.11793854  0.85587031  0.63289894  1  0  0.060237  0  3.649719  0  0  -0.011378  0  3.915892  0  0  -0.003379  0  3.925303  0  0.552833  0  0.016298  -0.016707  0  3.909326  0
C  C77  1  0.88206172  0.64412888  0.13289846  1  0  0.060067  0  3.649837  0  0  -0.011442  0  3.91585  0  0  -0.003444  0  3.92526  0  0.552835  0  0.016279  -0.01677  0  3.909284  0
C  C78  1  0.88206172  0.14412962  0.36710106  1  0  0.06017  0  3.649776  0  0  -0.011361  0  3.915833  0  0  -0.003363  0  3.925246  0  0.552839  0  0.016314  -0.016689  0  3.909267  0
C  C79  1  0.11793997  0.35587105  0.86710202  1  0  0.060143  0  3.649834  0  0  -0.011333  0  3.915782  0  0  -0.003335  0  3.925191  0  0.552831  0  0.016328  -0.016662  0  3.909216  0
N  N80  1  0.32290751  0.23933066  0.62503202  1  0  -0.236446  0  3.20879  0  0  -0.136109  0  3.452945  0  0  -0.154774  0  3.471417  0  -0.97706  0  -0.332146  -0.12318  0  3.440081  0
N  N81  1  0.67709277  0.26067001  0.12503154  1  0  -0.236492  0  3.208724  0  0  -0.13614  0  3.452893  0  0  -0.154806  0  3.47137  0  -0.977054  0  -0.332181  -0.12321  0  3.440027  0
N  N82  1  0.67709306  0.76067068  0.37496798  1  0  -0.236502  0  3.208781  0  0  -0.136158  0  3.45293  0  0  -0.154824  0  3.471403  0  -0.977066  0  -0.332195  -0.123224  0  3.440064  0
N  N83  1  0.32290780  0.73933133  0.87496894  1  0  -0.236553  0  3.208843  0  0  -0.136214  0  3.45299  0  0  -0.154876  0  3.47146  0  -0.977075  0  -0.332173  -0.123285  0  3.440125  0
N  N84  1  0.16097158  0.96906266  0.69182676  1  0  -0.21748  0  3.195506  0  0  -0.150674  0  3.459473  0  0  -0.165559  0  3.478073  0  -0.992597  0  -0.333308  -0.140233  0  3.446355  0
N  N85  1  0.83902898  0.53093794  0.19182676  1  0  -0.2175  0  3.19549  0  0  -0.150682  0  3.45947  0  0  -0.165562  0  3.478071  0  -0.99259  0  -0.333313  -0.140239  0  3.44635  0
N  N86  1  0.83902868  0.03093727  0.30817276  1  0  -0.21749  0  3.195538  0  0  -0.150704  0  3.459487  0  0  -0.16559  0  3.478091  0  -0.992601  0  -0.333317  -0.140262  0  3.446367  0
N  N87  1  0.16097301  0.46906340  0.80817420  1  0  -0.217445  0  3.195503  0  0  -0.150682  0  3.459484  0  0  -0.165564  0  3.478091  0  -0.992598  0  -0.333334  -0.14024  0  3.446364  0
N  N88  1  0.09507976  0.96981530  0.57665061  1  0  -0.188479  0  3.207433  0  0  -0.115334  0  3.456163  0  0  -0.130285  0  3.475873  0  -0.996881  0  -0.326747  -0.10469  0  3.442117  0
N  N89  1  0.90492192  0.53018388  0.07665013  1  0  -0.188292  0  3.207342  0  0  -0.115192  0  3.456057  0  0  -0.130141  0  3.475764  0  -0.996935  0  -0.326744  -0.104553  0  3.442018  0
N  N90  1  0.90492193  0.03018463  0.42334939  1  0  -0.188434  0  3.207489  0  0  -0.115333  0  3.456248  0  0  -0.130288  0  3.475957  0  -0.996947  0  -0.326791  -0.104691  0  3.442206  0
N  N91  1  0.09507834  0.46981604  0.92335035  1  0  -0.188315  0  3.207363  0  0  -0.115223  0  3.456072  0  0  -0.130168  0  3.475779  0  -0.996921  0  -0.32676  -0.104584  0  3.442033  0
Cl  Cl92  1  0.71302933  0.40254454  0.51193610  1  0  -0.571177  0  0.971342  0  0  -0.512527  0  1.263867  0  0  -0.528034  0  1.239206  0  -0.652303  0  -0.305473  -0.501377  0  1.280803  0
Cl  Cl93  1  0.28697267  0.09745754  0.01193562  1  0  -0.571173  0  0.971357  0  0  -0.512519  0  1.263877  0  0  -0.528025  0  1.239215  0  -0.652121  0  -0.305477  -0.501365  0  1.280799  0
Cl  Cl94  1  0.28697124  0.59745680  0.48806438  1  0  -0.571177  0  0.97135  0  0  -0.512516  0  1.26386  0  0  -0.528032  0  1.239213  0  -0.652133  0  -0.305477  -0.501378  0  1.280812  0
Cl  Cl95  1  0.71302790  0.90254380  0.98806486  1  0  -0.571173  0  0.971348  0  0  -0.51251  0  1.263846  0  0  -0.528022  0  1.239191  0  -0.652261  0  -0.305469  -0.501369  0  1.28079  0
Cl  Cl96  1  0.57750208  0.68913893  0.66195330  1  0  -0.551839  0  0.950261  0  0  -0.484063  0  1.226177  0  0  -0.499468  0  1.201984  0  -0.660159  0  -0.282837  -0.473025  0  1.242999  0
Cl  Cl97  1  0.42249848  0.81086166  0.16195282  1  0  -0.55182  0  0.950277  0  0  -0.484045  0  1.226206  0  0  -0.499447  0  1.202008  0  -0.660172  0  -0.282825  -0.473007  0  1.243027  0
Cl  Cl98  1  0.42249706  0.31086241  0.33804718  1  0  -0.551829  0  0.950285  0  0  -0.484044  0  1.226202  0  0  -0.499455  0  1.202018  0  -0.660154  0  -0.282829  -0.473006  0  1.243025  0
Cl  Cl99  1  0.57750321  0.18913826  0.83804718  1  0  -0.551814  0  0.950285  0  0  -0.484041  0  1.226213  0  0  -0.49945  0  1.202031  0  -0.66017  0  -0.282826  -0.473002  0  1.243033  0
O  O100  1  0.77061411  0.29927205  0.66467102  1  0  -0.727277  0  2.039362  0  0  -0.641219  0  2.318279  0  0  -0.665502  0  2.299739  0  -1.434869  0  -0.357683  -0.624204  0  2.330877  0
O  O101  1  0.22938271  0.20072579  0.16467198  1  0  -0.727295  0  2.039327  0  0  -0.641269  0  2.318256  0  0  -0.665581  0  2.299736  0  -1.434845  0  -0.357714  -0.624247  0  2.330854  0
O  O102  1  0.22938301  0.70072646  0.33532802  1  0  -0.727302  0  2.039324  0  0  -0.641266  0  2.318254  0  0  -0.665551  0  2.299716  0  -1.434849  0  -0.357715  -0.624244  0  2.330849  0
O  O103  1  0.77061411  0.79927131  0.83532898  1  0  -0.727285  0  2.039322  0  0  -0.641274  0  2.318274  0  0  -0.665583  0  2.299752  0  -1.434856  0  -0.357705  -0.624253  0  2.330869  0
