# generated using pymatgen
data_MgH9C7NO5
_symmetry_space_group_name_H-M   'P 1'
_cell_length_a   8.06223540
_cell_length_b   14.00821775
_cell_length_c   14.00820527
_cell_angle_alpha   120.00014759
_cell_angle_beta   89.99994851
_cell_angle_gamma   89.99999237
_symmetry_Int_Tables_number   1
_chemical_formula_structural   MgH9C7NO5
_chemical_formula_sum   'Mg6 H54 C42 N6 O30'
_cell_volume   1370.09550538
_cell_formula_units_Z   6
loop_
 _symmetry_equiv_pos_site_id
 _symmetry_equiv_pos_as_xyz
  1  'x, y, z'
loop_
 _atom_site_type_symbol
 _atom_site_label
 _atom_site_symmetry_multiplicity
 _atom_site_fract_x
 _atom_site_fract_y
 _atom_site_fract_z
 _atom_site_occupancy
 _atom_site_hle17_bader_spin_density
 _atom_site_hle17_ddec_charge
 _atom_site_hle17_ddec_spin_density
 _atom_site_hle17_ddec_sum_bond_order
 _atom_site_hle17_magmom
 _atom_site_hse06_10hf_bader_spin_density
 _atom_site_hse06_10hf_ddec_charge
 _atom_site_hse06_10hf_ddec_spin_density
 _atom_site_hse06_10hf_ddec_sum_bond_order
 _atom_site_hse06_10hf_magmom
 _atom_site_hse06_bader_spin_density
 _atom_site_hse06_ddec_charge
 _atom_site_hse06_ddec_spin_density
 _atom_site_hse06_ddec_sum_bond_order
 _atom_site_hse06_magmom
 _atom_site_pbe_bader_spin_density
 _atom_site_pbe_cm5_charge
 _atom_site_pbe_ddec_charge
 _atom_site_pbe_ddec_spin_density
 _atom_site_pbe_ddec_sum_bond_order
 _atom_site_pbe_magmom
Mg  Mg0  1  0.60195012  0.22067406  0.98449840  1  0  1.48771  0  1.152171  0  0  1.378844  0  1.407701  0  0  1.404552  0  1.369098  0  0  0.812408  1.360674  0  1.434606  0
Mg  Mg1  1  0.60195073  0.01550047  0.23617694  1  0  1.487789  0  1.15203  0  0  1.378812  0  1.407763  0  0  1.404519  0  1.36916  0  0  0.812413  1.36065  0  1.434652  0
Mg  Mg2  1  0.60195022  0.76382490  0.77932468  1  0  1.487709  0  1.15216  0  0  1.378814  0  1.407758  0  0  1.404521  0  1.369154  0  0  0.812399  1.360649  0  1.434646  0
Mg  Mg3  1  0.39805079  0.77932460  0.01550039  1  0  1.487705  0  1.152152  0  0  1.378822  0  1.407733  0  0  1.404527  0  1.369132  0  0  0.812404  1.360655  0  1.43463  0
Mg  Mg4  1  0.39805018  0.98450148  0.76382350  1  0  1.487733  0  1.152133  0  0  1.378833  0  1.407734  0  0  1.404542  0  1.369127  0  0  0.81241  1.36066  0  1.434645  0
Mg  Mg5  1  0.39804945  0.23617540  0.22067565  1  0  1.487729  0  1.152119  0  0  1.378838  0  1.407694  0  0  1.404546  0  1.36909  0  0  0.812399  1.360671  0  1.43459  0
H  H6  1  0.86563019  0.04525642  0.88129908  1  0  0.010921  0  0.917828  0  0  0.019002  0  0.990866  0  0  0.019661  0  0.985904  0  0  0.115583  0.018288  0  0.994503  0
H  H7  1  0.86562703  0.11870299  0.16395869  1  0  0.010915  0  0.917817  0  0  0.018987  0  0.990858  0  0  0.019645  0  0.985897  0  0  0.115586  0.018273  0  0.994492  0
H  H8  1  0.86562757  0.83603985  0.95474125  1  0  0.010906  0  0.91781  0  0  0.018979  0  0.990853  0  0  0.019637  0  0.985893  0  0  0.115569  0.018253  0  0.994494  0
H  H9  1  0.13437320  0.95474306  0.11870156  1  0  0.010843  0  0.917826  0  0  0.018929  0  0.990873  0  0  0.019588  0  0.985912  0  0  0.115552  0.018214  0  0.994508  0
H  H10  1  0.13437141  0.88130061  0.83604115  1  0  0.010924  0  0.917768  0  0  0.018979  0  0.990829  0  0  0.019637  0  0.98587  0  0  0.115582  0.018268  0  0.994462  0
H  H11  1  0.13436839  0.16395716  0.04525600  1  0  0.0109  0  0.917815  0  0  0.018976  0  0.990852  0  0  0.019635  0  0.985889  0  0  0.115571  0.018255  0  0.994493  0
H  H12  1  0.05944694  0.07312933  0.74304140  1  0  0.044825  0  0.93474  0  0  0.050378  0  1.012468  0  0  0.052957  0  1.00651  0  0  0.126258  0.048359  0  1.016802  0
H  H13  1  0.05944724  0.25696047  0.33008812  1  0  0.044865  0  0.934668  0  0  0.050405  0  1.012409  0  0  0.052982  0  1.006453  0  0  0.126278  0.048386  0  1.016742  0
H  H14  1  0.05944425  0.66991412  0.92687103  1  0  0.044815  0  0.934739  0  0  0.050371  0  1.012463  0  0  0.052952  0  1.006501  0  0  0.126258  0.048344  0  1.016801  0
H  H15  1  0.94055397  0.92687180  0.25696077  1  0  0.044848  0  0.934709  0  0  0.050389  0  1.012446  0  0  0.052967  0  1.006489  0  0  0.126278  0.048362  0  1.016787  0
H  H16  1  0.94055615  0.74303984  0.66991221  1  0  0.04485  0  0.934703  0  0  0.050413  0  1.012419  0  0  0.052996  0  1.006464  0  0  0.126278  0.048389  0  1.016759  0
H  H17  1  0.94055542  0.33008783  0.07312870  1  0  0.044819  0  0.934731  0  0  0.050372  0  1.012456  0  0  0.05295  0  1.006499  0  0  0.126274  0.048356  0  1.016785  0
H  H18  1  0.53463048  0.55276734  0.42383999  1  0  0.116041  0  0.939774  0  0  0.124515  0  1.002825  0  0  0.129092  0  0.998441  0  0  0.111634  0.121161  0  1.006059  0
H  H19  1  0.53463443  0.57615887  0.12892549  1  0  0.116111  0  0.939918  0  0  0.124576  0  1.002956  0  0  0.129155  0  0.99857  0  0  0.111687  0.121225  0  1.006188  0
H  H20  1  0.53463291  0.87107271  0.44723195  1  0  0.116063  0  0.939791  0  0  0.124538  0  1.002832  0  0  0.129115  0  0.998449  0  0  0.111649  0.121185  0  1.006062  0
H  H21  1  0.46536423  0.44723132  0.57615880  1  0  0.116057  0  0.939819  0  0  0.124517  0  1.002859  0  0  0.129086  0  0.998501  0  0  0.111655  0.121168  0  1.006085  0
H  H22  1  0.46536896  0.42384226  0.87107454  1  0  0.116077  0  0.939951  0  0  0.124569  0  1.002958  0  0  0.129144  0  0.998581  0  0  0.111672  0.12122  0  1.006185  0
H  H23  1  0.46536552  0.12892595  0.55276827  1  0  0.11605  0  0.939783  0  0  0.124516  0  1.002835  0  0  0.129094  0  0.998449  0  0  0.111658  0.121167  0  1.00606  0
H  H24  1  0.80296050  0.04522369  0.54302240  1  0  0.100858  0  0.940453  0  0  0.120574  0  1.003926  0  0  0.121215  0  1.00421  0  0  0.103701  0.120034  0  1.003784  0
H  H25  1  0.80296172  0.45697849  0.50220280  1  0  0.100834  0  0.940482  0  0  0.120539  0  1.003968  0  0  0.12118  0  1.004251  0  0  0.10369  0.119994  0  1.003833  0
H  H26  1  0.80296260  0.49779795  0.95477573  1  0  0.100854  0  0.940457  0  0  0.12057  0  1.003926  0  0  0.121212  0  1.00421  0  0  0.103701  0.120023  0  1.003794  0
H  H27  1  0.19703918  0.95477580  0.45697823  1  0  0.100833  0  0.940454  0  0  0.120549  0  1.003934  0  0  0.121191  0  1.004218  0  0  0.103684  0.119998  0  1.003806  0
H  H28  1  0.19703919  0.54301934  0.49779629  1  0  0.100849  0  0.940482  0  0  0.120539  0  1.003993  0  0  0.121179  0  1.004278  0  0  0.103693  0.119995  0  1.003856  0
H  H29  1  0.19703955  0.50220318  0.04522359  1  0  0.100813  0  0.940426  0  0  0.120522  0  1.003913  0  0  0.121163  0  1.004198  0  0  0.103684  0.119981  0  1.003776  0
H  H30  1  0.83074299  0.11224388  0.68987044  1  0  0.107874  0  0.941357  0  0  0.126006  0  1.008672  0  0  0.127063  0  1.008323  0  0  0.109346  0.1251  0  1.009072  0
H  H31  1  0.83074566  0.31013128  0.42237489  1  0  0.107868  0  0.941301  0  0  0.125997  0  1.008621  0  0  0.127053  0  1.008272  0  0  0.10934  0.125093  0  1.009021  0
H  H32  1  0.83074526  0.57762412  0.88775516  1  0  0.107886  0  0.941323  0  0  0.126017  0  1.008635  0  0  0.127072  0  1.008287  0  0  0.109349  0.12511  0  1.009038  0
H  H33  1  0.16925544  0.88775643  0.31013132  1  0  0.107866  0  0.941302  0  0  0.125998  0  1.008622  0  0  0.127054  0  1.008273  0  0  0.109346  0.12509  0  1.009027  0
H  H34  1  0.16925774  0.68986655  0.57762420  1  0  0.107841  0  0.941299  0  0  0.12598  0  1.008609  0  0  0.127035  0  1.008262  0  0  0.109339  0.125085  0  1.008996  0
H  H35  1  0.16925689  0.42237536  0.11224333  1  0  0.107832  0  0.941269  0  0  0.125959  0  1.008599  0  0  0.127015  0  1.00825  0  0  0.109336  0.125058  0  1.008993  0
H  H36  1  0.69067013  0.99924959  0.62249037  1  0  0.129556  0  0.966032  0  0  0.145393  0  1.029454  0  0  0.146955  0  1.029357  0  0  0.111602  0.144177  0  1.029628  0
H  H37  1  0.69067039  0.37751056  0.37676114  1  0  0.129545  0  0.966076  0  0  0.145396  0  1.029478  0  0  0.146954  0  1.029379  0  0  0.111613  0.144183  0  1.029649  0
H  H38  1  0.69067066  0.62323949  0.00075045  1  0  0.129545  0  0.966073  0  0  0.145394  0  1.029477  0  0  0.146953  0  1.029377  0  0  0.111599  0.144182  0  1.029647  0
H  H39  1  0.30932955  0.00074990  0.37751098  1  0  0.129519  0  0.966069  0  0  0.145372  0  1.029472  0  0  0.14693  0  1.029373  0  0  0.111606  0.144154  0  1.029648  0
H  H40  1  0.30933176  0.62248727  0.62323796  1  0  0.129559  0  0.966028  0  0  0.145404  0  1.029441  0  0  0.146965  0  1.029339  0  0  0.111603  0.144189  0  1.029619  0
H  H41  1  0.30932902  0.37676000  0.99924875  1  0  0.129505  0  0.966076  0  0  0.145351  0  1.02949  0  0  0.146912  0  1.029388  0  0  0.111587  0.14414  0  1.029659  0
H  H42  1  0.88626493  0.84683069  0.43576901  1  0  0.100298  0  0.935831  0  0  0.123336  0  0.995624  0  0  0.123481  0  0.996479  0  0  0.107885  0.123107  0  0.995123  0
H  H43  1  0.88626374  0.56423164  0.41106220  1  0  0.10034  0  0.935925  0  0  0.123386  0  0.995682  0  0  0.12353  0  0.996538  0  0  0.107909  0.123154  0  0.99519  0
H  H44  1  0.88626642  0.58893635  0.15316798  1  0  0.100318  0  0.935878  0  0  0.123377  0  0.995632  0  0  0.123521  0  0.996489  0  0  0.107895  0.123139  0  0.995141  0
H  H45  1  0.11373475  0.15317044  0.56423316  1  0  0.100319  0  0.935919  0  0  0.123362  0  0.995683  0  0  0.123507  0  0.996539  0  0  0.107891  0.123124  0  0.9952  0
H  H46  1  0.11373594  0.43576702  0.58893873  1  0  0.100308  0  0.935889  0  0  0.123335  0  0.995682  0  0  0.123477  0  0.996537  0  0  0.107899  0.123105  0  0.995187  0
H  H47  1  0.11373202  0.41106313  0.84683051  1  0  0.100364  0  0.935962  0  0  0.12341  0  0.995721  0  0  0.123552  0  0.996576  0  0  0.107926  0.123178  0  0.995227  0
H  H48  1  0.06275879  0.81059627  0.49000813  1  0  0.107092  0  0.939181  0  0  0.125968  0  1.001353  0  0  0.127543  0  1.000249  0  0  0.110141  0.124753  0  1.002206  0
H  H49  1  0.06275896  0.50999254  0.32058921  1  0  0.107121  0  0.93915  0  0  0.125993  0  1.001323  0  0  0.127568  0  1.000219  0  0  0.110146  0.124775  0  1.002179  0
H  H50  1  0.06276152  0.67940960  0.18940236  1  0  0.10714  0  0.939095  0  0  0.126009  0  1.001273  0  0  0.127585  0  1.000169  0  0  0.110156  0.12479  0  1.002131  0
H  H51  1  0.93724088  0.18940404  0.50999363  1  0  0.107177  0  0.93909  0  0  0.126047  0  1.001263  0  0  0.127622  0  1.00016  0  0  0.110177  0.124823  0  1.002124  0
H  H52  1  0.93724071  0.49000859  0.67941225  1  0  0.107098  0  0.939171  0  0  0.125968  0  1.001345  0  0  0.127543  0  1.00024  0  0  0.110131  0.124754  0  1.0022  0
H  H53  1  0.93723815  0.32058988  0.81059756  1  0  0.107178  0  0.939067  0  0  0.126048  0  1.001241  0  0  0.127623  0  1.000137  0  0  0.110182  0.124831  0  1.002096  0
H  H54  1  0.85670606  0.79356194  0.52636586  1  0  0.0969  0  0.94914  0  0  0.117656  0  1.013442  0  0  0.117196  0  1.014638  0  0  0.10395  0.117822  0  1.012751  0
H  H55  1  0.85670630  0.47363475  0.26719641  1  0  0.096915  0  0.949131  0  0  0.117679  0  1.013416  0  0  0.117219  0  1.014612  0  0  0.103951  0.117843  0  1.012727  0
H  H56  1  0.85670880  0.73280284  0.20643950  1  0  0.096913  0  0.949208  0  0  0.117685  0  1.013478  0  0  0.117225  0  1.014673  0  0  0.103955  0.11785  0  1.012786  0
H  H57  1  0.14329361  0.20643837  0.47363518  1  0  0.09692  0  0.94914  0  0  0.117675  0  1.01344  0  0  0.117215  0  1.014636  0  0  0.103957  0.117839  0  1.012759  0
H  H58  1  0.14329337  0.52636556  0.73280463  1  0  0.096906  0  0.949184  0  0  0.117663  0  1.013474  0  0  0.117203  0  1.01467  0  0  0.103965  0.117829  0  1.012784  0
H  H59  1  0.14329087  0.26719664  0.79356042  1  0  0.09691  0  0.949191  0  0  0.117677  0  1.013465  0  0  0.117218  0  1.01466  0  0  0.103958  0.117847  0  1.012775  0
C  C60  1  0.75032090  0.99590991  0.85122476  1  0  0.648354  0  3.85165  0  0  0.570883  0  4.164769  0  0  0.604247  0  4.153891  0  0  0.169725  0.548339  0  4.17169  0
C  C61  1  0.75031783  0.14877602  0.14468610  1  0  0.648419  0  3.851542  0  0  0.570964  0  4.164646  0  0  0.604329  0  4.153768  0  0  0.169773  0.548422  0  4.171563  0
C  C62  1  0.75031786  0.85531285  0.00408777  1  0  0.648319  0  3.851562  0  0  0.57086  0  4.164668  0  0  0.604223  0  4.153796  0  0  0.169696  0.548315  0  4.171603  0
C  C63  1  0.24968374  0.00408875  0.14877546  1  0  0.648421  0  3.851612  0  0  0.570948  0  4.164722  0  0  0.60431  0  4.153849  0  0  0.169751  0.548405  0  4.171643  0
C  C64  1  0.24968185  0.85122594  0.85531291  1  0  0.648392  0  3.851541  0  0  0.57095  0  4.164644  0  0  0.604313  0  4.153771  0  0  0.169741  0.548408  0  4.17156  0
C  C65  1  0.24967810  0.14468499  0.99590919  1  0  0.64843  0  3.851577  0  0  0.570974  0  4.164685  0  0  0.604339  0  4.153801  0  0  0.169772  0.548431  0  4.171613  0
C  C66  1  0.54430136  0.77335761  0.57222310  1  0  0.690629  0  3.904519  0  0  0.635477  0  4.206332  0  0  0.669797  0  4.19632  0  0  0.221949  0.612311  0  4.212537  0
C  C67  1  0.54430169  0.42777544  0.20113206  1  0  0.690765  0  3.904242  0  0  0.635515  0  4.206187  0  0  0.669835  0  4.196178  0  0  0.221977  0.61235  0  4.212387  0
C  C68  1  0.54430535  0.79886586  0.22664299  1  0  0.69068  0  3.904447  0  0  0.635482  0  4.206312  0  0  0.669803  0  4.196301  0  0  0.22197  0.612316  0  4.212511  0
C  C69  1  0.45569583  0.22664352  0.42777693  1  0  0.690783  0  3.904439  0  0  0.635592  0  4.206281  0  0  0.669914  0  4.196269  0  0  0.222008  0.612426  0  4.212483  0
C  C70  1  0.45569675  0.57222404  0.79886715  1  0  0.690734  0  3.904398  0  0  0.635577  0  4.20622  0  0  0.669896  0  4.196209  0  0  0.22201  0.612412  0  4.212423  0
C  C71  1  0.45569805  0.20113444  0.77335734  1  0  0.690666  0  3.904514  0  0  0.635495  0  4.206359  0  0  0.669814  0  4.196345  0  0  0.221979  0.612327  0  4.212564  0
C  C72  1  0.06514382  0.98672701  0.67534530  1  0  0.401612  0  3.811205  0  0  0.322983  0  4.107782  0  0  0.351497  0  4.106061  0  0  0.18028  0.303913  0  4.108521  0
C  C73  1  0.06514418  0.32465630  0.31138263  1  0  0.401602  0  3.811114  0  0  0.322993  0  4.107686  0  0  0.351506  0  4.105964  0  0  0.180267  0.303921  0  4.108435  0
C  C74  1  0.06514190  0.68861922  0.01327382  1  0  0.401675  0  3.811042  0  0  0.323047  0  4.107637  0  0  0.35156  0  4.105916  0  0  0.180277  0.303977  0  4.108379  0
C  C75  1  0.93485709  0.01327329  0.32465646  1  0  0.401656  0  3.811112  0  0  0.323047  0  4.107682  0  0  0.351562  0  4.10596  0  0  0.180281  0.303975  0  4.108436  0
C  C76  1  0.93485797  0.67534319  0.68861800  1  0  0.401652  0  3.811134  0  0  0.323015  0  4.107718  0  0  0.351521  0  4.106006  0  0  0.180289  0.303942  0  4.108465  0
C  C77  1  0.93485902  0.31138026  0.98672610  1  0  0.401647  0  3.811068  0  0  0.323036  0  4.107646  0  0  0.35155  0  4.105924  0  0  0.180266  0.303966  0  4.108384  0
C  C78  1  0.53389740  0.71777630  0.44866207  1  0  -0.089237  0  3.771061  0  0  -0.063485  0  4.009961  0  0  -0.073869  0  4.033078  0  0  -0.024155  -0.057024  0  3.994433  0
C  C79  1  0.53389880  0.55133690  0.26911503  1  0  -0.089284  0  3.771016  0  0  -0.063502  0  4.009913  0  0  -0.073888  0  4.033031  0  0  -0.024137  -0.057041  0  3.994379  0
C  C80  1  0.53390001  0.73088489  0.28222206  1  0  -0.08919  0  3.771074  0  0  -0.063421  0  4.009957  0  0  -0.07381  0  4.033081  0  0  -0.024115  -0.056959  0  3.994423  0
C  C81  1  0.46609855  0.28222235  0.55133815  1  0  -0.089246  0  3.771086  0  0  -0.063482  0  4.009966  0  0  -0.073871  0  4.033092  0  0  -0.024122  -0.057018  0  3.994429  0
C  C82  1  0.46610212  0.44866259  0.73088560  1  0  -0.08928  0  3.771076  0  0  -0.063524  0  4.009962  0  0  -0.073903  0  4.03307  0  0  -0.024176  -0.057062  0  3.994432  0
C  C83  1  0.46610091  0.26911624  0.71777940  1  0  -0.08917  0  3.771048  0  0  -0.0634  0  4.009913  0  0  -0.073779  0  4.033022  0  0  -0.024089  -0.056938  0  3.994383  0
C  C84  1  0.53301309  0.60281481  0.38432305  1  0  -0.058897  0  3.691628  0  0  -0.096081  0  3.938378  0  0  -0.091414  0  3.955183  0  0  -0.073809  -0.09866  0  3.926883  0
C  C85  1  0.53301198  0.61567611  0.21849039  1  0  -0.059057  0  3.69184  0  0  -0.096229  0  3.938578  0  0  -0.091561  0  3.955383  0  0  -0.073893  -0.098809  0  3.927082  0
C  C86  1  0.53301430  0.78150718  0.39718430  1  0  -0.059005  0  3.69166  0  0  -0.096188  0  3.938411  0  0  -0.091519  0  3.955214  0  0  -0.07384  -0.098766  0  3.926912  0
C  C87  1  0.46698658  0.39718550  0.61567728  1  0  -0.058991  0  3.691695  0  0  -0.096149  0  3.938445  0  0  -0.091485  0  3.955244  0  0  -0.073854  -0.098728  0  3.926941  0
C  C88  1  0.46698521  0.38432420  0.78151065  1  0  -0.059041  0  3.69182  0  0  -0.096235  0  3.938563  0  0  -0.091571  0  3.95536  0  0  -0.07388  -0.098818  0  3.927069  0
C  C89  1  0.46698165  0.21849230  0.60281562  1  0  -0.058932  0  3.691613  0  0  -0.096106  0  3.938354  0  0  -0.091439  0  3.95516  0  0  -0.07384  -0.098682  0  3.926848  0
C  C90  1  0.80935817  0.03297797  0.61455901  1  0  -0.189077  0  3.627392  0  0  -0.290608  0  3.877189  0  0  -0.288476  0  3.888643  0  0  -0.135608  -0.29169  0  3.869375  0
C  C91  1  0.80935952  0.38544205  0.41842048  1  0  -0.189047  0  3.627408  0  0  -0.290567  0  3.877205  0  0  -0.28843  0  3.888657  0  0  -0.135607  -0.29165  0  3.869404  0
C  C92  1  0.80936031  0.58158010  0.96702143  1  0  -0.189063  0  3.627407  0  0  -0.290588  0  3.877195  0  0  -0.288453  0  3.888648  0  0  -0.13559  -0.29167  0  3.869398  0
C  C93  1  0.19064150  0.96702234  0.38544203  1  0  -0.188963  0  3.627255  0  0  -0.290498  0  3.877064  0  0  -0.288362  0  3.888519  0  0  -0.135584  -0.291577  0  3.86928  0
C  C94  1  0.19064139  0.61455660  0.58157974  1  0  -0.189022  0  3.627355  0  0  -0.290542  0  3.877181  0  0  -0.288404  0  3.888629  0  0  -0.13559  -0.291636  0  3.869371  0
C  C95  1  0.19064184  0.41842021  0.03297819  1  0  -0.188874  0  3.627206  0  0  -0.290389  0  3.877019  0  0  -0.288252  0  3.888467  0  0  -0.135531  -0.291471  0  3.869209  0
C  C96  1  0.93731771  0.84547647  0.50768577  1  0  -0.166397  0  3.648681  0  0  -0.26608  0  3.891066  0  0  -0.262111  0  3.901536  0  0  -0.130866  -0.268464  0  3.883952  0
C  C97  1  0.93731788  0.49231520  0.33779146  1  0  -0.166495  0  3.648736  0  0  -0.266172  0  3.891106  0  0  -0.262203  0  3.901575  0  0  -0.130893  -0.268561  0  3.884008  0
C  C98  1  0.93731801  0.66220862  0.15452416  1  0  -0.166501  0  3.648684  0  0  -0.266193  0  3.891053  0  0  -0.262225  0  3.901523  0  0  -0.130899  -0.268583  0  3.883955  0
C  C99  1  0.06268072  0.15452466  0.49231640  1  0  -0.166535  0  3.648683  0  0  -0.266198  0  3.891055  0  0  -0.262229  0  3.901525  0  0  -0.130931  -0.268588  0  3.88398  0
C  C100  1  0.06268179  0.50768510  0.66220959  1  0  -0.166426  0  3.648735  0  0  -0.266078  0  3.891106  0  0  -0.262103  0  3.901571  0  0  -0.130881  -0.268462  0  3.884003  0
C  C101  1  0.06268043  0.33779169  0.84547546  1  0  -0.166557  0  3.648729  0  0  -0.266227  0  3.891096  0  0  -0.262254  0  3.90156  0  0  -0.130937  -0.268614  0  3.883995  0
N  N102  1  0.94423258  0.95755049  0.60055776  1  0  -0.087739  0  3.496505  0  0  0.015885  0  3.732675  0  0  -0.004609  0  3.758537  0  0  -0.281313  0.029584  0  3.714733  0
N  N103  1  0.94423283  0.39944352  0.35699345  1  0  -0.087735  0  3.496461  0  0  0.015871  0  3.732632  0  0  -0.004623  0  3.758494  0  0  -0.281326  0.029567  0  3.714697  0
N  N104  1  0.94423429  0.64300546  0.04244975  1  0  -0.087755  0  3.496444  0  0  0.015849  0  3.732633  0  0  -0.004645  0  3.758494  0  0  -0.281348  0.029542  0  3.714695  0
N  N105  1  0.05576585  0.04245064  0.39944441  1  0  -0.087825  0  3.49638  0  0  0.01577  0  3.732581  0  0  -0.004725  0  3.758441  0  0  -0.281374  0.029453  0  3.714652  0
N  N106  1  0.05576808  0.60055596  0.64300647  1  0  -0.087818  0  3.496512  0  0  0.015787  0  3.732701  0  0  -0.004706  0  3.758561  0  0  -0.281369  0.029479  0  3.714771  0
N  N107  1  0.05576414  0.35699485  0.95755058  1  0  -0.087817  0  3.496389  0  0  0.01575  0  3.732624  0  0  -0.004743  0  3.75848  0  0  -0.28136  0.029446  0  3.714688  0
O  O108  1  0.61618202  0.04999701  0.86290590  1  0  -0.755653  0  2.123052  0  0  -0.685018  0  2.372278  0  0  -0.707575  0  2.357443  0  0  -0.360361  -0.669387  0  2.381878  0
O  O109  1  0.61617882  0.13709328  0.18709076  1  0  -0.755687  0  2.123032  0  0  -0.685053  0  2.372279  0  0  -0.707608  0  2.35743  0  0  -0.360395  -0.669431  0  2.381877  0
O  O110  1  0.61617939  0.81290749  0.95000039  1  0  -0.755631  0  2.123055  0  0  -0.685012  0  2.372297  0  0  -0.707563  0  2.357448  0  0  -0.360394  -0.669424  0  2.381916  0
O  O111  1  0.38382262  0.95000165  0.13709433  1  0  -0.755642  0  2.123128  0  0  -0.684997  0  2.372368  0  0  -0.707555  0  2.357531  0  0  -0.360344  -0.669376  0  2.381969  0
O  O112  1  0.38382085  0.86290785  0.81290713  1  0  -0.75564  0  2.123095  0  0  -0.685015  0  2.372325  0  0  -0.707566  0  2.357472  0  0  -0.360308  -0.669373  0  2.381913  0
O  O113  1  0.38381657  0.18708952  0.04999686  1  0  -0.755679  0  2.123043  0  0  -0.68504  0  2.372246  0  0  -0.70761  0  2.357435  0  0  -0.360386  -0.669433  0  2.381856  0
O  O114  1  0.76169496  0.89338635  0.80955365  1  0  -0.669374  0  2.073826  0  0  -0.611274  0  2.327623  0  0  -0.635475  0  2.316862  0  0  -0.338993  -0.59462  0  2.33453  0
O  O115  1  0.76169313  0.19044523  0.08383292  1  0  -0.669422  0  2.073755  0  0  -0.611318  0  2.327529  0  0  -0.635518  0  2.316766  0  0  -0.339024  -0.59467  0  2.334437  0
O  O116  1  0.76169303  0.91616553  0.10661050  1  0  -0.669361  0  2.073737  0  0  -0.611228  0  2.327495  0  0  -0.635428  0  2.316733  0  0  -0.338976  -0.59459  0  2.334409  0
O  O117  1  0.23830719  0.10661148  0.19044473  1  0  -0.669391  0  2.073726  0  0  -0.61128  0  2.327494  0  0  -0.63548  0  2.316734  0  0  -0.339013  -0.594631  0  2.334403  0
O  O118  1  0.23830779  0.80955589  0.91616496  1  0  -0.669421  0  2.073698  0  0  -0.611306  0  2.327455  0  0  -0.635508  0  2.316699  0  0  -0.339033  -0.594644  0  2.334357  0
O  O119  1  0.23830417  0.08383395  0.89338585  1  0  -0.669433  0  2.073841  0  0  -0.611329  0  2.327614  0  0  -0.635528  0  2.316849  0  0  -0.339051  -0.594696  0  2.334533  0
O  O120  1  0.41936451  0.09962064  0.71393396  1  0  -0.713457  0  2.003901  0  0  -0.66033  0  2.247798  0  0  -0.683507  0  2.235724  0  0  -0.354065  -0.644234  0  2.255573  0
O  O121  1  0.41936599  0.28606826  0.38568790  1  0  -0.713484  0  2.003795  0  0  -0.660359  0  2.247722  0  0  -0.683541  0  2.235648  0  0  -0.354071  -0.644269  0  2.255503  0
O  O122  1  0.41936679  0.61431478  0.90038113  1  0  -0.713463  0  2.003818  0  0  -0.66036  0  2.247742  0  0  -0.68354  0  2.235669  0  0  -0.354086  -0.644263  0  2.255505  0
O  O123  1  0.58063392  0.90037884  0.28606667  1  0  -0.713465  0  2.003896  0  0  -0.660304  0  2.247806  0  0  -0.683485  0  2.235732  0  0  -0.35403  -0.644213  0  2.255578  0
O  O124  1  0.58063369  0.71393369  0.61431254  1  0  -0.713471  0  2.003912  0  0  -0.660341  0  2.247789  0  0  -0.683519  0  2.235714  0  0  -0.354062  -0.644253  0  2.255563  0
O  O125  1  0.58063165  0.38568635  0.09961818  1  0  -0.713472  0  2.003723  0  0  -0.660328  0  2.247678  0  0  -0.683507  0  2.235605  0  0  -0.35408  -0.644247  0  2.255459  0
O  O126  1  0.51974732  0.87667169  0.62569493  1  0  -0.721398  0  2.067055  0  0  -0.664881  0  2.313748  0  0  -0.687242  0  2.300414  0  0  -0.359363  -0.649373  0  2.322439  0
O  O127  1  0.51974891  0.37430466  0.25097529  1  0  -0.721453  0  2.066977  0  0  -0.664914  0  2.31376  0  0  -0.687254  0  2.300384  0  0  -0.359347  -0.649401  0  2.322444  0
O  O128  1  0.51975269  0.74902175  0.12332824  1  0  -0.721432  0  2.066969  0  0  -0.664906  0  2.313691  0  0  -0.687258  0  2.30034  0  0  -0.359392  -0.649396  0  2.322377  0
O  O129  1  0.48025111  0.12333109  0.37430592  1  0  -0.721482  0  2.067048  0  0  -0.664947  0  2.313802  0  0  -0.687285  0  2.30042  0  0  -0.359367  -0.649421  0  2.322479  0
O  O130  1  0.48025324  0.62569399  0.74902207  1  0  -0.721428  0  2.066999  0  0  -0.66492  0  2.313714  0  0  -0.68727  0  2.300358  0  0  -0.359356  -0.649414  0  2.322402  0
O  O131  1  0.48025195  0.25097774  0.87667239  1  0  -0.721443  0  2.067071  0  0  -0.664927  0  2.313769  0  0  -0.68729  0  2.300441  0  0  -0.359365  -0.64941  0  2.322453  0
O  O132  1  0.17738814  0.92271740  0.67106841  1  0  -0.591404  0  2.076538  0  0  -0.539095  0  2.328627  0  0  -0.560934  0  2.320493  0  0  -0.325925  -0.524076  0  2.333764  0
O  O133  1  0.17738977  0.32893182  0.25164878  1  0  -0.591442  0  2.076552  0  0  -0.539123  0  2.328611  0  0  -0.560962  0  2.320477  0  0  -0.325939  -0.524113  0  2.333756  0
O  O134  1  0.17738738  0.74835406  0.07728413  1  0  -0.591435  0  2.076424  0  0  -0.539125  0  2.328507  0  0  -0.560965  0  2.320375  0  0  -0.325922  -0.524112  0  2.333646  0
O  O135  1  0.82261154  0.07728291  0.32893192  1  0  -0.591429  0  2.07649  0  0  -0.539102  0  2.328564  0  0  -0.560943  0  2.32043  0  0  -0.325946  -0.524116  0  2.33372  0
O  O136  1  0.82261238  0.67106848  0.74835155  1  0  -0.59141  0  2.076524  0  0  -0.539082  0  2.328595  0  0  -0.560922  0  2.320465  0  0  -0.32592  -0.524064  0  2.333733  0
O  O137  1  0.82261229  0.25164707  0.92271590  1  0  -0.591415  0  2.076428  0  0  -0.539105  0  2.328493  0  0  -0.560943  0  2.320359  0  0  -0.325929  -0.524091  0  2.333631  0
