# generated using pymatgen
data_MnH16C16(N5O3)2
_symmetry_space_group_name_H-M   'P 1'
_cell_length_a   7.16490618
_cell_length_b   8.71423680
_cell_length_c   8.93208913
_cell_angle_alpha   72.83353868
_cell_angle_beta   67.88576707
_cell_angle_gamma   66.58685673
_symmetry_Int_Tables_number   1
_chemical_formula_structural   MnH16C16(N5O3)2
_chemical_formula_sum   'Mn1 H16 C16 N10 O6'
_cell_volume   467.12214712
_cell_formula_units_Z   1
loop_
 _symmetry_equiv_pos_site_id
 _symmetry_equiv_pos_as_xyz
  1  'x, y, z'
loop_
 _atom_site_type_symbol
 _atom_site_label
 _atom_site_symmetry_multiplicity
 _atom_site_fract_x
 _atom_site_fract_y
 _atom_site_fract_z
 _atom_site_occupancy
 _atom_site_hle17_ddec_charge
 _atom_site_hle17_ddec_spin_density
 _atom_site_hle17_ddec_sum_bond_order
 _atom_site_hle17_magmom
 _atom_site_hse06_10hf_ddec_charge
 _atom_site_hse06_10hf_ddec_spin_density
 _atom_site_hse06_10hf_ddec_sum_bond_order
 _atom_site_hse06_10hf_magmom
 _atom_site_hse06_ddec_charge
 _atom_site_hse06_ddec_spin_density
 _atom_site_hse06_ddec_sum_bond_order
 _atom_site_hse06_magmom
 _atom_site_pbe_cm5_charge
 _atom_site_pbe_ddec_charge
 _atom_site_pbe_ddec_spin_density
 _atom_site_pbe_ddec_sum_bond_order
 _atom_site_pbe_magmom
Mn  Mn0  1  0.00000072  0.99999904  0.99999980  1  0.899605  -1.240327  2.708101  -1.183  0.800981  -1.147593  3.269957  -1.092  0.82669  -1.060021  3.215301  -1.01  0.696735  0.76997  -1.182128  3.310808  -1.126
H  H1  1  0.59635265  0.09025764  0.18838443  1  0.418079  0.000251  0.875919  -0.001  0.387054  9e-06  0.949755  -0.001  0.397183  7.3e-05  0.935673  -0.001  0.297657  0.379587  -0.000186  0.960064  -0.001
H  H2  1  0.40364670  0.90974294  0.81161527  1  0.418095  0.000252  0.875917  -0.001  0.387077  9e-06  0.94973  -0.001  0.397206  7.3e-05  0.935648  -0.001  0.297662  0.379609  -0.000186  0.960041  -0.001
H  H3  1  0.76945246  0.00688809  0.28932854  1  0.412414  -6.5e-05  0.828178  -0.001  0.389339  -6.3e-05  0.894212  -0.001  0.395977  -0.000159  0.887922  0.0  0.32265  0.383606  0.00027  0.900129  0.0
H  H4  1  0.23054777  0.99310996  0.71067051  1  0.412419  -6.9e-05  0.82817  -0.001  0.389338  -6.3e-05  0.894221  -0.001  0.395978  -0.00016  0.887927  0.0  0.322638  0.383606  0.00027  0.900136  0.0
H  H5  1  0.06001529  0.76443972  0.63880692  1  0.138338  -3.5e-05  0.918796  0.0  0.147601  7e-06  0.974243  0.0  0.153316  2.3e-05  0.970502  0.0  0.120503  0.143166  9.1e-05  0.978346  0.0
H  H6  1  0.93998879  0.23556072  0.36119580  1  0.138283  -3.5e-05  0.918802  0.0  0.147608  7e-06  0.974195  0.0  0.153326  2.4e-05  0.97045  0.0  0.120506  0.143172  9.1e-05  0.9783  0.0
H  H7  1  0.17006781  0.60492259  0.89307210  1  0.104055  4e-06  1.001854  0.0  0.097755  0.000335  1.087226  0.0  0.10375  0.000187  1.080204  0.0  0.12798  0.096997  0.000168  1.086998  0.0
H  H8  1  0.82993441  0.39507414  0.10692670  1  0.104123  3e-06  1.001788  0.0  0.097755  0.000335  1.087244  0.0  0.10375  0.000186  1.080222  0.0  0.127969  0.096997  0.000168  1.087017  0.0
H  H9  1  0.48634878  0.15731967  0.70251360  1  0.115846  -0.0003  0.971911  0.0  0.123888  -1.1e-05  1.032986  0.0  0.129306  -7.8e-05  1.02697  0.0  0.129975  0.119758  0.000116  1.037632  0.0
H  H10  1  0.51364581  0.84267731  0.29748756  1  0.115849  -0.0003  0.971911  0.0  0.123915  -1.1e-05  1.032974  0.0  0.129335  -7.8e-05  1.026955  0.0  0.129981  0.119786  0.000116  1.037621  0.0
H  H11  1  0.38356043  0.29763496  0.44068420  1  0.127498  0.000186  0.937227  0.0  0.136032  0.000184  0.996581  0.0  0.141837  0.000167  0.992879  0.0  0.116248  0.131503  0.00029  0.999916  0.0
H  H12  1  0.61643282  0.70236583  0.55931738  1  0.127513  0.000192  0.937208  0.0  0.136048  0.000184  0.996564  0.0  0.141852  0.000167  0.992863  0.0  0.116256  0.131519  0.00029  0.999898  0.0
H  H13  1  0.37144361  0.38210130  0.02036574  1  0.130241  -0.000179  0.957957  0.0  0.134879  -0.000178  1.031328  0.0  0.137895  -0.000145  1.028466  0.0  0.127365  0.132428  -0.000262  1.033939  0.0
H  H14  1  0.62855669  0.61789675  0.97963553  1  0.130213  -0.00018  0.957946  0.0  0.13486  -0.000178  1.031307  0.0  0.137874  -0.000146  1.028447  0.0  0.127363  0.132417  -0.000262  1.033911  0.0
H  H15  1  0.56553741  0.22002915  0.90831422  1  0.120398  0.000317  0.968671  0.0  0.128384  0.000486  1.034587  0.0  0.130594  0.000235  1.034336  0.0  0.131421  0.126997  0.000685  1.034581  0.0
H  H16  1  0.43446289  0.77996890  0.09168705  1  0.120399  0.000316  0.968645  0.0  0.128378  0.000486  1.034583  0.0  0.130591  0.000235  1.034322  0.0  0.131415  0.12699  0.000685  1.03458  0.0
C  C17  1  0.17087410  0.62334217  0.36297214  1  0.20569  0.001213  3.84449  -0.002  0.189051  0.002832  4.123644  0.0  0.18962  0.00118  4.142776  0.0  0.192479  0.189282  0.003373  4.10981  0.0
C  C18  1  0.82912941  0.37665953  0.63702702  1  0.205773  0.001212  3.844453  -0.002  0.189078  0.002831  4.12369  0.0  0.189648  0.001181  4.142817  0.0  0.192471  0.189308  0.003373  4.109856  0.0
C  C19  1  0.21287163  0.54271110  0.51853312  1  0.08244  0.024137  3.759856  0.015  0.09024  0.014744  3.998583  0.008  0.102384  0.00394  4.014284  0.002  0.023153  0.082267  0.022393  3.987221  0.013
C  C20  1  0.78713298  0.45729182  0.48146645  1  0.082441  0.024154  3.759817  0.015  0.090276  0.014745  3.998542  0.008  0.102421  0.00394  4.014242  0.002  0.023187  0.082301  0.022396  3.987183  0.013
C  C21  1  0.15112831  0.62979079  0.64830476  1  -0.122713  -0.001063  3.653062  -0.002  -0.145279  0.00237  3.907853  0.001  -0.15186  0.000703  3.919409  0.0  -0.071816  -0.144018  0.005411  3.903245  0.002
C  C22  1  0.84887670  0.37021086  0.35169282  1  -0.122676  -0.001067  3.653096  -0.002  -0.145299  0.002371  3.907886  0.001  -0.151882  0.000701  3.919443  0.0  -0.071837  -0.14404  0.005414  3.903283  0.002
C  C23  1  0.20769055  0.54419156  0.78978754  1  0.10458  0.009624  3.559526  0.005  0.063266  0.005431  3.817736  0.002  0.076115  0.001256  3.82449  0.0  0.061759  0.053545  0.008071  3.811964  0.003
C  C24  1  0.79231310  0.45581014  0.21021606  1  0.10453  0.009624  3.559678  0.005  0.063238  0.005428  3.817957  0.002  0.076084  0.001257  3.824715  0.0  0.061774  0.053526  0.008069  3.812171  0.003
C  C25  1  0.38520888  0.28878637  0.68178502  1  0.082772  0.0142  3.600258  0.008  0.037941  0.008144  3.859363  0.004  0.052319  0.002249  3.864451  0.001  0.052044  0.02775  0.012795  3.855829  0.006
C  C26  1  0.61478895  0.71121426  0.31821515  1  0.082774  0.014216  3.600263  0.008  0.037881  0.008146  3.859431  0.004  0.052266  0.002251  3.864507  0.001  0.052022  0.027689  0.0128  3.8559  0.006
C  C27  1  0.33069789  0.36802453  0.53969958  1  -0.1409  -0.00277  3.708022  -0.004  -0.163721  0.002052  3.967282  0.0  -0.172122  0.000888  3.980706  0.0  -0.076622  -0.156611  0.001934  3.957371  -0.001
C  C28  1  0.66930345  0.63197473  0.46029988  1  -0.140918  -0.002788  3.708083  -0.004  -0.163726  0.00205  3.967355  0.0  -0.17213  0.000888  3.980783  0.0  -0.076632  -0.156615  0.001932  3.957445  -0.001
C  C29  1  0.39500589  0.28828592  0.95061212  1  -0.20649  -0.000576  3.594431  -0.001  -0.26449  -0.000278  3.837063  -0.001  -0.266415  -0.000526  3.843323  -0.001  -0.062637  -0.262904  1e-05  3.833527  -0.001
C  C30  1  0.60499399  0.71171340  0.04939002  1  -0.206453  -0.000575  3.594432  -0.001  -0.264435  -0.000279  3.836995  -0.001  -0.266358  -0.000526  3.84326  -0.001  -0.062617  -0.262858  9e-06  3.833456  -0.001
C  C31  1  0.29478007  0.15410855  0.06724978  1  0.699203  -0.001453  3.846545  0.001  0.646859  -0.001401  4.159721  0.001  0.67887  -0.000537  4.156588  0.001  0.225635  0.623279  -0.00206  4.160488  0.0
C  C32  1  0.70522023  0.84588950  0.93275149  1  0.699076  -0.001455  3.846533  0.001  0.646778  -0.001401  4.159673  0.001  0.678788  -0.000539  4.156541  0.001  0.225609  0.623199  -0.00206  4.160441  0.0
N  N33  1  0.08100292  0.79090772  0.31170912  1  -0.300151  0.03796  2.887364  0.029  -0.28757  0.022233  3.168354  0.016  -0.285495  0.009837  3.171619  0.007  -0.22577  -0.288816  0.023119  3.166143  0.016
N  N34  1  0.91899907  0.20909403  0.68829052  1  -0.300186  0.037962  2.887373  0.029  -0.28758  0.02223  3.168381  0.016  -0.285505  0.009836  3.171645  0.007  -0.225787  -0.288831  0.023117  3.166176  0.016
N  N35  1  0.09320193  0.79855176  0.15587570  1  -0.109841  0.027496  3.341874  0.017  -0.079832  0.019559  3.678114  0.014  -0.080736  0.012224  3.677671  0.009  -0.171705  -0.076913  0.021649  3.675495  0.017
N  N36  1  0.90679736  0.20144882  0.84412178  1  -0.109842  0.027491  3.341945  0.017  -0.079834  0.019557  3.678191  0.014  -0.080738  0.012223  3.677748  0.009  -0.171681  -0.076913  0.021648  3.675568  0.017
N  N37  1  0.18043663  0.64176735  0.11640688  1  -0.070269  0.002351  2.982934  0.002  -0.053043  0.000152  3.280621  0.0  -0.053977  0.002952  3.290613  0.002  -0.089274  -0.054082  -0.00222  3.272728  -0.002
N  N38  1  0.81956169  0.35823201  0.88359462  1  -0.070246  0.002343  2.982929  0.002  -0.053005  0.000152  3.280604  0.0  -0.053939  0.002949  3.290595  0.002  -0.089276  -0.054045  -0.002221  3.272713  -0.002
N  N39  1  0.23212951  0.53175947  0.24314346  1  -0.282379  -0.00559  2.986715  -0.006  -0.267343  -0.004503  3.277847  -0.004  -0.277802  -0.002254  3.295065  -0.002  -0.210697  -0.260933  -0.004216  3.267589  -0.004
N  N40  1  0.76787095  0.46824234  0.75685664  1  -0.282431  -0.005587  2.986698  -0.006  -0.267389  -0.004503  3.277862  -0.004  -0.277846  -0.002253  3.295075  -0.002  -0.210688  -0.26098  -0.004215  3.267608  -0.004
N  N41  1  0.32324721  0.37644094  0.80507727  1  0.022097  0.013653  3.541373  0.011  0.113934  0.011958  3.750132  0.009  0.103774  0.003707  3.772848  0.003  -0.21508  0.121732  0.015955  3.734984  0.013
N  N42  1  0.67675649  0.62355574  0.19491996  1  0.022052  0.013645  3.5415  0.011  0.113912  0.011958  3.750251  0.009  0.103753  0.003708  3.772967  0.003  -0.21511  0.121707  0.015956  3.735108  0.013
O  O43  1  0.15257204  0.13036901  0.03348079  1  -0.60995  -0.005362  2.19355  -0.002  -0.556621  -0.009479  2.489012  -0.005  -0.590277  -0.005389  2.484797  -0.002  -0.305845  -0.527738  -0.01487  2.487923  -0.01
O  O44  1  0.84742565  0.86963163  0.96651494  1  -0.609847  -0.005359  2.193646  -0.002  -0.556581  -0.009476  2.489122  -0.005  -0.590232  -0.005386  2.484907  -0.002  -0.305814  -0.5277  -0.014868  2.488033  -0.01
O  O45  1  0.36783547  0.08012808  0.18786813  1  -0.624914  -0.004576  1.958393  -0.005  -0.571741  -0.005508  2.181618  -0.006  -0.599096  -0.004846  2.173063  -0.006  -0.312601  -0.551738  -0.006484  2.18742  -0.007
O  O46  1  0.63216161  0.91987007  0.81212853  1  -0.6249  -0.004576  1.958257  -0.005  -0.571743  -0.005508  2.18146  -0.006  -0.599096  -0.004846  2.172902  -0.006  -0.312618  -0.551738  -0.006484  2.187262  -0.007
O  O47  1  0.73777414  0.08739379  0.19203023  1  -0.745837  0.010743  1.988171  0.014  -0.697042  0.004723  2.213232  0.008  -0.728482  0.004323  2.194168  0.007  -0.535176  -0.673097  0.00503  2.227817  0.008
O  O48  1  0.26222525  0.91260680  0.80797058  1  -0.745853  0.010747  1.98814  0.014  -0.697071  0.004724  2.213194  0.008  -0.728513  0.004325  2.194132  0.007  -0.535175  -0.673125  0.00503  2.227778  0.008
