# generated using pymatgen
data_Cd2H9C12N3O7
_symmetry_space_group_name_H-M   'P 1'
_cell_length_a   6.98207832
_cell_length_b   13.00943829
_cell_length_c   16.19000000
_cell_angle_alpha   102.77160466
_cell_angle_beta   90.00000000
_cell_angle_gamma   90.00000000
_symmetry_Int_Tables_number   1
_chemical_formula_structural   Cd2H9C12N3O7
_chemical_formula_sum   'Cd8 H36 C48 N12 O28'
_cell_volume   1434.20123183
_cell_formula_units_Z   4
loop_
 _symmetry_equiv_pos_site_id
 _symmetry_equiv_pos_as_xyz
  1  'x, y, z'
loop_
 _atom_site_type_symbol
 _atom_site_label
 _atom_site_symmetry_multiplicity
 _atom_site_fract_x
 _atom_site_fract_y
 _atom_site_fract_z
 _atom_site_occupancy
 _atom_site_hle17_bader_spin_density
 _atom_site_hle17_ddec_charge
 _atom_site_hle17_ddec_spin_density
 _atom_site_hle17_ddec_sum_bond_order
 _atom_site_hle17_magmom
 _atom_site_hse06_10hf_bader_spin_density
 _atom_site_hse06_10hf_ddec_charge
 _atom_site_hse06_10hf_ddec_spin_density
 _atom_site_hse06_10hf_ddec_sum_bond_order
 _atom_site_hse06_10hf_magmom
 _atom_site_hse06_bader_spin_density
 _atom_site_hse06_ddec_charge
 _atom_site_hse06_ddec_spin_density
 _atom_site_hse06_ddec_sum_bond_order
 _atom_site_hse06_magmom
 _atom_site_pbe_bader_charge
 _atom_site_pbe_bader_spin_density
 _atom_site_pbe_cm5_charge
 _atom_site_pbe_ddec_charge
 _atom_site_pbe_ddec_spin_density
 _atom_site_pbe_ddec_sum_bond_order
 _atom_site_pbe_magmom
Cd  Cd0  1  0.63627760  0.21080471  0.13836198  1  0  1.146374  0  1.653299  0  0  0.952719  0  2.096679  0  0  1.010503  0  2.046115  0  1.26503  0  0.789603  0.911597  0  2.131266  0
Cd  Cd1  1  0.13626888  0.28920032  0.36163935  1  0  1.146333  0  1.65337  0  0  0.952681  0  2.096773  0  0  1.010468  0  2.046205  0  1.26492  0  0.789527  0.911557  0  2.131361  0
Cd  Cd2  1  0.36372694  0.78919433  0.86164674  1  0  1.1463  0  1.653349  0  0  0.952665  0  2.096718  0  0  1.010451  0  2.046157  0  1.26506  0  0.78955  0.91154  0  2.131311  0
Cd  Cd3  1  0.86372133  0.71079635  0.63836463  1  0  1.146344  0  1.653329  0  0  0.952714  0  2.096711  0  0  1.0105  0  2.046148  0  1.26489  0  0.789582  0.911591  0  2.131301  0
Cd  Cd4  1  0.56451386  0.68953775  0.11638882  1  0  1.196449  0  1.549081  0  0  1.003754  0  1.987147  0  0  1.062251  0  1.933071  0  1.265235  0  0.785383  0.962104  0  2.024151  0
Cd  Cd5  1  0.06450801  0.81046396  0.38361339  1  0  1.196469  0  1.548971  0  0  1.003782  0  1.987014  0  0  1.062276  0  1.932936  0  1.265306  0  0.78541  0.962129  0  2.024016  0
Cd  Cd6  1  0.43549927  0.31047153  0.88361740  1  0  1.196444  0  1.54895  0  0  1.003732  0  1.987035  0  0  1.062248  0  1.932924  0  1.265356  0  0.785327  0.962081  0  2.024033  0
Cd  Cd7  1  0.93547504  0.18953035  0.61638275  1  0  1.196386  0  1.548953  0  0  1.003686  0  1.987016  0  0  1.062196  0  1.932918  0  1.265337  0  0.785367  0.962035  0  2.024016  0
H  H8  1  0.95032449  0.82068656  0.13784684  1  0  0.131012  0  0.969087  0  0  0.136521  0  1.033762  0  0  0.140836  0  1.031452  0  0.179716  0  0.110125  0.133347  0  1.035711  0
H  H9  1  0.45033583  0.67934274  0.36216089  1  0  0.131028  0  0.96861  0  0  0.136383  0  1.033485  0  0  0.140732  0  1.03114  0  0.179658  0  0.110073  0.133212  0  1.035427  0
H  H10  1  0.04968435  0.17934243  0.86216041  1  0  0.131008  0  0.96921  0  0  0.136585  0  1.033777  0  0  0.140886  0  1.031481  0  0.179467  0  0.110121  0.133412  0  1.03573  0
H  H11  1  0.54967014  0.32067601  0.63784948  1  0  0.131063  0  0.968901  0  0  0.136525  0  1.033644  0  0  0.140876  0  1.031289  0  0.179699  0  0.110111  0.133353  0  1.035592  0
H  H12  1  0.20461529  0.75727806  0.03156403  1  0  0.083049  0  0.983398  0  0  0.089005  0  1.051567  0  0  0.091823  0  1.048568  0  0.143824  0  0.111371  0.086914  0  1.053795  0
H  H13  1  0.70461971  0.74273942  0.46845457  1  0  0.082916  0  0.983407  0  0  0.088873  0  1.051583  0  0  0.091687  0  1.048579  0  0.14376  0  0.111325  0.086782  0  1.05381  0
H  H14  1  0.79539927  0.24273911  0.96844853  1  0  0.082972  0  0.983336  0  0  0.088847  0  1.051614  0  0  0.091661  0  1.048613  0  0.143582  0  0.111322  0.086755  0  1.053846  0
H  H15  1  0.29538483  0.25726356  0.53155732  1  0  0.08309  0  0.983157  0  0  0.088977  0  1.051431  0  0  0.091794  0  1.04843  0  0.14366  0  0.111314  0.086883  0  1.053666  0
H  H16  1  0.68501237  0.97270461  0.95479088  1  0  0.106796  0  0.977537  0  0  0.112916  0  1.044895  0  0  0.11539  0  1.045512  0  0.09584  0  0.105094  0.111139  0  1.044631  0
H  H17  1  0.18503660  0.52728528  0.54519689  1  0  0.106837  0  0.977806  0  0  0.112953  0  1.045163  0  0  0.115426  0  1.045776  0  0.095855  0  0.105154  0.111175  0  1.044902  0
H  H18  1  0.31497069  0.02729443  0.04519870  1  0  0.106841  0  0.977667  0  0  0.112969  0  1.045001  0  0  0.115441  0  1.045618  0  0.096042  0  0.105155  0.111192  0  1.044737  0
H  H19  1  0.81499516  0.47269485  0.45479550  1  0  0.106802  0  0.977508  0  0  0.112929  0  1.044863  0  0  0.115401  0  1.04548  0  0.095948  0  0.105134  0.111153  0  1.044597  0
H  H20  1  0.95630981  0.90654538  0.85687614  1  0  0.086416  0  0.929396  0  0  0.095848  0  0.991344  0  0  0.097895  0  0.990037  0  0.112074  0  0.119375  0.094303  0  0.992395  0
H  H21  1  0.45631685  0.59342953  0.64311700  1  0  0.086299  0  0.929496  0  0  0.09577  0  0.9914  0  0  0.09781  0  0.990104  0  0.112132  0  0.119335  0.094238  0  0.992427  0
H  H22  1  0.04368470  0.09343553  0.14311516  1  0  0.086319  0  0.929484  0  0  0.095805  0  0.991356  0  0  0.097848  0  0.990055  0  0.112289  0  0.119393  0.094253  0  0.992435  0
H  H23  1  0.54370917  0.40653404  0.35687678  1  0  0.086425  0  0.929436  0  0  0.095878  0  0.991307  0  0  0.097927  0  0.989995  0  0.112131  0  0.11939  0.094312  0  0.992393  0
H  H24  1  0.26754641  0.33825542  0.18155962  1  0  0.143141  0  0.980471  0  0  0.157954  0  1.047092  0  0  0.160597  0  1.0462  0  0.096289  0  0.092078  0.156048  0  1.047775  0
H  H25  1  0.76756229  0.16175829  0.31844695  1  0  0.143166  0  0.980484  0  0  0.157948  0  1.047147  0  0  0.160589  0  1.046256  0  0.09609  0  0.092087  0.156044  0  1.047829  0
H  H26  1  0.73242805  0.66174914  0.81844885  1  0  0.143069  0  0.980518  0  0  0.157877  0  1.047162  0  0  0.160523  0  1.046265  0  0.09642  0  0.09206  0.15597  0  1.047847  0
H  H27  1  0.23244225  0.83823523  0.68154535  1  0  0.14307  0  0.980351  0  0  0.157885  0  1.046994  0  0  0.160529  0  1.0461  0  0.096258  0  0.092042  0.155978  0  1.047679  0
H  H28  1  0.15391262  0.44680967  0.14933324  1  0  0.136799  0  0.956007  0  0  0.153796  0  1.015551  0  0  0.155981  0  1.015554  0  0.05414  0  0.095928  0.152184  0  1.015651  0
H  H29  1  0.65389842  0.05320246  0.35066194  1  0  0.13678  0  0.955944  0  0  0.153791  0  1.015491  0  0  0.155975  0  1.015493  0  0.054393  0  0.09592  0.15218  0  1.015589  0
H  H30  1  0.84609048  0.55319488  0.85066535  1  0  0.136756  0  0.955983  0  0  0.153749  0  1.015541  0  0  0.155934  0  1.015539  0  0.05415  0  0.095917  0.152137  0  1.015641  0
H  H31  1  0.34609036  0.94679737  0.64932840  1  0  0.136835  0  0.955967  0  0  0.153799  0  1.015538  0  0  0.155983  0  1.01554  0  0.054443  0  0.095926  0.152187  0  1.015638  0
H  H32  1  0.39560427  0.45725139  0.18616521  1  0  0.168009  0  0.9295  0  0  0.185714  0  0.98889  0  0  0.189121  0  0.986976  0  0.110168  0  0.106412  0.183258  0  0.990325  0
H  H33  1  0.89558864  0.04275128  0.31383260  1  0  0.168025  0  0.929503  0  0  0.185808  0  0.988788  0  0  0.189215  0  0.986873  0  0.110321  0  0.106486  0.183354  0  0.990222  0
H  H34  1  0.60439454  0.54274765  0.81384104  1  0  0.167983  0  0.929518  0  0  0.185702  0  0.988905  0  0  0.18911  0  0.986989  0  0.109765  0  0.106411  0.18325  0  0.990335  0
H  H35  1  0.10440444  0.95724145  0.68616079  1  0  0.168003  0  0.929437  0  0  0.185699  0  0.988849  0  0  0.189105  0  0.986935  0  0.10993  0  0.106416  0.183243  0  0.990287  0
H  H36  1  0.26206810  0.54926348  0.05657600  1  0  0.435015  0  0.858345  0  0  0.403891  0  0.92064  0  0  0.415484  0  0.903853  0  0.65387  0  0.294775  0.395629  0  0.932584  0
H  H37  1  0.76205103  0.95073429  0.44341254  1  0  0.435003  0  0.858375  0  0  0.40387  0  0.92069  0  0  0.41546  0  0.903905  0  0.653907  0  0.294708  0.395617  0  0.932628  0
H  H38  1  0.73793644  0.45074423  0.94342685  1  0  0.435274  0  0.858059  0  0  0.404048  0  0.920493  0  0  0.415671  0  0.903674  0  0.653764  0  0.294851  0.395786  0  0.932438  0
H  H39  1  0.23790767  0.04925135  0.55657898  1  0  0.435213  0  0.858097  0  0  0.404032  0  0.920484  0  0  0.415629  0  0.903691  0  0.653713  0  0.294846  0.39577  0  0.932428  0
H  H40  1  0.14213390  0.63163542  0.12733612  1  0  0.443645  0  0.84562  0  0  0.411888  0  0.908897  0  0  0.423589  0  0.891966  0  0.668747  0  0.294675  0.403549  0  0.920942  0
H  H41  1  0.64213259  0.86836471  0.37264729  1  0  0.443613  0  0.845696  0  0  0.411858  0  0.908962  0  0  0.42356  0  0.89203  0  0.668435  0  0.294616  0.403517  0  0.921008  0
H  H42  1  0.85787637  0.36838175  0.87266347  1  0  0.443592  0  0.845699  0  0  0.411806  0  0.909024  0  0  0.423516  0  0.89208  0  0.668746  0  0.294602  0.403466  0  0.921071  0
H  H43  1  0.35785763  0.13161620  0.62733474  1  0  0.443716  0  0.845532  0  0  0.411923  0  0.908872  0  0  0.42363  0  0.891931  0  0.668845  0  0.294664  0.403582  0  0.920919  0
C  C44  1  0.31592742  0.88065706  0.27412301  1  0  0.64215  0  3.935268  0  0  0.589476  0  4.234983  0  0  0.624357  0  4.226034  0  1.593715  0  0.20468  0.565762  0  4.240227  0
C  C45  1  0.81598913  0.61934938  0.22586646  1  0  0.642093  0  3.934644  0  0  0.589334  0  4.234599  0  0  0.624219  0  4.225644  0  1.593531  0  0.204655  0.565618  0  4.239847  0
C  C46  1  0.68406423  0.11933962  0.72587232  1  0  0.64211  0  3.934629  0  0  0.589428  0  4.234359  0  0  0.624308  0  4.225408  0  1.593709  0  0.204624  0.565716  0  4.239608  0
C  C47  1  0.18404119  0.38064966  0.77413424  1  0  0.64208  0  3.93493  0  0  0.589359  0  4.234814  0  0  0.62424  0  4.225864  0  1.593465  0  0.204573  0.565645  0  4.240061  0
C  C48  1  0.42680988  0.92573188  0.21185817  1  0  0.061044  0  3.721723  0  0  0.052016  0  3.979249  0  0  0.055569  0  3.996328  0  0.457971  0  0.089204  0.049519  0  3.967879  0
C  C49  1  0.92682432  0.57427062  0.28813739  1  0  0.060964  0  3.721711  0  0  0.051877  0  3.979444  0  0  0.055418  0  3.996528  0  0.458034  0  0.089055  0.049386  0  3.96807  0
C  C50  1  0.57317747  0.07426559  0.78813174  1  0  0.060869  0  3.721956  0  0  0.051879  0  3.979505  0  0  0.055433  0  3.99657  0  0.458269  0  0.089155  0.049374  0  3.968142  0
C  C51  1  0.07318738  0.42572290  0.71185861  1  0  0.061056  0  3.721704  0  0  0.051907  0  3.979501  0  0  0.055456  0  3.996582  0  0.458236  0  0.089139  0.049409  0  3.968123  0
C  C52  1  0.43941358  0.02968417  0.20307904  1  0  -0.029301  0  3.806779  0  0  -0.032665  0  4.060784  0  0  -0.038519  0  4.082909  0  0.371938  0  0.058735  -0.028936  0  4.045922  0
C  C53  1  0.93943948  0.47032954  0.29692506  1  0  -0.029142  0  3.806651  0  0  -0.032532  0  4.060763  0  0  -0.038377  0  4.082893  0  0.372302  0  0.058942  -0.028809  0  4.0459  0
C  C54  1  0.56056948  0.97032197  0.79691365  1  0  -0.029163  0  3.807012  0  0  -0.032639  0  4.06118  0  0  -0.038489  0  4.083304  0  0.371895  0  0.058794  -0.028899  0  4.046304  0
C  C55  1  0.06057509  0.52967186  0.70308161  1  0  -0.029243  0  3.806592  0  0  -0.032685  0  4.060774  0  0  -0.038529  0  4.082892  0  0.372093  0  0.058862  -0.028945  0  4.045897  0
C  C56  1  0.34771165  0.12525958  0.25213578  1  0  0.614734  0  3.986617  0  0  0.564224  0  4.278653  0  0  0.59947  0  4.2731  0  1.553854  0  0.193028  0.540316  0  4.281519  0
C  C57  1  0.84770748  0.37475097  0.24785850  1  0  0.615068  0  3.986481  0  0  0.564582  0  4.27849  0  0  0.59982  0  4.272932  0  1.554456  0  0.193247  0.54068  0  4.28136  0
C  C58  1  0.65229432  0.87474576  0.74786171  1  0  0.614806  0  3.986818  0  0  0.564294  0  4.278891  0  0  0.599538  0  4.273339  0  1.554551  0  0.193064  0.540383  0  4.28176  0
C  C59  1  0.15229849  0.62524807  0.75214529  1  0  0.615145  0  3.98634  0  0  0.564744  0  4.278277  0  0  0.599982  0  4.272708  0  1.554472  0  0.193276  0.540835  0  4.281154  0
C  C60  1  0.64127611  0.93550443  0.11595485  1  0  0.334077  0  3.769592  0  0  0.308053  0  4.031203  0  0  0.322396  0  4.046521  0  0.963422  0  0.206237  0.298571  0  4.020329  0
C  C61  1  0.14129747  0.56450122  0.38404622  1  0  0.334029  0  3.76973  0  0  0.308283  0  4.030971  0  0  0.322731  0  4.046134  0  0.963372  0  0.206306  0.298743  0  4.02018  0
C  C62  1  0.35870122  0.06450407  0.88404629  1  0  0.334036  0  3.769782  0  0  0.30835  0  4.030968  0  0  0.322779  0  4.04616  0  0.963131  0  0.206302  0.298798  0  4.020198  0
C  C63  1  0.85870993  0.43550491  0.61596315  1  0  0.33432  0  3.769611  0  0  0.308225  0  4.031308  0  0  0.322602  0  4.046572  0  0.96348  0  0.206313  0.298683  0  4.020522  0
C  C64  1  0.79486934  0.90149241  0.05447083  1  0  0.053734  0  3.786197  0  0  0.066212  0  4.022678  0  0  0.069275  0  4.041772  0  -0.070069  0  0.013625  0.064234  0  4.009722  0
C  C65  1  0.29487925  0.59851955  0.44552086  1  0  0.053698  0  3.786166  0  0  0.066147  0  4.022602  0  0  0.069173  0  4.041678  0  -0.07078  0  0.013643  0.064189  0  4.009658  0
C  C66  1  0.20512803  0.09850821  0.94552212  1  0  0.053895  0  3.786458  0  0  0.066294  0  4.022899  0  0  0.069328  0  4.041972  0  -0.070179  0  0.013735  0.064338  0  4.00996  0
C  C67  1  0.70512672  0.40149446  0.55447879  1  0  0.053736  0  3.786095  0  0  0.066256  0  4.022568  0  0  0.069308  0  4.041656  0  -0.070427  0  0.013746  0.064295  0  4.009628  0
C  C68  1  0.94371041  0.84013946  0.07591573  1  0  -0.144812  0  3.677358  0  0  -0.164914  0  3.926548  0  0  -0.171531  0  3.944628  0  -0.013272  0  -0.080219  -0.160719  0  3.914699  0
C  C69  1  0.44371172  0.65987802  0.42410288  1  0  -0.144933  0  3.677872  0  0  -0.165004  0  3.927299  0  0  -0.171649  0  3.94536  0  -0.012225  0  -0.0803  -0.160813  0  3.91545  0
C  C70  1  0.05629699  0.15987929  0.92408414  1  0  -0.145018  0  3.677269  0  0  -0.165236  0  3.926555  0  0  -0.171841  0  3.944647  0  -0.012762  0  -0.080324  -0.161049  0  3.914713  0
C  C71  1  0.55627992  0.34013600  0.57591468  1  0  -0.14494  0  3.677438  0  0  -0.165021  0  3.926661  0  0  -0.171666  0  3.944715  0  -0.012897  0  -0.080241  -0.16083  0  3.914816  0
C  C72  1  0.08841350  0.80645847  0.01746765  1  0  0.139589  0  3.688166  0  0  0.111404  0  3.933356  0  0  0.119175  0  3.950726  0  0.42008  0  0.045605  0.106314  0  3.921554  0
C  C73  1  0.58839500  0.69355586  0.48254051  1  0  0.139838  0  3.688108  0  0  0.111698  0  3.933296  0  0  0.119482  0  3.950658  0  0.418604  0  0.045669  0.106604  0  3.921503  0
C  C74  1  0.91159104  0.19355240  0.98253761  1  0  0.139843  0  3.68795  0  0  0.111755  0  3.933155  0  0  0.119533  0  3.950516  0  0.420177  0  0.045653  0.106663  0  3.921359  0
C  C75  1  0.41158948  0.30645500  0.51746908  1  0  0.139728  0  3.687974  0  0  0.11159  0  3.933173  0  0  0.119366  0  3.950543  0  0.420686  0  0.04568  0.106498  0  3.921375  0
C  C76  1  0.79870058  0.92646882  0.97463763  1  0  -0.143136  0  3.713187  0  0  -0.16558  0  3.970267  0  0  -0.17213  0  3.990865  0  0.039911  0  -0.084921  -0.161405  0  3.956594  0
C  C77  1  0.29869473  0.57352501  0.52536752  1  0  -0.142949  0  3.712763  0  0  -0.165404  0  3.96983  0  0  -0.171962  0  3.990468  0  0.039927  0  -0.084975  -0.161232  0  3.95616  0
C  C78  1  0.20129536  0.07353180  0.02535779  1  0  -0.14309  0  3.713228  0  0  -0.165539  0  3.970334  0  0  -0.172097  0  3.990964  0  0.039964  0  -0.084932  -0.161362  0  3.956655  0
C  C79  1  0.70129978  0.42646220  0.47463911  1  0  -0.142988  0  3.713426  0  0  -0.165471  0  3.970508  0  0  -0.172033  0  3.991139  0  0.039764  0  -0.084915  -0.161292  0  3.956825  0
C  C80  1  0.94832365  0.88933405  0.91972366  1  0  0.132191  0  3.710176  0  0  0.099916  0  3.967637  0  0  0.107067  0  3.9866  0  0.473692  0  0.043909  0.095218  0  3.954801  0
C  C81  1  0.44832067  0.61065426  0.58027680  1  0  0.132162  0  3.710479  0  0  0.099881  0  3.967935  0  0  0.107024  0  3.986901  0  0.473317  0  0.043973  0.095185  0  3.9551  0
C  C82  1  0.05167086  0.11065632  0.08027364  1  0  0.132272  0  3.709949  0  0  0.099975  0  3.967409  0  0  0.107122  0  3.986369  0  0.473347  0  0.043847  0.095272  0  3.954573  0
C  C83  1  0.55169963  0.38933690  0.41972682  1  0  0.132039  0  3.710389  0  0  0.099835  0  3.967763  0  0  0.106982  0  3.986725  0  0.473691  0  0.043797  0.095149  0  3.954902  0
C  C84  1  0.36104722  0.36417290  0.06155943  1  0  0.767716  0  3.787902  0  0  0.725199  0  4.071432  0  0  0.760616  0  4.064775  0  1.516334  0  0.21229  0.701079  0  4.075014  0
C  C85  1  0.86104018  0.13581637  0.43844218  1  0  0.76742  0  3.788548  0  0  0.724937  0  4.072056  0  0  0.760347  0  4.065408  0  1.516281  0  0.212182  0.700812  0  4.075631  0
C  C86  1  0.63895302  0.63582614  0.93844620  1  0  0.767522  0  3.787913  0  0  0.725005  0  4.07147  0  0  0.760381  0  4.064879  0  1.516148  0  0.212285  0.700881  0  4.075048  0
C  C87  1  0.13895146  0.86417558  0.56155725  1  0  0.767395  0  3.787869  0  0  0.724863  0  4.071436  0  0  0.760243  0  4.064839  0  1.516059  0  0.212243  0.700743  0  4.075013  0
C  C88  1  0.28809617  0.40364145  0.15007388  1  0  -0.483499  0  3.642508  0  0  -0.556739  0  3.871998  0  0  -0.565404  0  3.874575  0  -0.09083  0  -0.257763  -0.550609  0  3.870166  0
C  C89  1  0.78809486  0.09636832  0.34992334  1  0  -0.483425  0  3.642524  0  0  -0.556692  0  3.871933  0  0  -0.565357  0  3.874512  0  -0.091183  0  -0.257792  -0.550559  0  3.870096  0
C  C90  1  0.71189978  0.59635759  0.84993237  1  0  -0.483201  0  3.642481  0  0  -0.556495  0  3.872019  0  0  -0.565146  0  3.874603  0  -0.090398  0  -0.257691  -0.550365  0  3.870185  0
C  C91  1  0.21190539  0.90363151  0.65006637  1  0  -0.483291  0  3.642291  0  0  -0.556514  0  3.871835  0  0  -0.565168  0  3.874422  0  -0.090834  0  -0.257704  -0.550383  0  3.870005  0
N  N92  1  0.55544063  0.86693891  0.15728160  1  0  -0.481447  0  3.178218  0  0  -0.407699  0  3.453634  0  0  -0.432073  0  3.468559  0  -1.179523  0  -0.353966  -0.390892  0  3.442978  0
N  N93  1  0.05545770  0.63306911  0.34271742  1  0  -0.481518  0  3.177828  0  0  -0.407818  0  3.453194  0  0  -0.432228  0  3.468089  0  -1.179699  0  -0.353905  -0.390991  0  3.442556  0
N  N94  1  0.44454815  0.13306249  0.84271087  1  0  -0.481461  0  3.178207  0  0  -0.407834  0  3.453551  0  0  -0.432239  0  3.468446  0  -1.17998  0  -0.353895  -0.391004  0  3.44292  0
N  N95  1  0.94455400  0.36692914  0.65728314  1  0  -0.481658  0  3.17809  0  0  -0.407825  0  3.453577  0  0  -0.432215  0  3.468493  0  -1.179894  0  -0.354007  -0.390997  0  3.442939  0
N  N96  1  0.57569535  0.03457163  0.14227089  1  0  -0.475272  0  3.186813  0  0  -0.406974  0  3.455858  0  0  -0.428066  0  3.472962  0  -1.209081  0  -0.35547  -0.392247  0  3.443763  0
N  N97  1  0.07571241  0.46544287  0.35773150  1  0  -0.475241  0  3.186954  0  0  -0.407027  0  3.455949  0  0  -0.42815  0  3.47301  0  -1.20898  0  -0.355588  -0.392283  0  3.443876  0
N  N98  1  0.42428627  0.96543451  0.85771995  1  0  -0.475298  0  3.18665  0  0  -0.407064  0  3.455615  0  0  -0.428186  0  3.472689  0  -1.208666  0  -0.355591  -0.392319  0  3.443541  0
N  N99  1  0.92428496  0.53455696  0.64227675  1  0  -0.47535  0  3.187047  0  0  -0.406992  0  3.45612  0  0  -0.428089  0  3.4732  0  -1.208885  0  -0.355608  -0.392254  0  3.444047  0
N  N100  1  0.09143266  0.83064276  0.94092858  1  0  -0.349339  0  3.282663  0  0  -0.268391  0  3.547867  0  0  -0.28901  0  3.566311  0  -1.236689  0  -0.338716  -0.254251  0  3.534939  0
N  N101  1  0.59142705  0.66935737  0.55908015  1  0  -0.349334  0  3.282213  0  0  -0.268382  0  3.547404  0  0  -0.288998  0  3.565846  0  -1.235306  0  -0.338686  -0.254243  0  3.53448  0
N  N102  1  0.90856472  0.16935628  0.05907026  1  0  -0.349464  0  3.282463  0  0  -0.268515  0  3.547643  0  0  -0.289134  0  3.566086  0  -1.236892  0  -0.338696  -0.254374  0  3.534717  0
N  N103  1  0.40856603  0.33064403  0.44093023  1  0  -0.349483  0  3.282335  0  0  -0.268567  0  3.547522  0  0  -0.289188  0  3.565964  0  -1.237051  0  -0.338711  -0.25442  0  3.534586  0
O  O104  1  0.41029044  0.84515460  0.32890975  1  0  -0.640065  0  1.973889  0  0  -0.578792  0  2.2015  0  0  -0.607335  0  2.19134  0  -1.171868  0  -0.307064  -0.558528  0  2.207718  0
O  O105  1  0.91028913  0.65485342  0.17108432  1  0  -0.639823  0  1.97435  0  0  -0.578554  0  2.20209  0  0  -0.607081  0  2.191922  0  -1.172487  0  -0.30699  -0.558295  0  2.208303  0
O  O106  1  0.58971410  0.15483813  0.67107438  1  0  -0.640081  0  1.973455  0  0  -0.578802  0  2.201101  0  0  -0.60735  0  2.190939  0  -1.171966  0  -0.307101  -0.558535  0  2.207316  0
O  O107  1  0.08972830  0.34515587  0.82891943  1  0  -0.639865  0  1.974257  0  0  -0.578582  0  2.201975  0  0  -0.607113  0  2.191799  0  -1.172245  0  -0.306983  -0.558323  0  2.208191  0
O  O108  1  0.13347888  0.87913510  0.26958768  1  0  -0.616444  0  1.970572  0  0  -0.551874  0  2.214543  0  0  -0.582277  0  2.204101  0  -1.117749  0  -0.317199  -0.530541  0  2.220925  0
O  O109  1  0.63347757  0.62088395  0.23041330  1  0  -0.61666  0  1.969406  0  0  -0.552008  0  2.213361  0  0  -0.582433  0  2.202938  0  -1.117091  0  -0.317273  -0.53066  0  2.219733  0
O  O110  1  0.86652566  0.12086946  0.73041523  1  0  -0.616384  0  1.970211  0  0  -0.551779  0  2.214117  0  0  -0.58219  0  2.203684  0  -1.117585  0  -0.317137  -0.530443  0  2.220489  0
O  O111  1  0.36653270  0.37910641  0.76958153  1  0  -0.61665  0  1.970076  0  0  -0.551956  0  2.213969  0  0  -0.582384  0  2.203549  0  -1.117448  0  -0.317166  -0.530612  0  2.220342  0
O  O112  1  0.22229341  0.11673549  0.30699404  1  0  -0.598788  0  1.983002  0  0  -0.532573  0  2.219206  0  0  -0.561899  0  2.210918  0  -1.149572  0  -0.316934  -0.512125  0  2.224188  0
O  O113  1  0.72233220  0.38327112  0.19301312  1  0  -0.598723  0  1.983688  0  0  -0.532452  0  2.219781  0  0  -0.561763  0  2.211486  0  -1.149688  0  -0.316877  -0.512016  0  2.224769  0
O  O114  1  0.77769824  0.88326355  0.69300665  1  0  -0.598715  0  1.983288  0  0  -0.532481  0  2.21949  0  0  -0.561797  0  2.211192  0  -1.149779  0  -0.316863  -0.512038  0  2.224464  0
O  O115  1  0.27768236  0.61673422  0.80698560  1  0  -0.598787  0  1.98377  0  0  -0.532566  0  2.219861  0  0  -0.561875  0  2.211563  0  -1.149893  0  -0.316928  -0.512134  0  2.224858  0
O  O116  1  0.39827540  0.21525237  0.23834723  1  0  -0.666086  0  2.034323  0  0  -0.591164  0  2.292424  0  0  -0.621816  0  2.280243  0  -1.159151  0  -0.330951  -0.569536  0  2.299941  0
O  O117  1  0.89827552  0.28475582  0.26165342  1  0  -0.666503  0  2.034246  0  0  -0.591618  0  2.292418  0  0  -0.622268  0  2.28021  0  -1.159409  0  -0.331233  -0.569986  0  2.29994  0
O  O118  1  0.60173201  0.78475376  0.76166029  1  0  -0.666251  0  2.034356  0  0  -0.591323  0  2.29249  0  0  -0.62197  0  2.280285  0  -1.1595  0  -0.331051  -0.569694  0  2.30001  0
O  O119  1  0.10172329  0.71524637  0.73834536  1  0  -0.666556  0  2.034044  0  0  -0.591642  0  2.292079  0  0  -0.622323  0  2.279945  0  -1.159417  0  -0.331221  -0.570014  0  2.299607  0
O  O120  1  0.31873318  0.41660137  0.00550451  1  0  -0.652481  0  1.956462  0  0  -0.574274  0  2.182076  0  0  -0.605273  0  2.17  0  -1.162367  0  -0.317012  -0.552713  0  2.189761  0
O  O121  1  0.81871754  0.08338790  0.49449031  1  0  -0.652256  0  1.956764  0  0  -0.574095  0  2.182376  0  0  -0.605083  0  2.170298  0  -1.162433  0  -0.31692  -0.552533  0  2.190066  0
O  O122  1  0.68129285  0.58340082  0.99450477  1  0  -0.652645  0  1.956383  0  0  -0.574305  0  2.181874  0  0  -0.605304  0  2.169842  0  -1.162314  0  -0.317068  -0.552742  0  2.189557  0
O  O123  1  0.18126408  0.91660168  0.50550006  1  0  -0.652477  0  1.956624  0  0  -0.574147  0  2.182141  0  0  -0.605126  0  2.170082  0  -1.162189  0  -0.317003  -0.552585  0  2.189822  0
O  O124  1  0.46142421  0.28008353  0.04118170  1  0  -0.68856  0  2.009402  0  0  -0.609168  0  2.262343  0  0  -0.642487  0  2.252323  0  -1.18756  0  -0.330204  -0.585756  0  2.268355  0
O  O125  1  0.96142290  0.21990732  0.45882637  1  0  -0.68855  0  2.009558  0  0  -0.609113  0  2.262353  0  0  -0.642433  0  2.252338  0  -1.187347  0  -0.330218  -0.585724  0  2.268434  0
O  O126  1  0.53857603  0.71991236  0.95882708  1  0  -0.688362  0  2.009496  0  0  -0.608998  0  2.262411  0  0  -0.642299  0  2.252415  0  -1.187573  0  -0.330166  -0.585597  0  2.268456  0
O  O127  1  0.03857018  0.78007832  0.54117503  1  0  -0.688473  0  2.009118  0  0  -0.609106  0  2.262017  0  0  -0.642413  0  2.252021  0  -1.187435  0  -0.330216  -0.585692  0  2.268025  0
O  O128  1  0.25931391  0.62269045  0.09125736  1  0  -0.852634  0  1.86626  0  0  -0.779697  0  2.059073  0  0  -0.803568  0  2.022024  0  -1.288224  0  -0.58167  -0.762809  0  2.08498  0
O  O129  1  0.75930114  0.87731048  0.40873546  1  0  -0.852542  0  1.866304  0  0  -0.779627  0  2.059162  0  0  -0.803499  0  2.022118  0  -1.287917  0  -0.58154  -0.762749  0  2.08504  0
O  O130  1  0.74070066  0.37731963  0.90874900  1  0  -0.852806  0  1.866043  0  0  -0.779758  0  2.058997  0  0  -0.80367  0  2.021859  0  -1.288178  0  -0.581679  -0.762869  0  2.084907  0
O  O131  1  0.24068765  0.12268226  0.59125177  1  0  -0.85288  0  1.865922  0  0  -0.779877  0  2.058761  0  0  -0.803761  0  2.021699  0  -1.288199  0  -0.581752  -0.762983  0  2.084669  0
