# generated using pymatgen
data_Zn4H55C72N21O2
_symmetry_space_group_name_H-M   'P 1'
_cell_length_a   19.83400137
_cell_length_b   20.29127044
_cell_length_c   21.60332049
_cell_angle_alpha   109.19983983
_cell_angle_beta   106.05003145
_cell_angle_gamma   112.03123742
_symmetry_Int_Tables_number   1
_chemical_formula_structural   Zn4H55C72N21O2
_chemical_formula_sum   'Zn4 H55 C72 N21 O2'
_cell_volume   6770.97088153
_cell_formula_units_Z   1
loop_
 _symmetry_equiv_pos_site_id
 _symmetry_equiv_pos_as_xyz
  1  'x, y, z'
loop_
 _atom_site_type_symbol
 _atom_site_label
 _atom_site_symmetry_multiplicity
 _atom_site_fract_x
 _atom_site_fract_y
 _atom_site_fract_z
 _atom_site_occupancy
 _atom_site_pbe_bader_charge
 _atom_site_pbe_bader_spin_density
 _atom_site_pbe_cm5_charge
 _atom_site_pbe_ddec_charge
 _atom_site_pbe_ddec_spin_density
 _atom_site_pbe_ddec_sum_bond_order
 _atom_site_pbe_magmom
Zn  Zn0  1  0.59109758  0.59254241  0.48980291  1  1.182832  0  0.732334  0.616034  0  2.378552  0
Zn  Zn1  1  0.39629411  0.37088861  0.49273798  1  1.169774  0  0.785933  0.693691  0  2.261634  0
Zn  Zn2  1  0.52156032  0.59032468  0.61451022  1  1.189787  0  0.752003  0.668067  0  2.305231  0
Zn  Zn3  1  0.49007941  0.38598716  0.38441614  1  1.192894  0  0.759972  0.670997  0  2.297208  0
H  H4  1  0.74936792  0.79735317  0.61031241  1  0.084812  0  0.120117  0.107847  0  0.990872  0
H  H5  1  0.51502366  0.33370550  0.58955042  1  0.13314  0  0.128714  0.127444  0  0.992825  0
H  H6  1  0.47810974  0.61382107  0.74922245  1  0.058926  0  0.11157  0.095363  0  1.00982  0
H  H7  1  0.64359530  0.36076593  0.44639673  1  0.093357  0  0.119703  0.108043  0  1.008634  0
H  H8  1  0.44815076  0.37431426  0.67733637  1  0.059377  0  0.105897  0.089788  0  1.009347  0
H  H9  1  0.75360734  0.61545314  0.60008655  1  0.108429  0  0.123236  0.120657  0  0.99888  0
H  H10  1  0.50855828  0.21466883  0.37864528  1  0.107175  0  0.124562  0.113941  0  0.974814  0
H  H11  1  0.68173538  0.71139197  0.75529047  1  0.090876  0  0.119588  0.11107  0  0.996887  0
H  H12  1  0.55377062  0.63586845  0.35678196  1  0.081084  0  0.117707  0.102624  0  1.017375  0
H  H13  1  0.24253145  0.35311626  0.53821030  1  0.130632  0  0.124332  0.115884  0  0.981311  0
H  H14  1  0.53046196  0.76947419  0.64597471  1  0.104479  0  0.124964  0.115306  0  0.978289  0
H  H15  1  0.34391528  0.35174409  0.24390034  1  0.097994  0  0.113456  0.09371  0  1.052747  0
H  H16  1  0.21683419  0.32158791  0.37552550  1  0.088979  0  0.120362  0.10618  0  1.004019  0
H  H17  1  0.51688448  0.68161558  0.42878933  1  0.092516  0  0.114529  0.103829  0  1.028577  0
H  H18  1  0.45745978  0.38009282  0.22147081  1  0.077943  0  0.119513  0.105851  0  0.990488  0
H  H19  1  0.35832379  0.59578200  0.56440607  1  0.09106  0  0.120073  0.113799  0  0.998422  0
H  H20  1  0.05742253  0.41391314  0.62247807  1  0.035716  0  0.092906  0.091695  0  0.97806  0
H  H21  1  0.94855549  0.42645537  0.63485701  1  0.037632  0  0.093668  0.095124  0  0.973999  0
H  H22  1  0.02249430  0.62195150  0.62892903  1  0.027821  0  0.089435  0.0865  0  0.982311  0
H  H23  1  0.02053551  0.57977707  0.68853926  1  0.02212  0  0.092262  0.09034  0  0.980363  0
H  H24  1  0.13327616  0.56803349  0.68715859  1  0.022792  0  0.091536  0.090016  0  0.979175  0
H  H25  1  0.14160012  0.62012803  0.63580498  1  0.005394  0  0.089022  0.085073  0  0.985415  0
H  H26  1  0.88997982  0.42341132  0.45359750  1  0.011967  0  0.090372  0.087576  0  0.979622  0
H  H27  1  0.93783018  0.52980773  0.48980576  1  0.03969  0  0.090699  0.08796  0  0.982953  0
H  H28  1  0.00996448  0.43225854  0.45025790  1  0.013356  0  0.090115  0.087258  0  0.983172  0
H  H29  1  0.88825963  0.36205158  0.53915500  1  0.0439  0  0.091834  0.095802  0  0.979577  0
H  H30  1  0.00023889  0.35864823  0.52553589  1  0.01245  0  0.088694  0.084438  0  0.983514  0
H  H31  1  0.06123071  0.53949771  0.49591239  1  0.023996  0  0.08977  0.087072  0  0.981973  0
H  H32  1  0.65235229  0.05386095  0.66799636  1  0.060082  0  0.098308  0.102179  0  0.970111  0
H  H33  1  0.65998344  0.17055436  0.66627045  1  0.04838  0  0.097833  0.105078  0  0.985419  0
H  H34  1  0.65569214  0.09117182  0.47811518  1  0.088117  0  0.122193  0.09257  0  0.954678  0
H  H35  1  0.71423173  0.03906548  0.58303861  1  0.093692  0  0.105521  0.115545  0  0.989964  0
H  H36  1  0.65251204  0.97787077  0.48603983  1  0.037173  0  0.097893  0.104898  0  0.971889  0
H  H37  1  0.46392069  0.04238640  0.49191241  1  0.037045  0  0.098618  0.101583  0  0.969716  0
H  H38  1  0.50721120  0.02944761  0.43093365  1  0.04098  0  0.09398  0.092069  0  0.977502  0
H  H39  1  0.45275770  0.92445033  0.49439334  1  0.028194  0  0.095881  0.097507  0  0.97319  0
H  H40  1  0.55269035  0.12406143  0.62861829  1  0.028487  0  0.095874  0.099508  0  0.973134  0
H  H41  1  0.54519332  0.00833759  0.63396636  1  0.009087  0  0.093528  0.092909  0  0.97733  0
H  H42  1  0.49686805  0.91163256  0.43398629  1  0.038056  0  0.092727  0.092384  0  0.976937  0
H  H43  1  0.41389314  0.59348138  0.81784184  1  0.016182  0  0.099157  0.099297  0  1.002974  0
H  H44  1  0.36697758  0.58198947  0.91072695  1  0.092916  0  0.103621  0.106039  0  1.009436  0
H  H45  1  0.47006166  0.64396661  0.12314250  1  0.103951  0  0.105047  0.107907  0  0.996323  0
H  H46  1  0.52998608  0.64342553  0.24056880  1  0.049071  0  0.098318  0.099412  0  1.00073  0
H  H47  1  0.36203858  0.34624299  0.73500830  1  0.055808  0  0.097451  0.098892  0  1.0034  0
H  H48  1  0.30103182  0.38704753  0.01491468  1  0.104387  0  0.105274  0.108218  0  1.010077  0
H  H49  1  0.31216448  0.33482962  0.82700898  1  0.076617  0  0.104229  0.106503  0  0.998522  0
H  H50  1  0.35698874  0.38579171  0.13224621  1  0.027758  0  0.094626  0.089777  0  1.01796  0
H  H51  1  0.22954313  0.31983518  0.15095275  1  0.036264  0  0.096602  0.095135  0  1.018499  0
H  H52  1  0.10317154  0.22884191  0.03211045  1  0.090029  0  0.105519  0.106994  0  1.013202  0
H  H53  1  0.95360478  0.06015362  0.82806251  1  0.074002  0  0.10596  0.108856  0  0.994029  0
H  H54  1  0.85919771  0.92253157  0.71848672  1  0.050254  0  0.099759  0.100468  0  1.001859  0
H  H55  1  0.09075849  0.25202369  0.26485683  1  0.040874  0  0.100704  0.1029  0  0.998572  0
H  H56  1  0.83663085  0.98379302  0.95217997  1  0.087589  0  0.103562  0.104023  0  1.018679  0
H  H57  1  0.96421197  0.16335134  0.14521384  1  0.077704  0  0.10587  0.108342  0  0.996939  0
H  H58  1  0.74170290  0.84619700  0.84348758  1  0.051617  0  0.098747  0.098731  0  1.002396  0
C  C59  1  0.72413074  0.76365576  0.63617631  1  0.391178  0  0.015779  -0.038042  0  3.968471  0
C  C60  1  0.50552265  0.30893649  0.53298487  1  0.420313  0  0.027815  -0.024683  0  3.909161  0
C  C61  1  0.47772950  0.55737149  0.72529135  1  0.373239  0  -0.002536  -0.055387  0  3.997811  0
C  C62  1  0.65723249  0.42206240  0.47820765  1  0.393819  0  0.01626  -0.04011  0  3.93643  0
C  C63  1  0.46248668  0.43535590  0.68759525  1  0.424945  0  -0.005808  -0.056932  0  4.048781  0
C  C64  1  0.71399793  0.55258237  0.55696179  1  0.426676  0  0.015816  -0.037934  0  3.908955  0
C  C65  1  0.50174350  0.24893328  0.42470140  1  0.42919  0  0.022649  -0.030649  0  3.965987  0
C  C66  1  0.68931739  0.72026886  0.71016582  1  0.411328  0  0.005667  -0.054567  0  3.975763  0
C  C67  1  0.74020666  0.79116307  0.71061756  1  0.028262  0  -0.037644  -0.048543  0  4.085476  0
C  C68  1  0.53013025  0.25830949  0.49661195  1  0.106106  0  -0.023208  0.047372  0  4.170565  0
C  C69  1  0.44128928  0.48645547  0.73026637  1  0.010183  0  -0.042058  -0.048285  0  4.080996  0
C  C70  1  0.73201951  0.49030509  0.53639113  1  0.156709  0  -0.024881  0.059499  0  4.179069  0
C  C71  1  0.53378468  0.57174760  0.33449267  1  0.379017  0  0.007886  -0.049357  0  3.98048  0
C  C72  1  0.28188003  0.41095440  0.54334426  1  0.368387  0  0.017596  -0.048152  0  3.945153  0
C  C73  1  0.52482482  0.73498960  0.59236666  1  0.430972  0  0.022237  -0.037593  0  3.934414  0
C  C74  1  0.32434305  0.34759542  0.28525560  1  0.416222  0  0.013418  -0.032999  0  3.960415  0
C  C75  1  0.25901726  0.33106044  0.35183182  1  0.433795  0  0.017337  -0.028072  0  3.93624  0
C  C76  1  0.51851334  0.69005350  0.48149933  1  0.395182  0  0.003557  -0.059399  0  3.96565  0
C  C77  1  0.48445963  0.44142027  0.26561285  1  0.395993  0  0.006926  -0.051447  0  4.007209  0
C  C78  1  0.34114084  0.53503932  0.55644505  1  0.440855  0  0.013731  -0.041618  0  3.9358  0
C  C79  1  0.48815558  0.51000090  0.26064146  1  0.037431  0  -0.033504  -0.036425  0  4.084308  0
C  C80  1  0.27086075  0.47763509  0.55371011  1  0.145083  0  -0.028484  0.053671  0  4.194534  0
C  C81  1  0.53245461  0.75930191  0.53932210  1  0.091532  0  -0.031595  0.047382  0  4.204718  0
C  C82  1  0.24672305  0.32459931  0.28210891  1  0.020602  0  -0.030613  -0.035313  0  4.056684  0
C  C83  1  0.94584206  0.41875521  0.58126585  1  -0.028881  0  -0.154373  -0.186913  0  3.837134  0
C  C84  1  0.02245878  0.57078042  0.63617352  1  -0.015259  0  -0.155431  -0.184362  0  3.854385  0
C  C85  1  0.09931026  0.56722725  0.63689207  1  0.004953  0  -0.155552  -0.183873  0  3.852889  0
C  C86  1  0.20466570  0.48409644  0.56066886  1  -0.422316  0  -0.075408  -0.143856  0  4.218363  0
C  C87  1  0.94398327  0.49093635  0.57259826  1  0.138014  0  -0.001299  0.181169  0  3.894204  0
C  C88  1  0.02015486  0.41457230  0.57466138  1  -0.016978  0  -0.154119  -0.180529  0  3.843373  0
C  C89  1  0.07459262  0.48864234  0.56928419  1  0.10924  0  -0.002162  0.176203  0  3.904174  0
C  C90  1  0.02356857  0.48548059  0.49841077  1  -0.002493  0  -0.156421  -0.18375  0  3.859803  0
C  C91  1  0.94431845  0.48160653  0.49835463  1  -0.03211  0  -0.155666  -0.182038  0  3.850055  0
C  C92  1  0.14624328  0.48688322  0.56627421  1  0.046969  0  -0.04999  -0.12  0  4.096577  0
C  C93  1  0.87069363  0.49244168  0.57077738  1  0.17292  0  -0.049793  -0.123699  0  4.078949  0
C  C94  1  0.80776816  0.49389557  0.55981131  1  -0.547912  0  -0.0704  -0.133777  0  4.199965  0
C  C95  1  0.60229854  0.11602907  0.62147666  1  -0.01868  0  -0.156748  -0.195262  0  3.84756  0
C  C96  1  0.66262183  0.09587068  0.53175015  1  0.202178  0  0.015735  -0.023861  0  3.679739  0
C  C97  1  0.65784345  0.02038568  0.53690390  1  -0.045818  0  -0.152922  -0.238437  0  3.839519  0
C  C98  1  0.55300216  0.83589536  0.54431108  1  -0.629229  0  -0.065481  -0.121813  0  4.209429  0
C  C99  1  0.59528632  0.11013335  0.54648669  1  0.10871  0  0.008377  0.156585  0  3.87675  0
C  C100  1  0.59637176  0.03854169  0.62354920  1  -0.018185  0  -0.153808  -0.186523  0  3.838123  0
C  C101  1  0.58396669  0.97765550  0.54951974  1  0.127403  0  5.8e-05  0.192984  0  3.898766  0
C  C102  1  0.50541993  0.95548635  0.48602378  1  -0.03539  0  -0.156243  -0.190838  0  3.862003  0
C  C103  1  0.51244445  0.03271280  0.48398705  1  -0.019957  0  -0.150642  -0.178679  0  3.84615  0
C  C104  1  0.57380935  0.90287348  0.54949583  1  0.276915  0  -0.057154  -0.13725  0  4.081533  0
C  C105  1  0.59221628  0.17787601  0.53901189  1  0.228878  0  -0.058393  -0.144888  0  4.070066  0
C  C106  1  0.56689107  0.21875148  0.52206584  1  -0.540725  0  -0.053936  -0.094637  0  4.164355  0
C  C107  1  0.45034445  0.51381819  0.19449955  1  -0.020838  0  -0.008789  0.086675  0  4.038268  0
C  C108  1  0.38317245  0.44260171  0.13042071  1  0.030309  0  -0.094377  -0.127184  0  3.994543  0
C  C109  1  0.35060912  0.44275907  0.06490455  1  -0.071257  0  -0.086637  -0.136723  0  3.972393  0
C  C110  1  0.38425308  0.51547865  0.06164668  1  0.353513  0  0.08182  0.170787  0  4.052523  0
C  C111  1  0.44562412  0.58812463  0.12666162  1  -0.064103  0  -0.084929  -0.139253  0  3.980092  0
C  C112  1  0.47882655  0.58715901  0.19187267  1  -0.051185  0  -0.097258  -0.135335  0  4.00123  0
C  C113  1  0.36558197  0.53064544  0.87158860  1  -0.022645  0  -0.086825  -0.137363  0  3.981086  0
C  C114  1  0.39250825  0.53672653  0.82005425  1  -0.010063  0  -0.091913  -0.12424  0  3.97943  0
C  C115  1  0.34092563  0.45874457  0.87700780  1  0.355476  0  0.078175  0.160657  0  4.065576  0
C  C116  1  0.39768542  0.47287027  0.77311565  1  -0.022  0  -0.000914  0.103108  0  4.024421  0
C  C117  1  0.36293612  0.39809636  0.77295168  1  -0.046176  0  -0.099031  -0.138465  0  3.993422  0
C  C118  1  0.33427441  0.39089535  0.82363349  1  -0.021387  0  -0.08488  -0.138462  0  3.98908  0
C  C119  1  0.79386212  0.87336200  0.77284471  1  -0.002509  0  -0.004802  0.093669  0  4.035663  0
C  C120  1  0.78791576  0.89292356  0.83953942  1  -0.005527  0  -0.094077  -0.126755  0  3.988682  0
C  C121  1  0.84000791  0.96966597  0.90030613  1  -0.041794  0  -0.087796  -0.135457  0  3.9708  0
C  C122  1  0.90101992  0.03058603  0.89676368  1  0.381917  0  0.080173  0.161555  0  4.064019  0
C  C123  1  0.90592922  0.01268779  0.83004508  1  -0.064639  0  -0.084099  -0.136691  0  3.982113  0
C  C124  1  0.85306866  0.93559952  0.76914990  1  0.00353  0  -0.095492  -0.133028  0  3.994821  0
C  C125  1  0.10129692  0.23526690  0.08360617  1  -0.032454  0  -0.084894  -0.131789  0  3.96242  0
C  C126  1  0.17164688  0.28515056  0.15024643  1  -0.038723  0  -0.091309  -0.123148  0  3.978531  0
C  C127  1  0.02638071  0.18775231  0.08117407  1  0.413436  0  0.080878  0.164573  0  4.055657  0
C  C128  1  0.17060868  0.28888932  0.21654736  1  -0.061856  0  -0.005121  0.090538  0  4.029326  0
C  C129  1  0.09407972  0.24833602  0.21436176  1  0.001525  0  -0.095497  -0.134797  0  3.99773  0
C  C130  1  0.02302726  0.19874732  0.14776367  1  -0.038939  0  -0.083724  -0.137574  0  3.982905  0
N  N131  1  0.66802614  0.68387587  0.59572415  1  -0.814548  0  -0.276487  -0.180375  0  3.59436  0
N  N132  1  0.46495097  0.32635932  0.48544249  1  -0.829499  0  -0.295808  -0.200953  0  3.700967  0
N  N133  1  0.51641083  0.54783430  0.68342993  1  -0.811615  0  -0.297643  -0.192309  0  3.649169  0
N  N134  1  0.60042474  0.44330081  0.46519559  1  -0.802696  0  -0.290609  -0.185784  0  3.687244  0
N  N135  1  0.50642095  0.47133615  0.65878163  1  -0.721909  0  -0.277345  -0.266679  0  3.292354  0
N  N136  1  0.63474525  0.52342737  0.51313456  1  -0.794423  0  -0.280424  -0.198894  0  3.608051  0
N  N137  1  0.46280277  0.28964765  0.41792887  1  -0.767857  0  -0.271613  -0.229478  0  3.438301  0
N  N138  1  0.64607256  0.65634758  0.64124730  1  -0.790203  0  -0.27861  -0.21645  0  3.508727  0
N  N139  1  0.55317121  0.54177139  0.37959232  1  -0.808698  0  -0.272577  -0.174051  0  3.546507  0
N  N140  1  0.35371258  0.42913716  0.54172125  1  -0.809031  0  -0.294315  -0.178632  0  3.703728  0
N  N141  1  0.50856224  0.65822520  0.56742716  1  -0.79497  0  -0.276038  -0.173023  0  3.619938  0
N  N142  1  0.37731609  0.36429905  0.35060839  1  -0.81331  0  -0.284323  -0.18578  0  3.654543  0
N  N143  1  0.33696572  0.35366030  0.39152552  1  -0.782962  0  -0.279583  -0.191143  0  3.602558  0
N  N144  1  0.50557020  0.62961814  0.49905573  1  -0.760507  0  -0.28057  -0.221488  0  3.467541  0
N  N145  1  0.52259152  0.46009741  0.33628330  1  -0.766606  0  -0.272443  -0.199695  0  3.49553  0
N  N146  1  0.39040402  0.50517155  0.54897925  1  -0.782605  0  -0.273168  -0.22579  0  3.51517  0
N  N147  1  0.37025245  0.52078437  0.99629431  1  -0.491353  0  -0.167903  -0.16438  0  3.284244  0
N  N148  1  0.33585734  0.45244171  0.93855578  1  -0.503746  0  -0.162924  -0.151994  0  3.303364  0
N  N149  1  0.96402137  0.10596005  0.95808730  1  -0.556084  0  -0.161923  -0.151708  0  3.302733  0
N  N150  1  0.95574736  0.12193755  0.01672590  1  -0.498854  0  -0.163767  -0.156454  0  3.29893  0
N  N151  1  0.74655308  0.17195019  0.58552536  1  0.438195  0  0.047727  0.52414  0  4.143409  0
O  O152  1  0.78202398  0.18108850  0.64740911  1  -0.462012  0  -0.1385  -0.338884  0  1.891667  0
O  O153  1  0.77256142  0.22110030  0.56396013  1  -0.444805  0  -0.140085  -0.346571  0  1.885902  0
