# generated using pymatgen
data_SnH15C11ClO2
_symmetry_space_group_name_H-M   'P 1'
_cell_length_a   9.68951348
_cell_length_b   11.22226803
_cell_length_c   13.20730000
_cell_angle_alpha   113.69862454
_cell_angle_beta   90.00000000
_cell_angle_gamma   90.00000000
_symmetry_Int_Tables_number   1
_chemical_formula_structural   SnH15C11ClO2
_chemical_formula_sum   'Sn4 H60 C44 Cl4 O8'
_cell_volume   1315.03314848
_cell_formula_units_Z   4
loop_
 _symmetry_equiv_pos_site_id
 _symmetry_equiv_pos_as_xyz
  1  'x, y, z'
loop_
 _atom_site_type_symbol
 _atom_site_label
 _atom_site_symmetry_multiplicity
 _atom_site_fract_x
 _atom_site_fract_y
 _atom_site_fract_z
 _atom_site_occupancy
 _atom_site_hle17_bader_spin_density
 _atom_site_hle17_ddec_charge
 _atom_site_hle17_ddec_spin_density
 _atom_site_hle17_ddec_sum_bond_order
 _atom_site_hle17_magmom
 _atom_site_hse06_10hf_bader_spin_density
 _atom_site_hse06_10hf_ddec_charge
 _atom_site_hse06_10hf_ddec_spin_density
 _atom_site_hse06_10hf_ddec_sum_bond_order
 _atom_site_hse06_10hf_magmom
 _atom_site_hse06_bader_spin_density
 _atom_site_hse06_ddec_charge
 _atom_site_hse06_ddec_spin_density
 _atom_site_hse06_ddec_sum_bond_order
 _atom_site_hse06_magmom
 _atom_site_pbe_bader_charge
 _atom_site_pbe_bader_spin_density
 _atom_site_pbe_cm5_charge
 _atom_site_pbe_ddec_charge
 _atom_site_pbe_ddec_spin_density
 _atom_site_pbe_ddec_sum_bond_order
 _atom_site_pbe_magmom
Sn  Sn0  1  0.38423601  0.05154478  0.72128472  1  0  1.366843  0  2.90881  0  0  1.237219  0  3.396101  0  0  1.27581  0  3.380357  0  1.699377  0  0.514338  1.210339  0  3.406616  0
Sn  Sn1  1  0.88423531  0.94845528  0.77871598  1  0  1.366894  0  2.908767  0  0  1.237259  0  3.396057  0  0  1.275856  0  3.380315  0  1.69938  0  0.514359  1.210391  0  3.406546  0
Sn  Sn2  1  0.61576466  0.94845528  0.27871522  1  0  1.366905  0  2.908765  0  0  1.237278  0  3.396049  0  0  1.275886  0  3.380301  0  1.699442  0  0.514354  1.210398  0  3.406561  0
Sn  Sn3  1  0.11576433  0.05154575  0.22128505  1  0  1.366864  0  2.908841  0  0  1.237224  0  3.396133  0  0  1.275822  0  3.380387  0  1.699372  0  0.514342  1.21034  0  3.406655  0
H  H4  1  0.79551259  0.33010769  0.85002211  1  0  0.115234  0  0.947559  0  0  0.126034  0  1.016093  0  0  0.127865  0  1.015934  0  0.093631  0  0.10197  0.124778  0  1.016093  0
H  H5  1  0.29551329  0.66989237  0.64997557  1  0  0.115231  0  0.947542  0  0  0.126027  0  1.016062  0  0  0.12786  0  1.015903  0  0.093589  0  0.10198  0.124774  0  1.016061  0
H  H6  1  0.20448808  0.66989140  0.14997826  1  0  0.115213  0  0.947554  0  0  0.126053  0  1.016047  0  0  0.127884  0  1.01589  0  0.093701  0  0.101971  0.124795  0  1.016047  0
H  H7  1  0.70448635  0.33010574  0.35002372  1  0  0.11527  0  0.947539  0  0  0.126025  0  1.016097  0  0  0.127856  0  1.015939  0  0.093601  0  0.101979  0.124776  0  1.016097  0
H  H8  1  0.88350566  0.21031014  0.73972332  1  0  0.102652  0  0.952043  0  0  0.119421  0  1.011644  0  0  0.121199  0  1.011282  0  0.05217  0  0.104386  0.117222  0  1.013891  0
H  H9  1  0.38350636  0.78968993  0.76027511  1  0  0.102634  0  0.952086  0  0  0.11939  0  1.01168  0  0  0.121167  0  1.01132  0  0.052281  0  0.104377  0.117192  0  1.013928  0
H  H10  1  0.11649605  0.78968895  0.26027705  1  0  0.102628  0  0.952103  0  0  0.119407  0  1.011694  0  0  0.121185  0  1.011333  0  0.052198  0  0.10436  0.117208  0  1.013941  0
H  H11  1  0.61649432  0.21030819  0.23972417  1  0  0.102638  0  0.95212  0  0  0.119397  0  1.011698  0  0  0.121175  0  1.011337  0  0.052277  0  0.10438  0.117204  0  1.013946  0
H  H12  1  0.96120203  0.27917794  0.60548313  1  0  0.094049  0  0.957317  0  0  0.105773  0  1.017286  0  0  0.108278  0  1.01675  0  0.075946  0  0.100743  0.10379  0  1.018263  0
H  H13  1  0.46120376  0.72082407  0.89451596  1  0  0.094062  0  0.957311  0  0  0.105789  0  1.017275  0  0  0.108294  0  1.01674  0  0.075897  0  0.10073  0.103806  0  1.018253  0
H  H14  1  0.03879865  0.72082115  0.39451648  1  0  0.094057  0  0.957341  0  0  0.105783  0  1.017305  0  0  0.108285  0  1.016773  0  0.075954  0  0.100725  0.103799  0  1.018282  0
H  H15  1  0.53879692  0.27917599  0.10548247  1  0  0.094071  0  0.957281  0  0  0.105768  0  1.017288  0  0  0.108272  0  1.016755  0  0.075894  0  0.100737  0.103784  0  1.018265  0
H  H16  1  0.93778186  0.40982221  0.49329620  1  0  0.102779  0  0.960097  0  0  0.110322  0  1.028072  0  0  0.113471  0  1.026487  0  0.089939  0  0.100125  0.107942  0  1.02946  0
H  H17  1  0.43778462  0.59018272  0.00670541  1  0  0.102772  0  0.960107  0  0  0.110284  0  1.028122  0  0  0.113432  0  1.026538  0  0.089881  0  0.100119  0.107904  0  1.02951  0
H  H18  1  0.06221571  0.59017883  0.50670408  1  0  0.102784  0  0.960122  0  0  0.110299  0  1.02813  0  0  0.113447  0  1.026547  0  0.089884  0  0.100115  0.10792  0  1.029517  0
H  H19  1  0.56221502  0.40981735  0.99329454  1  0  0.102764  0  0.960135  0  0  0.110275  0  1.02815  0  0  0.113423  0  1.026566  0  0.089869  0  0.100112  0.107895  0  1.029537  0
H  H20  1  0.55034136  0.56161496  0.65427642  1  0  0.101742  0  0.957014  0  0  0.11095  0  1.02125  0  0  0.113905  0  1.020031  0  0.062906  0  0.099661  0.108712  0  1.022636  0
H  H21  1  0.05034618  0.43838511  0.84572429  1  0  0.101746  0  0.957006  0  0  0.110943  0  1.021258  0  0  0.113894  0  1.020045  0  0.06299  0  0.099655  0.108705  0  1.022643  0
H  H22  1  0.44965622  0.43838316  0.34572589  1  0  0.101731  0  0.957054  0  0  0.110945  0  1.021272  0  0  0.113897  0  1.020058  0  0.062913  0  0.099658  0.108707  0  1.022658  0
H  H23  1  0.94965346  0.56161398  0.15427533  1  0  0.101737  0  0.957021  0  0  0.110946  0  1.021251  0  0  0.113897  0  1.020038  0  0.062976  0  0.099663  0.108709  0  1.022635  0
H  H24  1  0.57429096  0.43107287  0.76580318  1  0  0.099997  0  0.955298  0  0  0.107685  0  1.020613  0  0  0.110797  0  1.018907  0  0.104934  0  0.100585  0.105432  0  1.022007  0
H  H25  1  0.07429372  0.56892428  0.73419577  1  0  0.099979  0  0.955338  0  0  0.107718  0  1.020596  0  0  0.110827  0  1.018895  0  0.105293  0  0.100602  0.105464  0  1.021991  0
H  H26  1  0.42570971  0.56892525  0.23419837  1  0  0.100034  0  0.95525  0  0  0.107706  0  1.020579  0  0  0.110815  0  1.018879  0  0.104952  0  0.100593  0.105455  0  1.02197  0
H  H27  1  0.92570489  0.43107579  0.26580418  1  0  0.099936  0  0.955412  0  0  0.107677  0  1.020665  0  0  0.110786  0  1.018964  0  0.105305  0  0.100584  0.105423  0  1.022059  0
H  H28  1  0.17161336  0.21952196  0.75247613  1  0  0.13947  0  1.019411  0  0  0.155252  0  1.085023  0  0  0.157259  0  1.086561  0  0.016456  0  0.076714  0.153161  0  1.085459  0
H  H29  1  0.67161370  0.78047810  0.74752457  1  0  0.139452  0  1.01949  0  0  0.155232  0  1.085099  0  0  0.157241  0  1.086634  0  0.016472  0  0.076697  0.153143  0  1.08553  0
H  H30  1  0.82838628  0.78047810  0.24752382  1  0  0.139465  0  1.019435  0  0  0.155248  0  1.085046  0  0  0.157255  0  1.086583  0  0.016454  0  0.076717  0.153158  0  1.085479  0
H  H31  1  0.32838697  0.21952196  0.25247613  1  0  0.139467  0  1.019406  0  0  0.155246  0  1.085025  0  0  0.157255  0  1.08656  0  0.016457  0  0.076716  0.153157  0  1.085459  0
H  H32  1  0.17530498  0.10728967  0.61075330  1  0  0.15076  0  1.002756  0  0  0.170219  0  1.058996  0  0  0.17256  0  1.060025  0  0.041982  0  0.081989  0.168575  0  1.058439  0
H  H33  1  0.67530532  0.89271039  0.88924664  1  0  0.150745  0  1.002766  0  0  0.170203  0  1.059002  0  0  0.172545  0  1.060031  0  0.041968  0  0.081985  0.168558  0  1.058447  0
H  H34  1  0.82469466  0.89271039  0.38924664  1  0  0.150763  0  1.002759  0  0  0.170221  0  1.058999  0  0  0.172563  0  1.060028  0  0.04198  0  0.081986  0.168577  0  1.058441  0
H  H35  1  0.32469432  0.10728870  0.11075373  1  0  0.15074  0  1.002783  0  0  0.170199  0  1.05902  0  0  0.172539  0  1.060051  0  0.041977  0  0.081977  0.168555  0  1.058461  0
H  H36  1  0.29342650  0.24201728  0.66011551  1  0  0.160343  0  0.981002  0  0  0.178746  0  1.035565  0  0  0.1816  0  1.035883  0  0.062684  0  0.08322  0.176885  0  1.035033  0
H  H37  1  0.79342683  0.75798376  0.83988553  1  0  0.160334  0  0.98094  0  0  0.178731  0  1.035517  0  0  0.181585  0  1.035835  0  0.062698  0  0.083229  0.176869  0  1.034986  0
H  H38  1  0.70657314  0.75798474  0.33988586  1  0  0.160367  0  0.980986  0  0  0.178768  0  1.035552  0  0  0.181621  0  1.035869  0  0.062703  0  0.083237  0.176906  0  1.03502  0
H  H39  1  0.20657281  0.24201533  0.16011408  1  0  0.160331  0  0.980978  0  0  0.178726  0  1.035558  0  0  0.181581  0  1.035875  0  0.062701  0  0.083224  0.176865  0  1.035024  0
H  H40  1  0.48143594  0.15916629  0.93094672  1  0  0.149754  0  1.01449  0  0  0.166115  0  1.076386  0  0  0.168514  0  1.077233  0  0.057349  0  0.081258  0.164314  0  1.076003  0
H  H41  1  0.98143627  0.84083474  0.56905356  1  0  0.149748  0  1.014501  0  0  0.166106  0  1.076406  0  0  0.168504  0  1.077253  0  0.057349  0  0.081253  0.164304  0  1.076025  0
H  H42  1  0.51856577  0.84083572  0.06905162  1  0  0.14974  0  1.014511  0  0  0.166105  0  1.076397  0  0  0.168504  0  1.077239  0  0.05737  0  0.081242  0.164298  0  1.076021  0
H  H43  1  0.01856337  0.15916629  0.43094672  1  0  0.149761  0  1.014467  0  0  0.16612  0  1.076369  0  0  0.168519  0  1.077216  0  0.05734  0  0.08126  0.164318  0  1.075988  0
H  H44  1  0.44299747  0.99255839  0.89784767  1  0  0.147742  0  0.998528  0  0  0.167255  0  1.055302  0  0  0.16948  0  1.056202  0  0.018351  0  0.081945  0.165545  0  1.054976  0
H  H45  1  0.94299884  0.00744264  0.60215261  1  0  0.147716  0  0.998514  0  0  0.167242  0  1.055282  0  0  0.169467  0  1.05618  0  0.018471  0  0.081943  0.16553  0  1.054957  0
H  H46  1  0.55700320  0.00744264  0.10215185  1  0  0.147735  0  0.998506  0  0  0.167233  0  1.055298  0  0  0.169458  0  1.056198  0  0.018319  0  0.081915  0.165524  0  1.054969  0
H  H47  1  0.05700080  0.99255839  0.39784767  1  0  0.14774  0  0.998501  0  0  0.167258  0  1.055272  0  0  0.169482  0  1.056172  0  0.018352  0  0.081951  0.165548  0  1.054944  0
H  H48  1  0.30565518  0.10929436  0.93240362  1  0  0.148555  0  1.009941  0  0  0.165986  0  1.068714  0  0  0.168201  0  1.070161  0  0.016433  0  0.080744  0.16418  0  1.06809  0
H  H49  1  0.80565655  0.89070571  0.56759709  1  0  0.148519  0  1.009975  0  0  0.165968  0  1.068734  0  0  0.168183  0  1.070181  0  0.016446  0  0.080736  0.164162  0  1.06811  0
H  H50  1  0.69434549  0.89070765  0.06759700  1  0  0.148568  0  1.010039  0  0  0.165992  0  1.068819  0  0  0.168206  0  1.070266  0  0.016332  0  0.08075  0.164187  0  1.068191  0
H  H51  1  0.19434412  0.10929436  0.43240286  1  0  0.148566  0  1.010007  0  0  0.165992  0  1.068783  0  0  0.168207  0  1.07023  0  0.016428  0  0.080744  0.164187  0  1.068157  0
H  H52  1  0.39641619  0.83652564  0.52754044  1  0  0.160842  0  0.984986  0  0  0.178768  0  1.041033  0  0  0.181081  0  1.042645  0  0.056811  0  0.084374  0.177148  0  1.039953  0
H  H53  1  0.89641446  0.16347540  0.97245984  1  0  0.16083  0  0.984986  0  0  0.178758  0  1.041033  0  0  0.181072  0  1.042645  0  0.056783  0  0.084366  0.177138  0  1.039953  0
H  H54  1  0.60358345  0.16347540  0.47245909  1  0  0.160838  0  0.985008  0  0  0.178763  0  1.04106  0  0  0.181076  0  1.042673  0  0.056805  0  0.084371  0.177144  0  1.039979  0
H  H55  1  0.10358415  0.83652564  0.02754044  1  0  0.160852  0  0.984968  0  0  0.178778  0  1.041016  0  0  0.18109  0  1.04263  0  0.056707  0  0.084383  0.177159  0  1.039936  0
H  H56  1  0.53180586  0.82819549  0.61656444  1  0  0.141479  0  1.020689  0  0  0.155836  0  1.087846  0  0  0.158358  0  1.088437  0  0.039616  0  0.077518  0.153981  0  1.087681  0
H  H57  1  0.03180655  0.17180458  0.88343551  1  0  0.141477  0  1.020689  0  0  0.155834  0  1.087848  0  0  0.158355  0  1.088442  0  0.039616  0  0.077516  0.153978  0  1.087685  0
H  H58  1  0.46819275  0.17180458  0.38343551  1  0  0.14148  0  1.020684  0  0  0.155838  0  1.087845  0  0  0.15836  0  1.088437  0  0.039628  0  0.077518  0.153983  0  1.08768  0
H  H59  1  0.96819412  0.82819743  0.11656434  1  0  0.141489  0  1.020656  0  0  0.155843  0  1.087813  0  0  0.158364  0  1.088406  0  0.039642  0  0.077528  0.153987  0  1.087648  0
H  H60  1  0.55004103  0.93105246  0.54398400  1  0  0.15543  0  0.991414  0  0  0.176598  0  1.043916  0  0  0.17909  0  1.044812  0  0.036867  0  0.087228  0.17464  0  1.043729  0
H  H61  1  0.05004173  0.06894858  0.95601704  1  0  0.155453  0  0.991384  0  0  0.17661  0  1.043906  0  0  0.179104  0  1.044798  0  0.036881  0  0.087237  0.174652  0  1.043719  0
H  H62  1  0.44995861  0.06894760  0.45601519  1  0  0.155411  0  0.991464  0  0  0.176582  0  1.043965  0  0  0.179075  0  1.04486  0  0.036893  0  0.087224  0.174625  0  1.043777  0
H  H63  1  0.94995791  0.93105344  0.04398357  1  0  0.155439  0  0.991414  0  0  0.176601  0  1.043916  0  0  0.179093  0  1.044812  0  0.036839  0  0.087231  0.174642  0  1.043729  0
C  C64  1  0.66999339  0.17201673  0.75499949  1  0  0.71283  0  3.80231  0  0  0.662601  0  4.09845  0  0  0.696289  0  4.090557  0  1.563091  0  0.236123  0.6396  0  4.102802  0
C  C65  1  0.16999512  0.82798431  0.74499928  1  0  0.712681  0  3.802296  0  0  0.662469  0  4.098362  0  0  0.696155  0  4.090473  0  1.563106  0  0.236069  0.639469  0  4.102715  0
C  C66  1  0.33000728  0.82798431  0.24500004  1  0  0.712776  0  3.802217  0  0  0.66253  0  4.098379  0  0  0.69622  0  4.09049  0  1.563226  0  0.236056  0.639531  0  4.102728  0
C  C67  1  0.83000659  0.17201575  0.25499991  1  0  0.712797  0  3.802211  0  0  0.662521  0  4.098356  0  0  0.69621  0  4.090465  0  1.563119  0  0.236082  0.639528  0  4.102708  0
C  C68  1  0.78685375  0.26583120  0.76138701  1  0  -0.316977  0  3.705725  0  0  -0.360064  0  3.947961  0  0  -0.365364  0  3.954955  0  -0.050623  0  -0.156429  -0.355851  0  3.943293  0
C  C69  1  0.28685548  0.73416789  0.73861109  1  0  -0.316959  0  3.705796  0  0  -0.360001  0  3.947945  0  0  -0.365299  0  3.954932  0  -0.050742  0  -0.156423  -0.355793  0  3.943281  0
C  C70  1  0.21314796  0.73416789  0.23861260  1  0  -0.316944  0  3.705592  0  0  -0.360107  0  3.947879  0  0  -0.365404  0  3.954862  0  -0.050684  0  -0.156409  -0.355901  0  3.943236  0
C  C71  1  0.71314520  0.26583120  0.26138853  1  0  -0.317058  0  3.705772  0  0  -0.360042  0  3.947916  0  0  -0.365343  0  3.954909  0  -0.050737  0  -0.156459  -0.355858  0  3.943277  0
C  C72  1  0.76965371  0.34550972  0.69388430  1  0  0.114723  0  3.748434  0  0  0.131537  0  3.986438  0  0  0.132192  0  4.009989  0  -0.002276  0  -0.013265  0.130983  0  3.970537  0
C  C73  1  0.26965647  0.65448937  0.80611380  1  0  0.114808  0  3.748527  0  0  0.131596  0  3.986533  0  0  0.132252  0  4.01008  0  -0.002252  0  -0.013225  0.131042  0  3.970632  0
C  C74  1  0.23034799  0.65448937  0.30611607  1  0  0.114803  0  3.748393  0  0  0.131668  0  3.986346  0  0  0.132326  0  4.009893  0  -0.002297  0  -0.013235  0.131113  0  3.970442  0
C  C75  1  0.73034214  0.34551167  0.19388572  1  0  0.114724  0  3.748568  0  0  0.131515  0  3.986558  0  0  0.132175  0  4.010096  0  -0.002242  0  -0.013253  0.130967  0  3.970661  0
C  C76  1  0.87053803  0.34092035  0.61653916  1  0  -0.10885  0  3.736066  0  0  -0.124444  0  3.979261  0  0  -0.126829  0  4.000526  0  -0.060869  0  -0.090738  -0.122949  0  3.964894  0
C  C77  1  0.37054182  0.65908069  0.88345884  1  0  -0.108936  0  3.736075  0  0  -0.124537  0  3.979252  0  0  -0.126924  0  4.000519  0  -0.060888  0  -0.090717  -0.123041  0  3.964884  0
C  C78  1  0.12946161  0.65907972  0.38346002  1  0  -0.108952  0  3.736069  0  0  -0.124563  0  3.979243  0  0  -0.126948  0  4.000506  0  -0.060849  0  -0.090729  -0.123066  0  3.964876  0
C  C79  1  0.62945782  0.34091938  0.11654110  1  0  -0.108904  0  3.736035  0  0  -0.124485  0  3.979227  0  0  -0.12687  0  4.000491  0  -0.060903  0  -0.090724  -0.122988  0  3.964859  0
C  C80  1  0.85858078  0.41483977  0.55343504  1  0  -0.144842  0  3.787978  0  0  -0.168535  0  4.043752  0  0  -0.171238  0  4.064117  0  -0.052095  0  -0.104028  -0.166482  0  4.029816  0
C  C81  1  0.35858354  0.58516030  0.94656415  1  0  -0.144781  0  3.788076  0  0  -0.168423  0  4.043848  0  0  -0.171127  0  4.064217  0  -0.051996  0  -0.104051  -0.16637  0  4.02991  0
C  C82  1  0.14141680  0.58515932  0.44656457  1  0  -0.144807  0  3.787977  0  0  -0.168476  0  4.043749  0  0  -0.171178  0  4.064114  0  -0.05206  0  -0.104041  -0.166424  0  4.029812  0
C  C83  1  0.64141611  0.41483977  0.05343504  1  0  -0.144793  0  3.787953  0  0  -0.168431  0  4.04372  0  0  -0.171135  0  4.064087  0  -0.052006  0  -0.10404  -0.166379  0  4.029783  0
C  C84  1  0.74353475  0.49485791  0.56853982  1  0  0.124596  0  3.815964  0  0  0.135532  0  4.079793  0  0  0.138432  0  4.101796  0  -0.009232  0  0.006974  0.133555  0  4.064726  0
C  C85  1  0.24353958  0.50514312  0.93145894  1  0  0.124584  0  3.816146  0  0  0.13546  0  4.080051  0  0  0.13836  0  4.102057  0  -0.009354  0  0.006967  0.133483  0  4.064981  0
C  C86  1  0.25646283  0.50514021  0.43146021  1  0  0.124561  0  3.816011  0  0  0.135504  0  4.079834  0  0  0.138402  0  4.101837  0  -0.009546  0  0.006979  0.133526  0  4.064765  0
C  C87  1  0.75646007  0.49485791  0.06854058  1  0  0.124599  0  3.816052  0  0  0.13547  0  4.07997  0  0  0.138369  0  4.101974  0  -0.009347  0  0.006979  0.133492  0  4.0649  0
C  C88  1  0.64066168  0.50024624  0.64432928  1  0  -0.135706  0  3.787886  0  0  -0.158125  0  4.041959  0  0  -0.161178  0  4.062899  0  0.018821  0  -0.098591  -0.155745  0  4.027585  0
C  C89  1  0.14066754  0.49975188  0.85567000  1  0  -0.135749  0  3.787775  0  0  -0.158162  0  4.041902  0  0  -0.161206  0  4.062825  0  0.019008  0  -0.098607  -0.155783  0  4.027531  0
C  C90  1  0.35933693  0.49975285  0.35567184  1  0  -0.135679  0  3.787868  0  0  -0.158099  0  4.041937  0  0  -0.16115  0  4.062875  0  0.018833  0  -0.098598  -0.155719  0  4.027567  0
C  C91  1  0.85933210  0.50024721  0.14432962  1  0  -0.135752  0  3.787888  0  0  -0.158171  0  4.042025  0  0  -0.161218  0  4.062957  0  0.019047  0  -0.098616  -0.155791  0  4.027653  0
C  C92  1  0.65468922  0.42641051  0.70681310  1  0  -0.087695  0  3.726428  0  0  -0.110497  0  3.980133  0  0  -0.111171  0  3.99907  0  -0.006225  0  -0.087664  -0.110344  0  3.967668  0
C  C93  1  0.15469301  0.57358858  0.79318424  1  0  -0.087666  0  3.726373  0  0  -0.110503  0  3.980054  0  0  -0.111179  0  3.998995  0  -0.006762  0  -0.087689  -0.110348  0  3.967587  0
C  C94  1  0.34531146  0.57358956  0.29318836  1  0  -0.087739  0  3.726403  0  0  -0.110542  0  3.980087  0  0  -0.11122  0  3.999028  0  -0.006231  0  -0.087661  -0.110388  0  3.96762  0
C  C95  1  0.84530663  0.42641051  0.20681538  1  0  -0.087536  0  3.726489  0  0  -0.110368  0  3.980148  0  0  -0.111047  0  3.999089  0  -0.006776  0  -0.087629  -0.110216  0  3.967681  0
C  C96  1  0.23834736  0.16959359  0.68087687  1  0  -0.713388  0  3.514987  0  0  -0.752291  0  3.743395  0  0  -0.765902  0  3.750266  0  -0.447933  0  -0.341302  -0.742156  0  3.739049  0
C  C97  1  0.73834667  0.83040745  0.81912417  1  0  -0.713345  0  3.515007  0  0  -0.752245  0  3.743408  0  0  -0.76586  0  3.75028  0  -0.447959  0  -0.341299  -0.74211  0  3.739071  0
C  C98  1  0.76165331  0.83040648  0.31912308  1  0  -0.713426  0  3.515003  0  0  -0.752333  0  3.743422  0  0  -0.765948  0  3.750294  0  -0.447951  0  -0.341325  -0.742198  0  3.739075  0
C  C99  1  0.26165297  0.16959261  0.18087654  1  0  -0.71336  0  3.514994  0  0  -0.752264  0  3.743429  0  0  -0.765877  0  3.750301  0  -0.447954  0  -0.341312  -0.74213  0  3.739079  0
C  C100  1  0.40607302  0.08172505  0.89169568  1  0  -0.7199  0  3.545231  0  0  -0.763823  0  3.779991  0  0  -0.776797  0  3.786681  0  -0.408755  0  -0.34076  -0.754635  0  3.775652  0
C  C101  1  0.90607336  0.91827599  0.60830460  1  0  -0.719851  0  3.545215  0  0  -0.763807  0  3.779963  0  0  -0.776781  0  3.786653  0  -0.408906  0  -0.340764  -0.754618  0  3.775627  0
C  C102  1  0.59392869  0.91827599  0.10830384  1  0  -0.719907  0  3.545275  0  0  -0.763812  0  3.780044  0  0  -0.776787  0  3.786738  0  -0.408738  0  -0.340724  -0.75462  0  3.775708  0
C  C103  1  0.09392835  0.08172505  0.39169568  1  0  -0.719916  0  3.545209  0  0  -0.763837  0  3.779966  0  0  -0.776811  0  3.786658  0  -0.40875  0  -0.340769  -0.754645  0  3.775626  0
C  C104  1  0.47650380  0.89224426  0.58604216  1  0  -0.716381  0  3.524373  0  0  -0.757773  0  3.755695  0  0  -0.770798  0  3.761575  0  -0.444447  0  -0.33698  -0.74888  0  3.751958  0
C  C105  1  0.97650414  0.10775581  0.91395854  1  0  -0.716411  0  3.524362  0  0  -0.757792  0  3.755687  0  0  -0.77082  0  3.761567  0  -0.444413  0  -0.336989  -0.7489  0  3.751951  0
C  C106  1  0.52349584  0.10775484  0.41395745  1  0  -0.716378  0  3.524448  0  0  -0.757773  0  3.755759  0  0  -0.770802  0  3.761642  0  -0.44445  0  -0.336978  -0.748881  0  3.752019  0
C  C107  1  0.02349550  0.89224620  0.08604207  1  0  -0.716411  0  3.524338  0  0  -0.757791  0  3.75567  0  0  -0.770818  0  3.761553  0  -0.444329  0  -0.337001  -0.748896  0  3.751932  0
Cl  Cl108  1  0.72770630  0.59031604  0.49286922  1  0  -0.097791  0  1.331345  0  0  -0.065974  0  1.546055  0  0  -0.070715  0  1.543132  0  -0.237592  0  0.021649  -0.062229  0  1.547919  0
Cl  Cl109  1  0.22771009  0.40968597  0.00713063  1  0  -0.097814  0  1.331372  0  0  -0.065958  0  1.54608  0  0  -0.070698  0  1.543155  0  -0.237525  0  0.021657  -0.062212  0  1.547946  0
Cl  Cl110  1  0.27229025  0.40968403  0.50713224  1  0  -0.097792  0  1.331371  0  0  -0.065975  0  1.546076  0  0  -0.070716  0  1.543153  0  -0.237325  0  0.02164  -0.062229  0  1.547941  0
Cl  Cl111  1  0.77228955  0.59031507  0.99286889  1  0  -0.097826  0  1.331368  0  0  -0.065964  0  1.54608  0  0  -0.070707  0  1.543155  0  -0.237552  0  0.021647  -0.062219  0  1.547945  0
O  O112  1  0.54972420  0.19669286  0.72876719  1  0  -0.609542  0  2.019664  0  0  -0.538621  0  2.251977  0  0  -0.565177  0  2.24607  0  -1.180609  0  -0.274575  -0.519537  0  2.255433  0
O  O113  1  0.04972283  0.80330720  0.77123351  1  0  -0.609537  0  2.019534  0  0  -0.538595  0  2.251795  0  0  -0.565152  0  2.245891  0  -1.180582  0  -0.274555  -0.519513  0  2.255253  0
O  O114  1  0.45027854  0.80330720  0.27123276  1  0  -0.60953  0  2.019544  0  0  -0.538569  0  2.251819  0  0  -0.565128  0  2.245916  0  -1.180628  0  -0.274521  -0.519484  0  2.255276  0
O  O115  1  0.95027681  0.19669384  0.22876676  1  0  -0.609548  0  2.019539  0  0  -0.538587  0  2.251837  0  0  -0.565143  0  2.245933  0  -1.180615  0  -0.274537  -0.519501  0  2.255292  0
O  O116  1  0.69337537  0.07563703  0.77949560  1  0  -0.638738  0  2.049009  0  0  -0.561696  0  2.283715  0  0  -0.589204  0  2.278873  0  -1.206697  0  -0.277205  -0.541972  0  2.286231  0
O  O117  1  0.19337503  0.92436304  0.72050510  1  0  -0.638627  0  2.049109  0  0  -0.561607  0  2.28381  0  0  -0.589114  0  2.27897  0  -1.206721  0  -0.277166  -0.541882  0  2.286325  0
O  O118  1  0.30662427  0.92436206  0.22050477  1  0  -0.6387  0  2.049115  0  0  -0.561663  0  2.283843  0  0  -0.589171  0  2.279002  0  -1.20682  0  -0.277181  -0.541936  0  2.286357  0
O  O119  1  0.80662564  0.07563800  0.27949593  1  0  -0.638687  0  2.049075  0  0  -0.561647  0  2.2838  0  0  -0.589157  0  2.278958  0  -1.20672  0  -0.277181  -0.541921  0  2.286312  0
