# generated using pymatgen
data_Al2H10C24S2Cl2O11
_symmetry_space_group_name_H-M   'P 1'
_cell_length_a   6.61241115
_cell_length_b   12.85812113
_cell_length_c   17.66628429
_cell_angle_alpha   82.13971918
_cell_angle_beta   79.80370405
_cell_angle_gamma   71.66196532
_symmetry_Int_Tables_number   1
_chemical_formula_structural   Al2H10C24S2Cl2O11
_chemical_formula_sum   'Al2 H10 C24 S2 Cl2 O11'
_cell_volume   1397.95559585
_cell_formula_units_Z   1
loop_
 _symmetry_equiv_pos_site_id
 _symmetry_equiv_pos_as_xyz
  1  'x, y, z'
loop_
 _atom_site_type_symbol
 _atom_site_label
 _atom_site_symmetry_multiplicity
 _atom_site_fract_x
 _atom_site_fract_y
 _atom_site_fract_z
 _atom_site_occupancy
 _atom_site_pbe_bader_charge
 _atom_site_pbe_bader_spin_density
 _atom_site_pbe_cm5_charge
 _atom_site_pbe_ddec_charge
 _atom_site_pbe_ddec_spin_density
 _atom_site_pbe_ddec_sum_bond_order
 _atom_site_pbe_magmom
Al  Al0  1  0.49589499  0.49284849  0.50108634  1  2.500255  0  0.391363  1.635261  0  2.587153  0
Al  Al1  1  0.99493490  0.49755156  0.49787166  1  2.502625  0  0.392  1.639718  0  2.567063  0
H  H2  1  0.21318758  0.45569754  0.59767731  1  0.628131  0  0.3451  0.421677  0  0.872456  0
H  H3  1  0.68476200  0.62005722  0.44453818  1  0.652206  0  0.349221  0.432268  0  0.859618  0
H  H4  1  0.64771592  0.52875908  0.27758674  1  0.105594  0  0.113235  0.122087  0  0.989671  0
H  H5  1  0.71933940  0.55397812  0.13366730  1  0.066248  0  0.107942  0.114485  0  0.986987  0
H  H6  1  0.22590886  0.40444417  0.12166691  1  0.100585  0  0.10888  0.125669  0  0.991323  0
H  H7  1  0.79829750  0.60885103  0.86993726  1  0.102102  0  0.109816  0.127289  0  0.990271  0
H  H8  1  0.35405766  0.46857586  0.73453062  1  0.099052  0  0.10681  0.109074  0  1.004932  0
H  H9  1  0.29457226  0.45831614  0.87811483  1  0.071943  0  0.10908  0.115643  0  0.9859  0
H  H10  1  0.61262530  0.15372227  0.53915250  1  0.16216  0  0.12116  0.148028  0  0.981296  0
H  H11  1  0.51974167  0.88090465  0.45708295  1  0.608943  0  0.301545  0.320167  0  0.98312  0
C  C12  1  0.86754947  0.29960050  0.51107847  1  1.644609  0  0.262385  0.642239  0  4.155567  0
C  C13  1  0.65579681  0.52601686  0.63622201  1  1.58564  0  0.263917  0.65339  0  4.09316  0
C  C14  1  0.13130736  0.69304892  0.48508713  1  1.593129  0  0.251171  0.65822  0  4.157491  0
C  C15  1  0.34128557  0.46336301  0.36600524  1  1.608639  0  0.268846  0.651095  0  4.100402  0
C  C16  1  0.39127738  0.45923374  0.28045977  1  0.004708  0  -0.013288  -0.095893  0  3.929381  0
C  C17  1  0.55469243  0.50363128  0.24223086  1  -0.020249  0  -0.0766  -0.074309  0  3.988307  0
C  C18  1  0.59498178  0.51719970  0.16228641  1  0.017258  0  -0.084831  -0.136787  0  3.951974  0
C  C19  1  0.47224320  0.48434441  0.11770067  1  0.080105  0  0.0035  0.159019  0  4.117901  0
C  C20  1  0.31613324  0.43388457  0.15544477  1  -0.010471  0  -0.088736  -0.201223  0  3.922165  0
C  C21  1  0.27628570  0.42162730  0.23573728  1  0.087289  0  0.022894  0.140514  0  4.040202  0
C  C22  1  0.50247060  0.50162607  0.03620062  1  0.068237  0  -0.038939  -0.096328  0  4.103749  0
C  C23  1  0.52340942  0.51744484  0.96588717  1  -0.392172  0  -0.043308  -0.106883  0  4.105483  0
C  C24  1  0.54739376  0.52945638  0.88430655  1  0.098221  0  0.005137  0.164248  0  4.114666  0
C  C25  1  0.70259640  0.57615559  0.84073206  1  -0.0136  0  -0.08863  -0.200942  0  3.919466  0
C  C26  1  0.73565639  0.58016323  0.76039285  1  0.063783  0  0.022184  0.141001  0  4.032577  0
C  C27  1  0.61430606  0.53826024  0.72104059  1  0.026822  0  -0.017067  -0.102032  0  3.927307  0
C  C28  1  0.45184987  0.49787755  0.76517537  1  -0.021579  0  -0.080305  -0.073497  0  4.006057  0
C  C29  1  0.41810796  0.49244378  0.84509769  1  -0.037231  0  -0.085329  -0.13646  0  3.949766  0
C  C30  1  0.22625222  0.87357329  0.47540503  1  0.605132  0  0.091321  0.293087  0  4.06674  0
C  C31  1  0.78470267  0.11774340  0.52245994  1  0.029019  0  -0.085263  -0.132801  0  3.955301  0
C  C32  1  0.08255450  0.81098214  0.48897846  1  -0.111129  0  -0.038551  -0.245813  0  3.921628  0
C  C33  1  0.92600025  0.18007834  0.50779322  1  -0.206708  0  -0.014044  -0.106874  0  3.951862  0
C  C34  1  0.89419761  0.00638154  0.51143076  1  -0.162693  0  -0.02252  0.012802  0  4.102799  0
C  C35  1  0.11701823  0.98574041  0.48816434  1  -0.161787  0  -0.035259  -0.150809  0  4.080894  0
S  S36  1  0.81812477  0.88836564  0.51923243  1  0.212747  0  0.078742  0.0962  0  2.876897  0
S  S37  1  0.19194683  0.10422251  0.48001512  1  0.25855  0  0.088926  0.135628  0  2.781202  0
Cl  Cl38  1  0.08912112  0.35498934  0.27788316  1  -0.188035  0  0.011664  -0.058413  0  1.525299  0
Cl  Cl39  1  0.92497672  0.64201083  0.71167570  1  -0.193428  0  0.010918  -0.062482  0  1.540865  0
O  O40  1  0.66804200  0.34870699  0.52924644  1  -1.265567  0  -0.235563  -0.581292  0  2.335253  0
O  O41  1  0.85107811  0.50113060  0.60424587  1  -1.252782  0  -0.238976  -0.608037  0  2.387938  0
O  O42  1  0.97305312  0.65264623  0.49707575  1  -1.26033  0  -0.24749  -0.602718  0  2.319482  0
O  O43  1  0.50003645  0.44518235  0.40252002  1  -1.252776  0  -0.232515  -0.575875  0  2.324005  0
O  O44  1  0.32944677  0.63861897  0.46997482  1  -1.260956  0  -0.240964  -0.597302  0  2.366926  0
O  O45  1  0.14388417  0.49172227  0.39514831  1  -1.252592  0  -0.231113  -0.588243  0  2.375158  0
O  O46  1  0.01794421  0.34449156  0.49590376  1  -1.242304  0  -0.230964  -0.567463  0  2.329059  0
O  O47  1  0.49306262  0.53524631  0.60353513  1  -1.258041  0  -0.24031  -0.595918  0  2.325379  0
O  O48  1  0.24762495  0.45449188  0.54200491  1  -1.434086  0  -0.4495  -0.982362  0  2.187722  0
O  O49  1  0.73337985  0.54201022  0.46107518  1  -1.454821  0  -0.44836  -0.984413  0  2.179373  0
O  O50  1  0.43910881  0.83052287  0.45184247  1  -1.130395  0  -0.329334  -0.393641  0  2.348702  0
