# generated using pymatgen
data_ZnH10C6(SN2)2
_symmetry_space_group_name_H-M   'P 1'
_cell_length_a   7.38540869
_cell_length_b   8.04910343
_cell_length_c   9.43223261
_cell_angle_alpha   91.90152841
_cell_angle_beta   112.04100580
_cell_angle_gamma   93.30387922
_symmetry_Int_Tables_number   1
_chemical_formula_structural   ZnH10C6(SN2)2
_chemical_formula_sum   'Zn2 H20 C12 S4 N8'
_cell_volume   517.95394719
_cell_formula_units_Z   2
loop_
 _symmetry_equiv_pos_site_id
 _symmetry_equiv_pos_as_xyz
  1  'x, y, z'
loop_
 _atom_site_type_symbol
 _atom_site_label
 _atom_site_symmetry_multiplicity
 _atom_site_fract_x
 _atom_site_fract_y
 _atom_site_fract_z
 _atom_site_occupancy
 _atom_site_hle17_bader_spin_density
 _atom_site_hle17_ddec_charge
 _atom_site_hle17_ddec_spin_density
 _atom_site_hle17_ddec_sum_bond_order
 _atom_site_hle17_magmom
 _atom_site_hse06_10hf_bader_spin_density
 _atom_site_hse06_10hf_ddec_charge
 _atom_site_hse06_10hf_ddec_spin_density
 _atom_site_hse06_10hf_ddec_sum_bond_order
 _atom_site_hse06_10hf_magmom
 _atom_site_hse06_bader_spin_density
 _atom_site_hse06_ddec_charge
 _atom_site_hse06_ddec_spin_density
 _atom_site_hse06_ddec_sum_bond_order
 _atom_site_hse06_magmom
 _atom_site_pbe_bader_spin_density
 _atom_site_pbe_cm5_charge
 _atom_site_pbe_ddec_charge
 _atom_site_pbe_ddec_spin_density
 _atom_site_pbe_ddec_sum_bond_order
 _atom_site_pbe_magmom
Zn  Zn0  1  0.21184696  0.82633503  0.26838552  1  0  0.990567  0  1.975819  0  0  0.806197  0  2.457784  0  0  0.845006  0  2.409846  0  0  0.752829  0.779423  0  2.490794  0
Zn  Zn1  1  0.78813973  0.17367482  0.73160094  1  0  0.990426  0  1.975838  0  0  0.806102  0  2.457742  0  0  0.844921  0  2.409787  0  0  0.752769  0.779312  0  2.490745  0
H  H2  1  0.26405800  0.81385637  0.60519707  1  0  0.078788  0  0.944415  0  0  0.091553  0  1.012028  0  0  0.092101  0  1.012688  0  0  0.10077  0.091126  0  1.011611  0
H  H3  1  0.73595740  0.18614618  0.39480040  1  0  0.078792  0  0.944399  0  0  0.091586  0  1.011969  0  0  0.092135  0  1.012621  0  0  0.10079  0.091158  0  1.011553  0
H  H4  1  0.96253117  0.78437038  0.39416088  1  0  0.22843  0  0.969986  0  0  0.216157  0  1.038181  0  0  0.221698  0  1.035657  0  0  0.265896  0.212091  0  1.040378  0
H  H5  1  0.03748145  0.21563211  0.60584217  1  0  0.228457  0  0.969839  0  0  0.216109  0  1.038119  0  0  0.221652  0  1.035596  0  0  0.265891  0.212044  0  1.040318  0
H  H6  1  0.29341961  0.02662387  0.56897555  1  0  0.075545  0  0.942578  0  0  0.093257  0  1.001869  0  0  0.092969  0  1.00334  0  0  0.104522  0.093392  0  1.000905  0
H  H7  1  0.70659133  0.97337612  0.43102587  1  0  0.075535  0  0.942519  0  0  0.093231  0  1.001814  0  0  0.092942  0  1.003282  0  0  0.104539  0.093366  0  1.000851  0
H  H8  1  0.04389206  0.78079270  0.92072755  1  0  0.076261  0  0.946184  0  0  0.09256  0  1.009379  0  0  0.091966  0  1.011494  0  0  0.106052  0.092732  0  1.008251  0
H  H9  1  0.95610911  0.21921217  0.07927448  1  0  0.076273  0  0.946464  0  0  0.092565  0  1.009615  0  0  0.091968  0  1.011733  0  0  0.106079  0.092749  0  1.008472  0
H  H10  1  0.82892190  0.99347342  0.22182166  1  0  0.072251  0  0.952447  0  0  0.084995  0  1.021452  0  0  0.08525  0  1.022373  0  0  0.099915  0.084622  0  1.021274  0
H  H11  1  0.17107498  0.00651655  0.77817015  1  0  0.072344  0  0.952592  0  0  0.085115  0  1.02156  0  0  0.08537  0  1.022482  0  0  0.099971  0.084744  0  1.021383  0
H  H12  1  0.89630432  0.66949540  0.08524387  1  0  0.227483  0  0.971126  0  0  0.21665  0  1.037207  0  0  0.221939  0  1.034896  0  0  0.266831  0.212714  0  1.039368  0
H  H13  1  0.10369470  0.33050074  0.91475724  1  0  0.227463  0  0.971058  0  0  0.216642  0  1.037156  0  0  0.221938  0  1.034849  0  0  0.266832  0.212707  0  1.039319  0
H  H14  1  0.02862881  0.13624778  0.33630763  1  0  0.071226  0  0.928108  0  0  0.087531  0  0.989953  0  0  0.087605  0  0.990855  0  0  0.104182  0.087291  0  0.989526  0
H  H15  1  0.97136644  0.86374095  0.66368050  1  0  0.07106  0  0.927812  0  0  0.087434  0  0.989653  0  0  0.08751  0  0.990548  0  0  0.104104  0.087193  0  0.989227  0
H  H16  1  0.22272411  0.63317049  0.98147509  1  0  0.072508  0  0.942717  0  0  0.089101  0  1.006651  0  0  0.089779  0  1.00668  0  0  0.097764  0.088455  0  1.006902  0
H  H17  1  0.77727021  0.36682188  0.01852351  1  0  0.072429  0  0.942584  0  0  0.089036  0  1.006499  0  0  0.089714  0  1.006526  0  0  0.097708  0.08839  0  1.006755  0
H  H18  1  0.22089855  0.44843154  0.19007160  1  0  0.075437  0  0.931558  0  0  0.09112  0  0.993688  0  0  0.090814  0  0.995354  0  0  0.103972  0.091205  0  0.992629  0
H  H19  1  0.77909019  0.55156325  0.80992870  1  0  0.075359  0  0.931473  0  0  0.091047  0  0.993612  0  0  0.09074  0  0.995282  0  0  0.103955  0.091134  0  0.992553  0
H  H20  1  0.03765742  0.46853854  0.26710825  1  0  0.066902  0  0.968552  0  0  0.080488  0  1.0394  0  0  0.081068  0  1.039699  0  0  0.092446  0.079737  0  1.039871  0
H  H21  1  0.96233868  0.53145629  0.73289624  1  0  0.066927  0  0.968565  0  0  0.080505  0  1.039389  0  0  0.081087  0  1.039688  0  0  0.09248  0.079755  0  1.039861  0
C  C22  1  0.58724798  0.64767082  0.39008592  1  0  0.328722  0  4.036186  0  0  0.30785  0  4.334441  0  0  0.331316  0  4.347028  0  0  0.157832  0.292047  0  4.32505  0
C  C23  1  0.41272396  0.35233128  0.60991626  1  0  0.328637  0  4.036038  0  0  0.307767  0  4.334269  0  0  0.331232  0  4.346859  0  0  0.157801  0.291964  0  4.32488  0
C  C24  1  0.33237997  0.11176488  0.10398143  1  0  0.323241  0  4.053617  0  0  0.303884  0  4.350415  0  0  0.32728  0  4.363753  0  0  0.15608  0.288042  0  4.340962  0
C  C25  1  0.66762807  0.88823508  0.89602024  1  0  0.323373  0  4.053259  0  0  0.304023  0  4.350052  0  0  0.327418  0  4.363395  0  0  0.156118  0.28818  0  4.340599  0
C  C26  1  0.18467347  0.92468824  0.56296128  1  0  -0.003786  0  3.611832  0  0  -0.0581  0  3.863764  0  0  -0.054888  0  3.876116  0  0  -0.078708  -0.060039  0  3.854996  0
C  C27  1  0.81533304  0.07531173  0.43703678  1  0  -0.003732  0  3.611875  0  0  -0.057995  0  3.863639  0  0  -0.054793  0  3.876023  0  0  -0.078689  -0.059932  0  3.854871  0
C  C28  1  0.93087653  0.02923297  0.33940893  1  0  0.000239  0  3.617933  0  0  -0.053807  0  3.872379  0  0  -0.050197  0  3.884154  0  0  -0.077029  -0.056209  0  3.864471  0
C  C29  1  0.06915016  0.97078082  0.66059955  1  0  0.000387  0  3.617751  0  0  -0.053757  0  3.872268  0  0  -0.050145  0  3.884055  0  0  -0.076957  -0.056155  0  3.864355  0
C  C30  1  0.06680911  0.47352221  0.16142267  1  0  -0.004954  0  3.630251  0  0  -0.061989  0  3.885863  0  0  -0.058754  0  3.898475  0  0  -0.08104  -0.063855  0  3.877385  0
C  C31  1  0.93319851  0.52647277  0.83857765  1  0  -0.004918  0  3.630297  0  0  -0.061918  0  3.88598  0  0  -0.058673  0  3.898602  0  0  -0.081005  -0.063781  0  3.877502  0
C  C32  1  0.06911299  0.65436394  0.95963275  1  0  -0.00459  0  3.622902  0  0  -0.060105  0  3.8753  0  0  -0.056913  0  3.887767  0  0  -0.079259  -0.062115  0  3.866743  0
C  C33  1  0.93089077  0.34561725  0.04037236  1  0  -0.004571  0  3.622791  0  0  -0.060013  0  3.875115  0  0  -0.056809  0  3.887592  0  0  -0.079249  -0.062039  0  3.866564  0
S  S34  1  0.77285172  0.54392339  0.40430026  1  0  -0.337229  0  2.124283  0  0  -0.315851  0  2.431719  0  0  -0.33069  0  2.427441  0  0  -0.13985  -0.305251  0  2.435069  0
S  S35  1  0.22711918  0.45608496  0.59569867  1  0  -0.33725  0  2.124277  0  0  -0.315845  0  2.43168  0  0  -0.330685  0  2.427407  0  0  -0.139902  -0.305241  0  2.435027  0
S  S36  1  0.42028201  0.23746743  0.01230813  1  0  -0.330242  0  2.053794  0  0  -0.313441  0  2.340525  0  0  -0.32861  0  2.338604  0  0  -0.134054  -0.302933  0  2.342172  0
S  S37  1  0.57974793  0.76253141  0.98770285  1  0  -0.330204  0  2.053772  0  0  -0.313396  0  2.340481  0  0  -0.328571  0  2.338576  0  0  -0.134029  -0.302884  0  2.342127  0
N  N38  1  0.45376580  0.72733114  0.38260276  1  0  -0.585815  0  2.996717  0  0  -0.517327  0  3.304719  0  0  -0.539232  0  3.303937  0  0  -0.420143  -0.502208  0  3.304696  0
N  N39  1  0.54620665  0.27267719  0.61740084  1  0  -0.585633  0  2.996507  0  0  -0.517157  0  3.3045  0  0  -0.53906  0  3.30371  0  0  -0.420029  -0.502036  0  3.304475  0
N  N40  1  0.26209061  0.02205054  0.17034324  1  0  -0.592248  0  2.992411  0  0  -0.522331  0  3.301242  0  0  -0.544254  0  3.300048  0  0  -0.424362  -0.50735  0  3.301789  0
N  N41  1  0.73790807  0.97796185  0.82965093  1  0  -0.592378  0  2.99218  0  0  -0.522467  0  3.301011  0  0  -0.544391  0  3.299815  0  0  -0.424387  -0.50748  0  3.301552  0
N  N42  1  0.05509267  0.88843541  0.39918398  1  0  -0.415412  0  3.239512  0  0  -0.331138  0  3.498339  0  0  -0.349546  0  3.505336  0  0  -0.487898  -0.318477  0  3.493552  0
N  N43  1  0.94491508  0.11156209  0.60081328  1  0  -0.415388  0  3.2394  0  0  -0.331054  0  3.498287  0  0  -0.349467  0  3.505283  0  0  -0.487879  -0.318388  0  3.493493  0
N  N44  1  0.04053955  0.64509490  0.10724941  1  0  -0.41346  0  3.240406  0  0  -0.327455  0  3.494249  0  0  -0.345897  0  3.501761  0  0  -0.486853  -0.314654  0  3.489163  0
N  N45  1  0.95945834  0.35490496  0.89275257  1  0  -0.413251  0  3.240306  0  0  -0.327358  0  3.494193  0  0  -0.345845  0  3.501757  0  0  -0.48681  -0.314543  0  3.489076  0
