# generated using pymatgen
data_Zn4H8C25S4O17
_symmetry_space_group_name_H-M   'P 1'
_cell_length_a   19.64377689
_cell_length_b   19.68254162
_cell_length_c   33.27567689
_cell_angle_alpha   79.20732735
_cell_angle_beta   79.32447657
_cell_angle_gamma   64.03325180
_symmetry_Int_Tables_number   1
_chemical_formula_structural   Zn4H8C25S4O17
_chemical_formula_sum   'Zn16 H32 C100 S16 O68'
_cell_volume   11284.34281465
_cell_formula_units_Z   4
loop_
 _symmetry_equiv_pos_site_id
 _symmetry_equiv_pos_as_xyz
  1  'x, y, z'
loop_
 _atom_site_type_symbol
 _atom_site_label
 _atom_site_symmetry_multiplicity
 _atom_site_fract_x
 _atom_site_fract_y
 _atom_site_fract_z
 _atom_site_occupancy
 _atom_site_pbe_bader_charge
 _atom_site_pbe_bader_spin_density
 _atom_site_pbe_cm5_charge
 _atom_site_pbe_ddec_charge
 _atom_site_pbe_ddec_spin_density
 _atom_site_pbe_ddec_sum_bond_order
 _atom_site_pbe_magmom
Zn  Zn0  1  0.05585101  0.40074432  0.47928871  1  1.319425  0  0.668676  0.967405  0  2.351846  0
Zn  Zn1  1  0.98456195  0.48348554  0.56015188  1  1.320332  0  0.673678  0.956303  0  2.384536  0
Zn  Zn2  1  0.05701551  0.56419653  0.48192302  1  1.319823  0  0.677521  0.97048  0  2.353247  0
Zn  Zn3  1  0.89984598  0.55613501  0.47887696  1  1.320992  0  0.677128  0.968503  0  2.363112  0
Zn  Zn4  1  0.69322327  0.35084139  0.27139139  1  1.320322  0  0.670145  0.966301  0  2.364026  0
Zn  Zn5  1  0.68652771  0.19355406  0.26676325  1  1.315906  0  0.669255  0.961844  0  2.373965  0
Zn  Zn6  1  0.76998876  0.26560567  0.18949619  1  1.323719  0  0.678156  0.972388  0  2.348422  0
Zn  Zn7  1  0.84698751  0.19609389  0.27263889  1  1.316848  0  0.672277  0.958905  0  2.379714  0
Zn  Zn8  1  0.26748061  0.76722681  0.68932244  1  1.308366  0  0.671774  0.961557  0  2.378037  0
Zn  Zn9  1  0.34997531  0.69603135  0.77077935  1  1.318591  0  0.671709  0.960183  0  2.377839  0
Zn  Zn10  1  0.19211460  0.84792523  0.77198765  1  1.323144  0  0.676166  0.97563  0  2.347814  0
Zn  Zn11  1  0.19277570  0.68676331  0.76666078  1  1.318802  0  0.672141  0.962841  0  2.370898  0
Zn  Zn12  1  0.56134960  0.05921599  0.98294020  1  1.316394  0  0.671289  0.964154  0  2.375615  0
Zn  Zn13  1  0.40132660  0.05578065  0.97798732  1  1.31857  0  0.672375  0.964217  0  2.366665  0
Zn  Zn14  1  0.55467473  0.90115625  0.97788724  1  1.318264  0  0.670954  0.965478  0  2.376139  0
Zn  Zn15  1  0.48476091  0.98174043  0.06024139  1  1.319132  0  0.67172  0.965804  0  2.367075  0
H  H16  1  0.95519289  0.25299289  0.34842385  1  0.092629  0  0.112378  0.118529  0  0.988152  0
H  H17  1  0.74073367  0.44876162  0.35710291  1  0.100786  0  0.113621  0.124682  0  0.987411  0
H  H18  1  0.00299436  0.30219257  0.39667139  1  0.141898  0  0.113617  0.120111  0  0.98559  0
H  H19  1  0.09310365  0.60301731  0.69928675  1  0.08169  0  0.112297  0.118666  0  0.988097  0
H  H20  1  0.21363846  0.69018818  0.59755035  1  0.118163  0  0.113361  0.126289  0  0.985633  0
H  H21  1  0.04579908  0.55593285  0.64971389  1  0.10077  0  0.114224  0.121699  0  0.984494  0
H  H22  1  0.46240648  0.24187876  0.34185384  1  0.118821  0  0.120858  0.145468  0  0.969417  0
H  H23  1  0.48078414  0.69418329  0.59985813  1  0.115735  0  0.124022  0.149174  0  0.964027  0
H  H24  1  0.20596165  0.98010496  0.60215903  1  0.11909  0  0.121714  0.147344  0  0.967674  0
H  H25  1  0.94616445  0.96951149  0.34449591  1  0.110998  0  0.122423  0.14808  0  0.9658  0
H  H26  1  0.55741720  0.04314003  0.15267620  1  0.114281  0  0.112708  0.118759  0  0.987129  0
H  H27  1  0.64066821  0.16306468  0.04878546  1  0.087274  0  0.113401  0.12435  0  0.988925  0
H  H28  1  0.60543734  0.09361318  0.20008741  1  0.115787  0  0.114018  0.120667  0  0.985535  0
H  H29  1  0.54911394  0.76890883  0.14776074  1  0.134359  0  0.122126  0.14733  0  0.967412  0
H  H30  1  0.16329618  0.14478874  0.04148329  1  0.116983  0  0.122028  0.147791  0  0.966811  0
H  H31  1  0.49639030  0.79427242  0.90199120  1  0.0743  0  0.112695  0.118703  0  0.987898  0
H  H32  1  0.30060750  0.00873963  0.89362104  1  0.104654  0  0.113344  0.126316  0  0.986764  0
H  H33  1  0.44693319  0.74781500  0.85324638  1  0.068636  0  0.114438  0.121324  0  0.983811  0
H  H34  1  0.30292357  0.28098063  0.90121510  1  0.120894  0  0.122873  0.147839  0  0.965404  0
H  H35  1  0.78629872  0.00942885  0.90605214  1  0.114073  0  0.122729  0.147576  0  0.966203  0
H  H36  1  0.79092005  0.57336178  0.36277864  1  0.610511  0  0.337701  0.369622  0  0.873544  0
H  H37  1  0.10432646  0.74467705  0.53190787  1  0.61834  0  0.338708  0.370777  0  0.871784  0
H  H38  1  0.78737850  0.14886616  0.07658714  1  0.592994  0  0.338823  0.370945  0  0.871904  0
H  H39  1  0.17608434  0.96238121  0.88867834  1  0.621873  0  0.338129  0.370337  0  0.872879  0
H  H40  1  0.32500809  0.54075152  0.40515303  1  0.613778  0  0.346364  0.372208  0  0.858935  0
H  H41  1  0.75697484  0.54393301  0.68433879  1  0.621171  0  0.33934  0.364617  0  0.872049  0
H  H42  1  0.04275492  0.25645473  0.68513512  1  0.611185  0  0.341618  0.367126  0  0.868145  0
H  H43  1  0.73732929  0.81779511  0.39096583  1  0.623198  0  0.342504  0.36721  0  0.866085  0
H  H44  1  0.70425517  0.48924710  0.06546159  1  0.599965  0  0.345187  0.370046  0  0.861412  0
H  H45  1  0.15016018  0.07126925  0.22174934  1  0.595703  0  0.342646  0.367848  0  0.8662  0
H  H46  1  0.50921177  0.43504660  0.86377866  1  0.618161  0  0.342256  0.367293  0  0.86758  0
H  H47  1  0.92537618  0.70284264  0.85368447  1  0.594724  0  0.342556  0.368076  0  0.865366  0
C  C48  1  0.06098233  0.31664907  0.56279126  1  1.575793  0  0.212656  0.620791  0  4.220179  0
C  C49  1  0.07159153  0.56970358  0.56795084  1  1.574729  0  0.229808  0.602265  0  4.17368  0
C  C50  1  0.18180418  0.44050936  0.43854845  1  1.572681  0  0.213585  0.621652  0  4.217434  0
C  C51  1  0.93380114  0.68654353  0.43850342  1  1.602657  0  0.212046  0.619678  0  4.225997  0
C  C52  1  0.93045774  0.43092624  0.43130637  1  1.580161  0  0.229196  0.603202  0  4.171937  0
C  C53  1  0.81775090  0.56063894  0.56218251  1  1.569383  0  0.214288  0.622372  0  4.219713  0
C  C54  1  0.56490727  0.31302027  0.31270343  1  1.57196  0  0.216436  0.607258  0  4.222388  0
C  C55  1  0.67969220  0.18285852  0.18038093  1  1.582313  0  0.229467  0.602879  0  4.17369  0
C  C56  1  0.68860168  0.43280658  0.18761258  1  1.56941  0  0.214804  0.624592  0  4.216441  0
C  C57  1  0.93691644  0.18839581  0.19090371  1  1.547525  0  0.212961  0.620609  0  4.2232  0
C  C58  1  0.81702249  0.32047728  0.32053313  1  1.568809  0  0.229295  0.603582  0  4.16587  0
C  C59  1  0.80765533  0.06674235  0.30975957  1  1.561484  0  0.216024  0.607738  0  4.222348  0
C  C60  1  0.43428252  0.68645060  0.68723207  1  1.549847  0  0.216359  0.606989  0  4.222831  0
C  C61  1  0.31818461  0.82101125  0.81841490  1  1.583834  0  0.229806  0.602535  0  4.172527  0
C  C62  1  0.19157156  0.93381149  0.68903215  1  1.557493  0  0.21881  0.60922  0  4.220213  0
C  C63  1  0.06494607  0.80702261  0.81001028  1  1.593148  0  0.213002  0.6215  0  4.22117  0
C  C64  1  0.18289081  0.67942194  0.68004072  1  1.549759  0  0.229817  0.60549  0  4.16686  0
C  C65  1  0.31586751  0.56722749  0.81266297  1  1.591372  0  0.212578  0.622516  0  4.217603  0
C  C66  1  0.43959767  0.18395437  0.93847846  1  1.593943  0  0.21799  0.610031  0  4.220648  0
C  C67  1  0.42942590  0.93203932  0.92995311  1  1.557586  0  0.229714  0.604483  0  4.165621  0
C  C68  1  0.68440455  0.93782631  0.93841455  1  1.56974  0  0.217628  0.607948  0  4.222567  0
C  C69  1  0.56177694  0.81474580  0.06077454  1  1.558841  0  0.215663  0.607037  0  4.224682  0
C  C70  1  0.56988177  0.06921274  0.06934684  1  1.557378  0  0.23029  0.60462  0  4.164443  0
C  C71  1  0.31698235  0.06058850  0.06152590  1  1.585252  0  0.217283  0.607579  0  4.219687  0
C  C72  1  0.89905309  0.40244514  0.40371754  1  -0.026765  0  -0.00609  -0.046674  0  3.9382  0
C  C73  1  0.84556647  0.34869466  0.34967701  1  0.022606  0  -0.01117  -0.021965  0  3.96997  0
C  C74  1  0.82427229  0.44443576  0.39301085  1  0.039782  0  -0.006415  -0.067389  0  3.976626  0
C  C75  1  0.91934199  0.30645845  0.36098773  1  -0.00652  0  -0.0762  -0.087294  0  3.962  0
C  C76  1  0.79837937  0.41733682  0.36575674  1  -0.040319  0  -0.076532  -0.121221  0  3.941817  0
C  C77  1  0.94563509  0.33355450  0.38770469  1  -0.122409  0  -0.075024  -0.081395  0  3.965327  0
C  C78  1  0.10309673  0.59663698  0.59625230  1  0.011551  0  -0.006005  -0.043638  0  3.935417  0
C  C79  1  0.15526036  0.65007172  0.65104718  1  0.023422  0  -0.010994  -0.022643  0  3.972876  0
C  C80  1  0.15107442  0.63421507  0.58096858  1  -0.051925  0  -0.006443  -0.069088  0  3.983055  0
C  C81  1  0.10865092  0.61153195  0.66618531  1  0.003043  0  -0.075804  -0.087402  0  3.963126  0
C  C82  1  0.17632951  0.66112971  0.60860347  1  -0.081949  0  -0.076447  -0.121991  0  3.942965  0
C  C83  1  0.08273178  0.58538844  0.63881782  1  -0.002766  0  -0.074782  -0.083154  0  3.962084  0
C  C84  1  0.30270197  0.45615826  0.40246783  1  0.575954  0  0.087682  0.277923  0  4.098825  0
C  C85  1  0.44533475  0.29846083  0.35012136  1  0.01937  0  -0.086588  -0.12754  0  3.957787  0
C  C86  1  0.25660314  0.41653317  0.41418797  1  -0.09871  0  -0.038782  -0.236432  0  3.927741  0
C  C87  1  0.49052410  0.33810302  0.33792123  1  -0.153455  0  -0.024796  -0.114492  0  3.978606  0
C  C88  1  0.37700181  0.34111606  0.37364842  1  -0.170288  0  -0.022777  0.00849  0  4.104533  0
C  C89  1  0.37163712  0.41264694  0.37906458  1  -0.142509  0  -0.037303  -0.153431  0  4.105083  0
C  C90  1  0.72729348  0.57659097  0.62996735  1  0.535771  0  0.080985  0.270919  0  4.105199  0
C  C91  1  0.52525973  0.66770223  0.62021852  1  0.090462  0  -0.08292  -0.123362  0  3.948165  0
C  C92  1  0.74358031  0.58386119  0.58713254  1  -0.066909  0  -0.037573  -0.239555  0  3.934084  0
C  C93  1  0.50924541  0.66069011  0.66266602  1  -0.222098  0  -0.024516  -0.111702  0  3.977036  0
C  C94  1  0.60464408  0.63661963  0.60809867  1  -0.137058  0  -0.02104  0.006357  0  4.097467  0
C  C95  1  0.64751506  0.60680135  0.64183083  1  -0.16709  0  -0.040038  -0.15704  0  4.121232  0
C  C96  1  0.07697370  0.22653240  0.63091359  1  0.65258  0  0.083547  0.274484  0  4.099607  0
C  C97  1  0.17676546  0.02475207  0.62219419  1  0.042138  0  -0.086049  -0.130141  0  3.958235  0
C  C98  1  0.08638432  0.24267230  0.58806219  1  -0.131795  0  -0.038745  -0.236715  0  3.930052  0
C  C99  1  0.16691780  0.00903029  0.66463771  1  -0.144987  0  -0.023508  -0.113172  0  3.973637  0
C  C100  1  0.14429347  0.10388091  0.60975509  1  -0.162751  0  -0.022639  0.01084  0  4.101041  0
C  C101  1  0.11023235  0.14687305  0.64319654  1  -0.224397  0  -0.039028  -0.160104  0  4.113639  0
C  C102  1  0.83830839  0.80244329  0.39720544  1  0.515149  0  0.082601  0.271829  0  4.106825  0
C  C103  1  0.90127659  0.94958338  0.34975965  1  0.121248  0  -0.084439  -0.125622  0  3.954756  0
C  C104  1  0.90813691  0.76018416  0.41293024  1  -0.068148  0  -0.040137  -0.241132  0  3.936987  0
C  C105  1  0.83211111  0.99160922  0.33422434  1  -0.229681  0  -0.025452  -0.113071  0  3.977715  0
C  C106  1  0.90398877  0.88047183  0.37245255  1  -0.175621  0  -0.022833  0.007484  0  4.103394  0
C  C107  1  0.83631528  0.87136272  0.37389274  1  -0.124948  0  -0.039208  -0.155832  0  4.111933  0
C  C108  1  0.64983542  0.15610043  0.15111626  1  -0.036043  0  -0.005332  -0.04305  0  3.933404  0
C  C109  1  0.59725742  0.09956721  0.09799930  1  0.019637  0  -0.010929  -0.021027  0  3.966772  0
C  C110  1  0.65984387  0.17665032  0.10825188  1  -0.017924  0  -0.007123  -0.068816  0  3.979325  0
C  C111  1  0.58629441  0.08027306  0.14066057  1  -0.033698  0  -0.075269  -0.086226  0  3.960753  0
C  C112  1  0.63379400  0.14772226  0.08202349  1  -0.024642  0  -0.076412  -0.121571  0  3.941305  0
C  C113  1  0.61266939  0.10835218  0.16684109  1  -0.035271  0  -0.074086  -0.082012  0  3.962483  0
C  C114  1  0.67347606  0.52198014  0.11929970  1  0.547072  0  0.08751  0.277587  0  4.099735  0
C  C115  1  0.57733158  0.72416495  0.12773775  1  0.043057  0  -0.085392  -0.126476  0  3.956642  0
C  C116  1  0.66432453  0.50653914  0.16220219  1  -0.050276  0  -0.038379  -0.237509  0  3.929773  0
C  C117  1  0.58657424  0.73972195  0.08528499  1  -0.142814  0  -0.025942  -0.115438  0  3.981117  0
C  C118  1  0.60873498  0.64504605  0.14023347  1  -0.212927  0  -0.022789  0.008105  0  4.102965  0
C  C119  1  0.64144004  0.60167501  0.10686949  1  -0.141103  0  -0.037343  -0.153341  0  4.104006  0
C  C120  1  0.08402856  0.12243305  0.17967278  1  0.547669  0  0.083755  0.273911  0  4.10265  0
C  C121  1  0.17128354  0.12653162  0.07385243  1  0.094973  0  -0.084949  -0.128499  0  3.95304  0
C  C122  1  0.01181956  0.16331707  0.16647848  1  -0.075251  0  -0.039222  -0.23866  0  3.929589  0
C  C123  1  0.24274042  0.08572379  0.08699477  1  -0.237433  0  -0.024013  -0.110923  0  3.971771  0
C  C124  1  0.11329176  0.14009850  0.10746632  1  -0.180286  0  -0.022637  0.008811  0  4.09984  0
C  C125  1  0.14198436  0.10925259  0.14571313  1  -0.147028  0  -0.038972  -0.156607  0  4.113844  0
C  C126  1  0.34657876  0.85188024  0.84631194  1  0.00789  0  -0.004702  -0.043899  0  3.933208  0
C  C127  1  0.40075067  0.90391357  0.90085130  1  0.004876  0  -0.010823  -0.0225  0  3.969979  0
C  C128  1  0.30456768  0.92616368  0.85735030  1  -0.054026  0  -0.006687  -0.067324  0  3.979393  0
C  C129  1  0.44284467  0.83045595  0.88938390  1  -0.05059  0  -0.075282  -0.08575  0  3.960304  0
C  C130  1  0.33190065  0.95137656  0.88480583  1  -0.005474  0  -0.077234  -0.124212  0  3.942985  0
C  C131  1  0.41558615  0.80488741  0.86238265  1  0.039481  0  -0.072908  -0.079951  0  3.960375  0
C  C132  1  0.40990430  0.45048110  0.85452902  1  0.541227  0  0.084998  0.276261  0  4.098171  0
C  C133  1  0.34743114  0.30115714  0.89737664  1  0.079966  0  -0.083544  -0.123851  0  3.950014  0
C  C134  1  0.34130144  0.49288219  0.83758455  1  -0.075296  0  -0.038882  -0.23918  0  3.930741  0
C  C135  1  0.41555700  0.25907149  0.91398007  1  -0.198712  0  -0.023868  -0.112893  0  3.974825  0
C  C136  1  0.34515547  0.37083037  0.87565740  1  -0.171726  0  -0.021583  0.008591  0  4.099567  0
C  C137  1  0.41185705  0.38049152  0.87629329  1  -0.155423  0  -0.038265  -0.155001  0  4.109866  0
C  C138  1  0.94516751  0.79116480  0.84881337  1  0.550223  0  0.083328  0.274338  0  4.101115  0
C  C139  1  0.80342909  0.95190167  0.89918808  1  0.06532  0  -0.084378  -0.125345  0  3.952072  0
C  C140  1  0.99036169  0.83120855  0.83468670  1  -0.099035  0  -0.038738  -0.238855  0  3.932622  0
C  C141  1  0.75874959  0.91211878  0.91317182  1  -0.174036  0  -0.024834  -0.11241  0  3.975877  0
C  C142  1  0.87129628  0.90817645  0.87566251  1  -0.180729  0  -0.022491  0.00791  0  4.10155  0
C  C143  1  0.87689868  0.83560215  0.87227014  1  -0.146903  0  -0.039081  -0.156652  0  4.114314  0
C  C144  1  0.76731984  0.51491764  0.41197093  1  1.540215  0  0.230007  0.585402  0  4.133361  0
C  C145  1  0.18230074  0.64223201  0.53619266  1  1.552612  0  0.229617  0.585045  0  4.136847  0
C  C146  1  0.69197023  0.23377876  0.08876733  1  1.544818  0  0.229978  0.586479  0  4.133124  0
C  C147  1  0.23390284  0.98311801  0.83840550  1  1.568286  0  0.228668  0.583805  0  4.136801  0
S  S148  1  0.29750304  0.32703854  0.39694168  1  0.253301  0  0.067372  0.110759  0  2.754371  0
S  S149  1  0.45042250  0.42751835  0.35497924  1  0.256178  0  0.071186  0.117429  0  2.762659  0
S  S150  1  0.66199406  0.62671432  0.56174505  1  0.293074  0  0.090996  0.146616  0  2.742928  0
S  S151  1  0.59036290  0.61622473  0.68832658  1  0.232231  0  0.060371  0.101966  0  2.779487  0
S  S152  1  0.13587323  0.16093433  0.56322686  1  0.260041  0  0.071436  0.116482  0  2.751121  0
S  S153  1  0.11846221  0.09008808  0.68988507  1  0.241948  0  0.078946  0.130014  0  2.764568  0
S  S154  1  0.97051550  0.80438251  0.39925761  1  0.267685  0  0.076085  0.12482  0  2.753984  0
S  S155  1  0.76973184  0.94749881  0.34695769  1  0.220504  0  0.06261  0.105391  0  2.769593  0
S  S156  1  0.61708602  0.58852748  0.18690652  1  0.266907  0  0.072974  0.118792  0  2.754496  0
S  S157  1  0.63355907  0.65836018  0.06015539  1  0.237828  0  0.066767  0.111077  0  2.766578  0
S  S158  1  0.01517866  0.18530324  0.11301982  1  0.307182  0  0.075317  0.122942  0  2.751015  0
S  S159  1  0.24016756  0.06363307  0.14030824  1  0.243643  0  0.067095  0.111405  0  2.770058  0
S  S160  1  0.28008816  0.44726140  0.84822354  1  0.283632  0  0.07649  0.12426  0  2.753398  0
S  S161  1  0.47743132  0.30375599  0.90344470  1  0.232482  0  0.067151  0.111174  0  2.7688  0
S  S162  1  0.94948785  0.92228896  0.84997046  1  0.272084  0  0.076518  0.12465  0  2.755762  0
S  S163  1  0.79861243  0.82131713  0.89782610  1  0.24815  0  0.066569  0.110538  0  2.771736  0
O  O164  1  0.99984325  0.50068750  0.49967713  1  -1.232915  0  -0.570514  -1.032431  0  2.524422  0
O  O165  1  0.07979218  0.31535554  0.52374097  1  -1.15605  0  -0.325095  -0.554758  0  2.324325  0
O  O166  1  0.04175321  0.52377333  0.58437008  1  -1.163913  0  -0.30757  -0.532587  0  2.336162  0
O  O167  1  0.15378443  0.50585204  0.45101687  1  -1.157276  0  -0.309765  -0.519371  0  2.34222  0
O  O168  1  0.02260069  0.37554984  0.58144802  1  -1.158582  0  -0.31298  -0.523679  0  2.333302  0
O  O169  1  0.15118983  0.39289053  0.44508180  1  -1.158116  0  -0.328232  -0.559222  0  2.32255  0
O  O170  1  0.07640017  0.59618207  0.53001622  1  -1.165068  0  -0.302613  -0.537384  0  2.36213  0
O  O171  1  0.00217073  0.65945490  0.44783404  1  -1.165193  0  -0.322979  -0.550781  0  2.327258  0
O  O172  1  0.89250093  0.50041939  0.43752975  1  -1.168142  0  -0.302928  -0.537413  0  2.373153  0
O  O173  1  0.88672313  0.65607435  0.44925675  1  -1.164613  0  -0.312874  -0.52505  0  2.334487  0
O  O174  1  0.99240235  0.38405618  0.44549888  1  -1.163508  0  -0.308422  -0.535423  0  2.320564  0
O  O175  1  0.87686197  0.53398159  0.58106247  1  -1.162252  0  -0.315606  -0.529738  0  2.330411  0
O  O176  1  0.81612660  0.56988756  0.52309225  1  -1.161525  0  -0.319037  -0.543314  0  2.334808  0
O  O177  1  0.74881184  0.25152905  0.25001291  1  -1.233625  0  -0.569967  -1.029815  0  2.524333  0
O  O178  1  0.59601518  0.35997121  0.30424705  1  -1.163557  0  -0.319725  -0.546463  0  2.331227  0
O  O179  1  0.65482258  0.17509575  0.21833916  1  -1.171265  0  -0.308732  -0.53569  0  2.329511  0
O  O180  1  0.72341622  0.37345658  0.16907922  1  -1.157709  0  -0.310636  -0.521419  0  2.336608  0
O  O181  1  0.59178158  0.24660965  0.30137875  1  -1.170529  0  -0.318773  -0.540189  0  2.316943  0
O  O182  1  0.67234538  0.43509669  0.22672454  1  -1.164559  0  -0.325751  -0.556574  0  2.331614  0
O  O183  1  0.72836470  0.20987219  0.16470266  1  -1.165089  0  -0.302209  -0.537702  0  2.363363  0
O  O184  1  0.87949987  0.22384948  0.17023783  1  -1.174705  0  -0.323589  -0.553301  0  2.332283  0
O  O185  1  0.86030933  0.25435876  0.31005199  1  -1.173058  0  -0.312332  -0.542573  0  2.340385  0
O  O186  1  0.93482842  0.17320457  0.22999651  1  -1.125086  0  -0.313469  -0.525496  0  2.327143  0
O  O187  1  0.75216527  0.36477858  0.30856108  1  -1.170692  0  -0.311619  -0.541188  0  2.333698  0
O  O188  1  0.74194696  0.09365787  0.29708104  1  -1.17343  0  -0.322268  -0.550308  0  2.332708  0
O  O189  1  0.85391135  0.09825640  0.30349926  1  -1.153673  0  -0.315905  -0.537385  0  2.319366  0
O  O190  1  0.25043080  0.74987207  0.74973948  1  -1.227089  0  -0.570689  -1.030816  0  2.527333  0
O  O191  1  0.37591688  0.72183078  0.66766571  1  -1.166843  0  -0.316045  -0.537149  0  2.312899  0
O  O192  1  0.36641303  0.76098720  0.80306114  1  -1.165316  0  -0.307631  -0.53231  0  2.330309  0
O  O193  1  0.17533099  0.93316411  0.72815044  1  -1.140345  0  -0.316799  -0.540965  0  2.33601  0
O  O194  1  0.43464494  0.67097797  0.72638354  1  -1.149591  0  -0.32095  -0.547444  0  2.342341  0
O  O195  1  0.22655279  0.87613557  0.66903563  1  -1.172562  0  -0.317555  -0.540359  0  2.318358  0
O  O196  1  0.24790547  0.85694120  0.81310676  1  -1.169672  0  -0.303244  -0.538279  0  2.36242  0
O  O197  1  0.09298747  0.85672138  0.80131975  1  -1.172406  0  -0.323993  -0.553313  0  2.334204  0
O  O198  1  0.16823092  0.66108779  0.71843149  1  -1.16268  0  -0.312019  -0.542836  0  2.336978  0
O  O199  1  0.09538912  0.73995385  0.79947817  1  -1.160361  0  -0.31356  -0.525996  0  2.325195  0
O  O200  1  0.21864170  0.72042357  0.66384322  1  -1.166913  0  -0.31311  -0.543196  0  2.341538  0
O  O201  1  0.35952428  0.60175821  0.80630900  1  -1.165932  0  -0.315277  -0.528379  0  2.324485  0
O  O202  1  0.25092749  0.59096649  0.79942414  1  -1.175736  0  -0.322702  -0.552461  0  2.334584  0
O  O203  1  0.50025660  0.99972377  0.99978838  1  -1.230278  0  -0.570322  -1.028737  0  2.526201  0
O  O204  1  0.50637345  0.15582060  0.94990318  1  -1.173337  0  -0.321376  -0.548744  0  2.338932  0
O  O205  1  0.38609580  0.99767531  0.94107063  1  -1.167411  0  -0.313234  -0.543748  0  2.335777  0
O  O206  1  0.65279945  0.89128773  0.94636438  1  -1.160842  0  -0.32117  -0.54806  0  2.338796  0
O  O207  1  0.39216160  0.15360560  0.94616883  1  -1.179778  0  -0.316563  -0.539508  0  2.312605  0
O  O208  1  0.65814094  0.00378237  0.95014732  1  -1.164468  0  -0.317229  -0.538775  0  2.314154  0
O  O209  1  0.49489046  0.88785773  0.94121415  1  -1.173343  0  -0.311658  -0.542215  0  2.340346  0
O  O210  1  0.57583947  0.81506803  0.02158711  1  -1.152527  0  -0.321017  -0.547379  0  2.339413  0
O  O211  1  0.53285207  0.02953321  0.08580021  1  -1.152831  0  -0.312608  -0.544372  0  2.33338  0
O  O212  1  0.52862677  0.87276414  0.08057576  1  -1.17688  0  -0.317474  -0.540369  0  2.315934  0
O  O213  1  0.58602588  0.08551169  0.03085667  1  -1.175976  0  -0.313051  -0.542674  0  2.339531  0
O  O214  1  0.31626334  0.07730825  0.02256734  1  -1.184405  0  -0.317013  -0.539258  0  2.311792  0
O  O215  1  0.37569751  0.02404121  0.08096418  1  -1.167904  0  -0.320749  -0.547846  0  2.334898  0
O  O216  1  0.75363300  0.58237549  0.38731688  1  -1.098443  0  -0.341998  -0.477682  0  2.193036  0
O  O217  1  0.73007588  0.51302509  0.44521233  1  -1.101028  0  -0.279952  -0.439838  0  2.035281  0
O  O218  1  0.14936669  0.71295209  0.51496333  1  -1.108615  0  -0.341448  -0.477794  0  2.192186  0
O  O219  1  0.23753543  0.59230707  0.52034707  1  -1.09756  0  -0.279707  -0.43907  0  2.034974  0
O  O220  1  0.76507837  0.20415586  0.06990254  1  -1.089537  0  -0.340973  -0.477818  0  2.192807  0
O  O221  1  0.65433130  0.30203233  0.08620801  1  -1.082111  0  -0.280777  -0.440528  0  2.032192  0
O  O222  1  0.16675155  0.99823203  0.86353742  1  -1.11031  0  -0.341013  -0.477586  0  2.191752  0
O  O223  1  0.23541642  0.01888927  0.80463385  1  -1.10255  0  -0.279953  -0.440783  0  2.038569  0
O  O224  1  0.28203942  0.52677164  0.41224432  1  -1.101181  0  -0.324253  -0.388782  0  2.287966  0
O  O225  1  0.78165770  0.54459197  0.65612521  1  -1.104934  0  -0.333934  -0.39988  0  2.273034  0
O  O226  1  0.04058364  0.28083536  0.65677954  1  -1.101443  0  -0.331848  -0.397962  0  2.272015  0
O  O227  1  0.78131023  0.77899563  0.40380903  1  -1.111983  0  -0.328826  -0.392612  0  2.281433  0
O  O228  1  0.70899461  0.46686550  0.09407031  1  -1.094438  0  -0.32466  -0.388228  0  2.286283  0
O  O229  1  0.09563195  0.09888247  0.21981931  1  -1.086683  0  -0.331654  -0.396448  0  2.271589  0
O  O230  1  0.46641586  0.47424888  0.85016851  1  -1.105266  0  -0.333395  -0.39937  0  2.270026  0
O  O231  1  0.96525208  0.71933182  0.84075321  1  -1.089047  0  -0.332356  -0.398236  0  2.269242  0
