# generated using pymatgen
data_Cd3H24(C14N13)2
_symmetry_space_group_name_H-M   'P 1'
_cell_length_a   9.48749422
_cell_length_b   10.63718292
_cell_length_c   10.88201629
_cell_angle_alpha   62.15739877
_cell_angle_beta   79.49654432
_cell_angle_gamma   71.30888451
_symmetry_Int_Tables_number   1
_chemical_formula_structural   Cd3H24(C14N13)2
_chemical_formula_sum   'Cd3 H24 C28 N26'
_cell_volume   919.16662999
_cell_formula_units_Z   1
loop_
 _symmetry_equiv_pos_site_id
 _symmetry_equiv_pos_as_xyz
  1  'x, y, z'
loop_
 _atom_site_type_symbol
 _atom_site_label
 _atom_site_symmetry_multiplicity
 _atom_site_fract_x
 _atom_site_fract_y
 _atom_site_fract_z
 _atom_site_occupancy
 _atom_site_hle17_bader_spin_density
 _atom_site_hle17_ddec_charge
 _atom_site_hle17_ddec_spin_density
 _atom_site_hle17_ddec_sum_bond_order
 _atom_site_hle17_magmom
 _atom_site_hse06_10hf_bader_spin_density
 _atom_site_hse06_10hf_ddec_charge
 _atom_site_hse06_10hf_ddec_spin_density
 _atom_site_hse06_10hf_ddec_sum_bond_order
 _atom_site_hse06_10hf_magmom
 _atom_site_hse06_bader_spin_density
 _atom_site_hse06_ddec_charge
 _atom_site_hse06_ddec_spin_density
 _atom_site_hse06_ddec_sum_bond_order
 _atom_site_hse06_magmom
 _atom_site_pbe_bader_spin_density
 _atom_site_pbe_cm5_charge
 _atom_site_pbe_ddec_charge
 _atom_site_pbe_ddec_spin_density
 _atom_site_pbe_ddec_sum_bond_order
 _atom_site_pbe_magmom
Cd  Cd0  1  0.00000077  0.00000112  0.00000027  1  0  0.937198  0  2.010978  0  0  0.726926  0  2.500841  0  0  0.771359  0  2.462855  0  0  0.803166  0.694379  0  2.527421  0
Cd  Cd1  1  0.69707891  0.81494515  0.10404859  1  0  0.919165  0  1.931649  0  0  0.692307  0  2.404817  0  0  0.740436  0  2.36739  0  0  0.80575  0.658222  0  2.430112  0
Cd  Cd2  1  0.30291710  0.18505759  0.89595427  1  0  0.919159  0  1.931725  0  0  0.692353  0  2.404852  0  0  0.740482  0  2.367426  0  0  0.805698  0.658266  0  2.43015  0
H  H3  1  0.43572410  0.64998153  0.81234383  1  0  0.100421  0  0.944476  0  0  0.112163  0  1.0009  0  0  0.11465  0  1.001162  0  0  0.107356  0.110366  0  1.000985  0
H  H4  1  0.56428247  0.35001781  0.18765622  1  0  0.100387  0  0.944442  0  0  0.112115  0  1.000887  0  0  0.114604  0  1.001147  0  0  0.107334  0.110303  0  1.000989  0
H  H5  1  0.67080548  0.07839938  0.52170591  1  0  0.108578  0  0.912416  0  0  0.127442  0  0.968633  0  0  0.127853  0  0.968903  0  0  0.110906  0.127099  0  0.968528  0
H  H6  1  0.32919374  0.92160337  0.47829737  1  0  0.108562  0  0.912391  0  0  0.127445  0  0.968617  0  0  0.127858  0  0.968884  0  0  0.110879  0.127101  0  0.968513  0
H  H7  1  0.85229612  0.96839154  0.56543312  1  0  0.101257  0  0.929283  0  0  0.118781  0  0.990727  0  0  0.119879  0  0.98989  0  0  0.107941  0.117799  0  0.991766  0
H  H8  1  0.14770712  0.03161224  0.43456629  1  0  0.10127  0  0.929355  0  0  0.118812  0  0.990788  0  0  0.119894  0  0.989972  0  0  0.107924  0.117832  0  0.991826  0
H  H9  1  0.80143166  0.89225034  0.80265139  1  0  0.078543  0  0.960005  0  0  0.083451  0  1.033014  0  0  0.085895  0  1.031244  0  0  0.111053  0.081482  0  1.034625  0
H  H10  1  0.19856620  0.10775350  0.19735067  1  0  0.078629  0  0.959979  0  0  0.083523  0  1.033011  0  0  0.08599  0  1.031217  0  0  0.111087  0.081554  0  1.034623  0
H  H11  1  0.55197929  0.79382614  0.58146449  1  0  0.100623  0  0.96999  0  0  0.108538  0  1.035621  0  0  0.112267  0  1.03206  0  0  0.106389  0.105768  0  1.038256  0
H  H12  1  0.44803031  0.20616989  0.41853756  1  0  0.100686  0  0.969856  0  0  0.108569  0  1.03553  0  0  0.112293  0  1.03197  0  0  0.106398  0.105792  0  1.038173  0
H  H13  1  0.50138981  0.64684532  0.02642823  1  0  0.075266  0  0.93238  0  0  0.084824  0  0.996065  0  0  0.086621  0  0.995339  0  0  0.114539  0.08351  0  0.996528  0
H  H14  1  0.49860882  0.35315960  0.97357228  1  0  0.075337  0  0.932316  0  0  0.084873  0  0.996016  0  0  0.086681  0  0.995276  0  0  0.114561  0.083556  0  0.996483  0
H  H15  1  0.73512041  0.63113282  0.43710126  1  0  0.081078  0  0.965516  0  0  0.084407  0  1.039302  0  0  0.087466  0  1.03653  0  0  0.111816  0.081998  0  1.041678  0
H  H16  1  0.26489760  0.36885988  0.56290104  1  0  0.081029  0  0.965657  0  0  0.084408  0  1.039385  0  0  0.087448  0  1.036632  0  0  0.111792  0.081993  0  1.041767  0
H  H17  1  0.91937451  0.16721483  0.54792923  1  0  0.093435  0  0.975226  0  0  0.100688  0  1.045365  0  0  0.103573  0  1.043336  0  0  0.102125  0.098469  0  1.047048  0
H  H18  1  0.08062020  0.83278097  0.45206056  1  0  0.09342  0  0.975237  0  0  0.100669  0  1.045404  0  0  0.103557  0  1.043372  0  0  0.102087  0.09845  0  1.047089  0
H  H19  1  0.81975083  0.49225076  0.12539634  1  0  0.075526  0  0.978724  0  0  0.077943  0  1.055269  0  0  0.080163  0  1.053496  0  0  0.108396  0.076364  0  1.056366  0
H  H20  1  0.18023503  0.50776186  0.87459888  1  0  0.075601  0  0.978633  0  0  0.078013  0  1.055194  0  0  0.080238  0  1.053411  0  0  0.108417  0.076437  0  1.056291  0
H  H21  1  0.79103185  0.46558420  0.67456916  1  0  0.112016  0  0.917797  0  0  0.126041  0  0.977035  0  0  0.127382  0  0.976815  0  0  0.108017  0.125065  0  0.977209  0
H  H22  1  0.20897683  0.53440735  0.32543146  1  0  0.112007  0  0.917635  0  0  0.126022  0  0.976921  0  0  0.127367  0  0.9767  0  0  0.108021  0.125047  0  0.977095  0
H  H23  1  0.94536261  0.31066029  0.69988354  1  0  0.109801  0  0.929137  0  0  0.122049  0  0.993218  0  0  0.122692  0  0.994289  0  0  0.107108  0.12154  0  0.992583  0
H  H24  1  0.05464116  0.68932569  0.30011680  1  0  0.109785  0  0.929165  0  0  0.122062  0  0.993236  0  0  0.122704  0  0.994308  0  0  0.107153  0.121556  0  0.992601  0
H  H25  1  0.90996446  0.22746450  0.29612942  1  0  0.105967  0  0.971449  0  0  0.108724  0  1.042638  0  0  0.11247  0  1.041085  0  0  0.101887  0.10561  0  1.04451  0
H  H26  1  0.09002268  0.77254349  0.70385766  1  0  0.106  0  0.971326  0  0  0.108738  0  1.042549  0  0  0.112477  0  1.041001  0  0  0.101896  0.105629  0  1.044418  0
C  C27  1  0.51640807  0.70669718  0.80547151  1  0  -0.103708  0  3.733441  0  0  -0.114454  0  3.986029  0  0  -0.120971  0  4.008006  0  0  -0.081639  -0.110678  0  3.971853  0
C  C28  1  0.48359803  0.29329995  0.19452966  1  0  -0.103593  0  3.73343  0  0  -0.114301  0  3.985953  0  0  -0.120824  0  4.007938  0  0  -0.081571  -0.110507  0  3.971775  0
C  C29  1  0.73722848  0.26105682  0.75486901  1  0  0.324273  0  3.731785  0  0  0.308643  0  4.010376  0  0  0.317762  0  4.026932  0  0  0.218042  0.302765  0  3.998598  0
C  C30  1  0.26277749  0.73893689  0.24512826  1  0  0.324205  0  3.731754  0  0  0.308651  0  4.010294  0  0  0.31775  0  4.026875  0  0  0.218058  0.302768  0  3.998519  0
C  C31  1  0.76558097  0.95016541  0.41147509  1  0  0.301693  0  3.758275  0  0  0.291637  0  4.037531  0  0  0.299156  0  4.055157  0  0  0.207937  0.286598  0  4.025228  0
C  C32  1  0.23441854  0.04983624  0.58852866  1  0  0.301712  0  3.758379  0  0  0.291708  0  4.037608  0  0  0.299232  0  4.055225  0  0  0.207957  0.286667  0  4.02531  0
C  C33  1  0.74471708  0.96686753  0.54277111  1  0  -0.222474  0  3.730431  0  0  -0.271017  0  3.968784  0  0  -0.272094  0  3.981618  0  0  -0.13857  -0.270093  0  3.959921  0
C  C34  1  0.25528489  0.03313299  0.45723187  1  0  -0.222505  0  3.730469  0  0  -0.271115  0  3.968806  0  0  -0.272183  0  3.981644  0  0  -0.138569  -0.270192  0  3.959948  0
C  C35  1  0.68198983  0.85976014  0.67265381  1  0  0.072461  0  3.709023  0  0  0.096125  0  3.94798  0  0  0.091796  0  3.973114  0  0  0.00065  0.098569  0  3.93141  0
C  C36  1  0.31801427  0.14024040  0.32735066  1  0  0.072433  0  3.708957  0  0  0.096189  0  3.947866  0  0  0.091861  0  3.972992  0  0  0.000768  0.098635  0  3.931296  0
C  C37  1  0.71836417  0.84280805  0.79923143  1  0  0.074943  0  3.687139  0  0  0.037138  0  3.93414  0  0  0.042997  0  3.953539  0  0  0.042779  0.03341  0  3.921261  0
C  C38  1  0.28163622  0.15719032  0.20077556  1  0  0.074998  0  3.686885  0  0  0.037165  0  3.933896  0  0  0.042996  0  3.953303  0  0  0.042752  0.033435  0  3.921023  0
C  C39  1  0.58047326  0.78663083  0.67751058  1  0  -0.055372  0  3.678331  0  0  -0.08327  0  3.92507  0  0  -0.081056  0  3.943624  0  0  -0.067489  -0.08443  0  3.912818  0
C  C40  1  0.41953390  0.21336634  0.32249224  1  0  -0.055493  0  3.678345  0  0  -0.083408  0  3.925103  0  0  -0.081184  0  3.94365  0  0  -0.067595  -0.084561  0  3.912847  0
C  C41  1  0.55333799  0.70332470  0.92516291  1  0  0.128885  0  3.711004  0  0  0.089828  0  3.974074  0  0  0.096505  0  3.993141  0  0  0.044035  0.085557  0  3.961105  0
C  C42  1  0.44666280  0.29668019  0.07483636  1  0  0.128848  0  3.711096  0  0  0.089833  0  3.97413  0  0  0.096501  0  3.993194  0  0  0.044026  0.085566  0  3.961156  0
C  C43  1  0.77747925  0.53818944  0.41047779  1  0  0.073459  0  3.67275  0  0  0.036854  0  3.91789  0  0  0.043238  0  3.934957  0  0  0.042536  0.032643  0  3.906542  0
C  C44  1  0.22252502  0.46180654  0.58952144  1  0  0.073536  0  3.672596  0  0  0.036907  0  3.917689  0  0  0.043297  0  3.934789  0  0  0.042619  0.032702  0  3.90634  0
C  C45  1  0.82990451  0.39453235  0.51241461  1  0  0.068384  0  3.727486  0  0  0.094388  0  3.96095  0  0  0.090124  0  3.985746  0  0  -0.000825  0.097093  0  3.943946  0
C  C46  1  0.17010007  0.60546250  0.48758419  1  0  0.068357  0  3.727421  0  0  0.09439  0  3.960888  0  0  0.09013  0  3.985676  0  0  -0.000873  0.097093  0  3.94388  0
C  C47  1  0.87839030  0.28094478  0.47055128  1  0  -0.062888  0  3.694759  0  0  -0.089301  0  3.937571  0  0  -0.087318  0  3.957786  0  0  -0.072794  -0.09014  0  3.923616  0
C  C48  1  0.12160651  0.71905110  0.52944274  1  0  -0.063001  0  3.695156  0  0  -0.089426  0  3.93795  0  0  -0.087444  0  3.958167  0  0  -0.072763  -0.090266  0  3.923998  0
C  C49  1  0.82311563  0.46132559  0.23593721  1  0  0.118154  0  3.706233  0  0  0.085529  0  3.955056  0  0  0.091822  0  3.974696  0  0  0.040385  0.081634  0  3.941259  0
C  C50  1  0.17687757  0.53868365  0.76405661  1  0  0.118005  0  3.706302  0  0  0.085374  0  3.955121  0  0  0.091668  0  3.974757  0  0  0.040337  0.081476  0  3.941324  0
C  C51  1  0.83108996  0.36232898  0.66307174  1  0  -0.22803  0  3.71832  0  0  -0.273522  0  3.954947  0  0  -0.27497  0  3.966598  0  0  -0.141616  -0.272282  0  3.946598  0
C  C52  1  0.16891618  0.63766804  0.33692395  1  0  -0.227995  0  3.718188  0  0  -0.273544  0  3.954825  0  0  -0.27499  0  3.966485  0  0  -0.141699  -0.272299  0  3.946471  0
C  C53  1  0.87498586  0.31412106  0.33112870  1  0  -0.11367  0  3.73588  0  0  -0.120444  0  3.982469  0  0  -0.127985  0  4.005361  0  0  -0.085873  -0.11531  0  3.966929  0
C  C54  1  0.12500185  0.68588476  0.66886115  1  0  -0.113564  0  3.736024  0  0  -0.120309  0  3.982584  0  0  -0.127844  0  4.005485  0  0  -0.085889  -0.115182  0  3.967043  0
N  N55  1  0.77481794  0.57083660  0.27546491  1  0  -0.314923  0  3.288782  0  0  -0.234148  0  3.554035  0  0  -0.252974  0  3.574082  0  0  -0.332561  -0.221136  0  3.540227  0
N  N56  1  0.22517933  0.42916943  0.72453529  1  0  -0.314865  0  3.288725  0  0  -0.234113  0  3.554024  0  0  -0.252939  0  3.574069  0  0  -0.332535  -0.221097  0  3.540199  0
N  N57  1  0.74256787  0.90773336  0.24531851  1  0  -0.129681  0  3.233524  0  0  -0.078575  0  3.530712  0  0  -0.086811  0  3.547582  0  0  -0.129369  -0.07224  0  3.518866  0
N  N58  1  0.25743009  0.09226608  0.75468652  1  0  -0.129721  0  3.233511  0  0  -0.078627  0  3.530721  0  0  -0.086858  0  3.547587  0  0  -0.129433  -0.072293  0  3.518873  0
N  N59  1  0.85113450  0.97311022  0.20980394  1  0  -0.114372  0  3.206912  0  0  -0.068868  0  3.501694  0  0  -0.074651  0  3.51767  0  0  -0.120056  -0.064264  0  3.490461  0
N  N60  1  0.14886484  0.02688808  0.79019957  1  0  -0.114351  0  3.206633  0  0  -0.068839  0  3.501417  0  0  -0.074626  0  3.517395  0  0  -0.120014  -0.064235  0  3.490181  0
N  N61  1  0.86876748  0.00148379  0.31225505  1  0  -0.310605  0  2.94249  0  0  -0.296394  0  3.224885  0  0  -0.304638  0  3.237814  0  0  -0.22494  -0.290318  0  3.216349  0
N  N62  1  0.13123207  0.99851778  0.68774505  1  0  -0.310613  0  2.942379  0  0  -0.296427  0  3.224768  0  0  -0.304668  0  3.237692  0  0  -0.224967  -0.290352  0  3.216236  0
N  N63  1  0.68587895  0.89160318  0.37208906  1  0  -0.303362  0  2.948482  0  0  -0.288585  0  3.224431  0  0  -0.296732  0  3.238611  0  0  -0.222702  -0.282711  0  3.214678  0
N  N64  1  0.31412116  0.10839626  0.62791564  1  0  -0.303323  0  2.948601  0  0  -0.288555  0  3.224541  0  0  -0.296703  0  3.238716  0  0  -0.222651  -0.28268  0  3.214787  0
N  N65  1  0.59406420  0.28458639  0.73330680  1  0  -0.292737  0  2.879035  0  0  -0.286046  0  3.151096  0  0  -0.293001  0  3.163646  0  0  -0.227745  -0.281389  0  3.14264  0
N  N66  1  0.40593900  0.71540959  0.26669260  1  0  -0.29277  0  2.87891  0  0  -0.286097  0  3.150929  0  0  -0.293045  0  3.163481  0  0  -0.227754  -0.28144  0  3.142473  0
N  N67  1  0.78360861  0.13295689  0.86849953  1  0  -0.317372  0  3.135164  0  0  -0.264817  0  3.419537  0  0  -0.279819  0  3.435835  0  0  -0.234754  -0.253998  0  3.407829  0
N  N68  1  0.21638967  0.86704142  0.13150415  1  0  -0.317213  0  3.135021  0  0  -0.264697  0  3.419394  0  0  -0.279693  0  3.435699  0  0  -0.234669  -0.25388  0  3.407689  0
N  N69  1  0.66656374  0.07664992  0.91819704  1  0  -0.111387  0  3.127015  0  0  -0.078209  0  3.416439  0  0  -0.083017  0  3.433303  0  0  -0.111258  -0.07431  0  3.40402  0
N  N70  1  0.33343041  0.92335173  0.08180663  1  0  -0.111505  0  3.126982  0  0  -0.078338  0  3.416431  0  0  -0.083143  0  3.433291  0  0  -0.111368  -0.074438  0  3.404012  0
N  N71  1  0.55426162  0.16764412  0.83623764  1  0  -0.103321  0  3.212244  0  0  -0.052241  0  3.515736  0  0  -0.05908  0  3.530113  0  0  -0.118821  -0.04711  0  3.505528  0
N  N72  1  0.44573607  0.83235635  0.16376327  1  0  -0.103233  0  3.21208  0  0  -0.052132  0  3.515553  0  0  -0.058974  0  3.529928  0  0  -0.118777  -0.047002  0  3.505343  0
N  N73  1  0.94919137  0.79269069  0.01901293  1  0  -0.610658  0  2.785755  0  0  -0.560667  0  3.099418  0  0  -0.586929  0  3.105959  0  0  -0.342601  -0.543035  0  3.095439  0
N  N74  1  0.05081134  0.20730311  0.98098849  1  0  -0.611158  0  2.785243  0  0  -0.561138  0  3.098922  0  0  -0.58742  0  3.105471  0  0  -0.34285  -0.543498  0  3.094944  0
N  N75  1  0.04882281  0.68129462  0.03982142  1  0  0.405947  0  4.221005  0  0  0.439915  0  4.499436  0  0  0.455916  0  4.527972  0  0  0.080357  0.429154  0  4.480403  0
N  N76  1  0.95116176  0.31871477  0.96017919  1  0  0.406223  0  4.220836  0  0  0.440133  0  4.49923  0  0  0.456135  0  4.527757  0  0  0.080481  0.429371  0  4.480207  0
N  N77  1  0.14574886  0.57440763  0.05893813  1  0  -0.381963  0  2.377031  0  0  -0.388573  0  2.599213  0  0  -0.392722  0  2.609114  0  0  -0.196706  -0.385843  0  2.592365  0
N  N78  1  0.85425309  0.42558505  0.94106302  1  0  -0.381778  0  2.377665  0  0  -0.388307  0  2.599775  0  0  -0.392433  0  2.609662  0  0  -0.196519  -0.385593  0  2.592935  0
N  N79  1  0.65426399  0.76938096  0.92187953  1  0  -0.321966  0  3.29193  0  0  -0.241808  0  3.559933  0  0  -0.261638  0  3.581545  0  0  -0.331272  -0.228672  0  3.54491  0
N  N80  1  0.34573552  0.23062068  0.07812422  1  0  -0.322095  0  3.291814  0  0  -0.241982  0  3.559887  0  0  -0.261809  0  3.581503  0  0  -0.331329  -0.228848  0  3.544875  0
