# generated using pymatgen
data_Zn4H19C50S2Br(O8F3)2
_symmetry_space_group_name_H-M   'P 1'
_cell_length_a   7.29111815
_cell_length_b   27.73575289
_cell_length_c   30.29861919
_cell_angle_alpha   89.86131841
_cell_angle_beta   90.08257804
_cell_angle_gamma   90.04610287
_symmetry_Int_Tables_number   1
_chemical_formula_structural   Zn4H19C50S2Br(O8F3)2
_chemical_formula_sum   'Zn8 H38 C100 S4 Br2 O32 F12'
_cell_volume   6127.10142390
_cell_formula_units_Z   2
loop_
 _symmetry_equiv_pos_site_id
 _symmetry_equiv_pos_as_xyz
  1  'x, y, z'
loop_
 _atom_site_type_symbol
 _atom_site_label
 _atom_site_symmetry_multiplicity
 _atom_site_fract_x
 _atom_site_fract_y
 _atom_site_fract_z
 _atom_site_occupancy
 _atom_site_pbe_bader_charge
 _atom_site_pbe_bader_spin_density
 _atom_site_pbe_cm5_charge
 _atom_site_pbe_ddec_charge
 _atom_site_pbe_ddec_spin_density
 _atom_site_pbe_ddec_sum_bond_order
 _atom_site_pbe_magmom
Zn  Zn0  1  0.70554364  0.49561863  0.50020196  1  1.313928  0  0.724428  0.967103  0  2.136027  0
Zn  Zn1  1  0.33432261  0.49878359  0.50006772  1  1.322497  0  0.729505  0.969942  0  2.146234  0
Zn  Zn2  1  0.29715930  0.49745794  0.00005591  1  1.310463  0  0.72485  0.967792  0  2.134056  0
Zn  Zn3  1  0.66852104  0.50065891  0.00021287  1  1.322017  0  0.728955  0.969131  0  2.146395  0
Zn  Zn4  1  0.28663625  0.04672969  0.50028287  1  1.312341  0  0.725709  0.96856  0  2.139559  0
Zn  Zn5  1  0.65794947  0.04570101  0.50025114  1  1.322937  0  0.728823  0.966949  0  2.145569  0
Zn  Zn6  1  0.71077706  0.04872570  0.00042154  1  1.31525  0  0.725981  0.969044  0  2.136017  0
Zn  Zn7  1  0.34021372  0.04739431  0.00008497  1  1.321194  0  0.728886  0.967138  0  2.145699  0
H  H8  1  0.81454567  0.50489489  0.27185177  1  0.046002  0  0.107275  0.126127  0  1.012888  0
H  H9  1  0.18746051  0.50465068  0.22839382  1  0.088524  0  0.107379  0.126324  0  1.012442  0
H  H10  1  0.72127728  0.49404278  0.12851814  1  0.135403  0  0.112425  0.125424  0  0.993646  0
H  H11  1  0.77473021  0.49362375  0.20809872  1  0.077977  0  0.101057  0.101874  0  1.02531  0
H  H12  1  0.28096142  0.49284887  0.37174988  1  0.129033  0  0.112487  0.125522  0  0.992627  0
H  H13  1  0.22737955  0.49320695  0.29217480  1  0.036276  0  0.100897  0.101714  0  1.024784  0
H  H14  1  0.81520973  0.50393432  0.72862043  1  0.080043  0  0.10739  0.126192  0  1.013801  0
H  H15  1  0.18700368  0.50338327  0.77158707  1  0.091746  0  0.107245  0.125915  0  1.013686  0
H  H16  1  0.72150063  0.49681509  0.87192932  1  0.125197  0  0.11259  0.126119  0  0.992816  0
H  H17  1  0.77523864  0.49690618  0.79247096  1  0.068461  0  0.100637  0.10139  0  1.026233  0
H  H18  1  0.28117809  0.49470922  0.62833358  1  0.127975  0  0.112305  0.124876  0  0.993076  0
H  H19  1  0.22727855  0.49561355  0.70778660  1  0.035957  0  0.10096  0.101912  0  1.025929  0
H  H20  1  0.81068797  0.21608500  0.50073735  1  0.144982  0  0.11454  0.138069  0  0.994061  0
H  H21  1  0.79024464  0.73257581  0.50007260  1  0.087985  0  0.107915  0.126413  0  1.012696  0
H  H22  1  0.21214261  0.81101856  0.50014619  1  0.053506  0  0.107991  0.126507  0  1.012812  0
H  H23  1  0.81839065  0.89155092  0.50000184  1  0.123376  0  0.11014  0.118913  0  1.000959  0
H  H24  1  0.80582796  0.80305754  0.49997473  1  0.026485  0  0.099982  0.099674  0  1.022831  0
H  H25  1  0.18307881  0.65251456  0.50006438  1  0.12993  0  0.110112  0.118648  0  1.003439  0
H  H26  1  0.19665095  0.74094685  0.50010184  1  0.078783  0  0.099793  0.099415  0  1.023677  0
H  H27  1  0.18987626  0.21829336  0.00042860  1  0.148081  0  0.11428  0.137876  0  0.994743  0
H  H28  1  0.21401415  0.73422661  0.99329403  1  0.067508  0  0.108423  0.1273  0  1.010059  0
H  H29  1  0.78835340  0.81307126  0.99225195  1  0.105567  0  0.10873  0.127792  0  1.009426  0
H  H30  1  0.18391860  0.89284945  0.00639232  1  0.127676  0  0.110441  0.118932  0  1.000639  0
H  H31  1  0.19835836  0.80423237  0.00735766  1  0.05596  0  0.100041  0.100468  0  1.019708  0
H  H32  1  0.82009200  0.65464632  0.00490463  1  0.122187  0  0.110504  0.119776  0  0.998787  0
H  H33  1  0.80502813  0.74320372  0.00610156  1  0.070256  0  0.099789  0.099998  0  1.020641  0
H  H34  1  0.17925080  0.04479207  0.27147594  1  0.09768  0  0.107541  0.126815  0  1.013415  0
H  H35  1  0.80967009  0.04495983  0.22948559  1  0.078688  0  0.107367  0.126343  0  1.014582  0
H  H36  1  0.27870646  0.04840789  0.12802084  1  0.125556  0  0.112377  0.125133  0  0.993393  0
H  H37  1  0.22173497  0.04722051  0.20732121  1  0.057547  0  0.100674  0.101463  0  1.026869  0
H  H38  1  0.71234901  0.04683046  0.37240097  1  0.129848  0  0.11245  0.125881  0  0.9929  0
H  H39  1  0.76764530  0.04667223  0.29306076  1  0.060673  0  0.100662  0.101227  0  1.027383  0
H  H40  1  0.18410925  0.03822899  0.72908540  1  0.066599  0  0.10736  0.126476  0  1.013306  0
H  H41  1  0.81373995  0.03797102  0.77151019  1  0.083473  0  0.107387  0.126854  0  1.012921  0
H  H42  1  0.28297572  0.04860411  0.87227289  1  0.147045  0  0.11235  0.125136  0  0.99292  0
H  H43  1  0.22667127  0.04718929  0.79289843  1  0.074494  0  0.101084  0.10224  0  1.025618  0
H  H44  1  0.71547814  0.04769081  0.62830507  1  0.118102  0  0.112573  0.125751  0  0.992463  0
H  H45  1  0.77138969  0.04689332  0.70772066  1  0.04327  0  0.100989  0.101728  0  1.025819  0
C  C46  1  0.46102857  0.58855146  0.50001269  1  1.574866  0  0.219207  0.6199  0  4.144671  0
C  C47  1  0.58881028  0.49715043  0.41694692  1  1.581149  0  0.221744  0.625869  0  4.128191  0
C  C48  1  0.44205356  0.40667594  0.50022451  1  1.555358  0  0.210594  0.621097  0  4.165347  0
C  C49  1  0.58924348  0.49724461  0.58336479  1  1.521892  0  0.221443  0.625686  0  4.126893  0
C  C50  1  0.54313429  0.59040531  0.99996311  1  1.551667  0  0.219522  0.620062  0  4.141465  0
C  C51  1  0.41365210  0.49851156  0.08329560  1  1.508473  0  0.222168  0.625662  0  4.12827  0
C  C52  1  0.56128714  0.40854557  0.00019804  1  1.559152  0  0.21085  0.621509  0  4.166306  0
C  C53  1  0.41348891  0.49890267  0.91690337  1  1.517732  0  0.221838  0.62406  0  4.127955  0
C  C54  1  0.53884986  0.95528010  0.50006438  1  1.521223  0  0.218127  0.618706  0  4.141714  0
C  C55  1  0.40315336  0.04642355  0.41704153  1  1.581652  0  0.221963  0.625363  0  4.129402  0
C  C56  1  0.54095262  0.13714313  0.50025456  1  1.582746  0  0.212939  0.610931  0  4.178294  0
C  C57  1  0.40622392  0.04539499  0.58357004  1  1.531502  0  0.221567  0.625339  0  4.129237  0
C  C58  1  0.46084589  0.95697103  0.00053163  1  1.567703  0  0.219157  0.619653  0  4.14263  0
C  C59  1  0.58924822  0.04835062  0.08369662  1  1.536843  0  0.222047  0.625723  0  4.126877  0
C  C60  1  0.45837283  0.13905894  0.99961084  1  1.578936  0  0.212458  0.61128  0  4.176398  0
C  C61  1  0.59266733  0.04656365  0.91698906  1  1.579477  0  0.221496  0.623681  0  4.128047  0
C  C62  1  0.57377949  0.49774551  0.36782729  1  -0.028186  0  -0.023321  -0.15024  0  3.948174  0
C  C63  1  0.42843764  0.49859285  0.13242535  1  0.022953  0  -0.02397  -0.151352  0  3.950125  0
C  C64  1  0.71971023  0.50089842  0.33789936  1  0.427802  0  0.109454  0.289804  0  4.044146  0
C  C65  1  0.69314880  0.50172171  0.29249285  1  0.054378  0  -0.099806  -0.262415  0  3.96503  0
C  C66  1  0.28242791  0.50126423  0.16235139  1  0.470464  0  0.110055  0.290745  0  4.043372  0
C  C67  1  0.30894042  0.50177172  0.20776048  1  -0.052918  0  -0.099876  -0.262374  0  3.965249  0
C  C68  1  0.60535106  0.49614079  0.15102643  1  -0.004364  0  -0.074553  -0.052926  0  3.968225  0
C  C69  1  0.63422322  0.49618779  0.19619625  1  -0.043039  0  -0.092975  -0.145488  0  3.985559  0
C  C70  1  0.39684390  0.49529485  0.34924253  1  0.088472  0  -0.074325  -0.0526  0  3.96686  0
C  C71  1  0.36791019  0.49573747  0.30407503  1  -0.055535  0  -0.092888  -0.146225  0  3.98534  0
C  C72  1  0.51577803  0.49894739  0.27433506  1  0.005444  0  0.004117  0.106471  0  3.982429  0
C  C73  1  0.48632448  0.49907149  0.22593293  1  0.02963  0  0.003594  0.10417  0  3.984298  0
C  C74  1  0.57426560  0.49816323  0.63246836  1  0.013677  0  -0.023191  -0.15029  0  3.94797  0
C  C75  1  0.42832183  0.49937931  0.86778231  1  0.021394  0  -0.023803  -0.149801  0  3.94908  0
C  C76  1  0.72027048  0.50063939  0.66251434  1  0.457048  0  0.109718  0.290893  0  4.043929  0
C  C77  1  0.69359227  0.50159041  0.70788851  1  -0.061316  0  -0.099915  -0.262916  0  3.964456  0
C  C78  1  0.28219351  0.50111935  0.83772173  1  0.463479  0  0.11055  0.290778  0  4.042363  0
C  C79  1  0.30874185  0.50162813  0.79232618  1  -0.052924  0  -0.099649  -0.261872  0  3.964177  0
C  C80  1  0.60542617  0.49814727  0.84932958  1  -0.003999  0  -0.07456  -0.053899  0  3.967585  0
C  C81  1  0.63441638  0.49838051  0.80418613  1  -0.027936  0  -0.092675  -0.145519  0  3.982919  0
C  C82  1  0.39716035  0.49663780  0.65092354  1  0.097621  0  -0.073943  -0.05132  0  3.965793  0
C  C83  1  0.36806069  0.49733329  0.69605666  1  -0.054502  0  -0.093747  -0.147492  0  3.985532  0
C  C84  1  0.51599074  0.49980438  0.72591953  1  0.071794  0  0.004386  0.106822  0  3.980422  0
C  C85  1  0.48636424  0.50007838  0.77430158  1  0.034012  0  0.003868  0.105397  0  3.979765  0
C  C86  1  0.31755262  0.31801074  0.49997061  1  -0.098847  0  -0.031824  0.050719  0  4.03691  0
C  C87  1  0.66517752  0.22474176  0.50050344  1  0.085123  0  -0.086809  -0.130089  0  3.952838  0
C  C88  1  0.45002383  0.35374789  0.50027862  1  -0.117009  0  -0.030356  -0.165245  0  3.948749  0
C  C89  1  0.52882394  0.19005928  0.50022871  1  -0.211419  0  -0.019956  -0.104832  0  3.947419  0
C  C90  1  0.58743262  0.27147911  0.50046338  1  -0.119374  0  -0.021658  -0.001327  0  4.062896  0
C  C91  1  0.39409075  0.27121384  0.50008922  1  -0.156062  0  -0.030962  -0.071863  0  4.096985  0
C  C92  1  0.47423648  0.64213365  0.50000577  1  -0.026198  0  -0.022037  -0.146016  0  3.950753  0
C  C93  1  0.52711357  0.90169347  0.50005676  1  0.065328  0  -0.021992  -0.145394  0  3.947047  0
C  C94  1  0.64266622  0.66692773  0.50000673  1  0.464989  0  0.112557  0.295789  0  4.028027  0
C  C95  1  0.65361543  0.71681359  0.50003297  1  0.07495  0  -0.100471  -0.263092  0  3.978284  0
C  C96  1  0.35893492  0.87674236  0.50011424  1  0.372242  0  0.112051  0.296049  0  4.027336  0
C  C97  1  0.34860709  0.82687579  0.50011577  1  0.152221  0  -0.099975  -0.26286  0  3.980256  0
C  C98  1  0.68624285  0.87310969  0.50001542  1  0.019986  0  -0.074331  -0.057945  0  3.97306  0
C  C99  1  0.67756902  0.82309199  0.50001096  1  -0.033334  0  -0.09398  -0.14733  0  3.978091  0
C  C100  1  0.31544189  0.67082817  0.50004475  1  -0.054747  0  -0.073759  -0.055774  0  3.975415  0
C  C101  1  0.32471100  0.72083052  0.50006589  1  0.001345  0  -0.094309  -0.148015  0  3.979002  0
C  C102  1  0.49461634  0.74524375  0.50005217  1  -0.090436  0  0.003242  0.10431  0  3.986295  0
C  C103  1  0.50785437  0.79856566  0.50006016  1  -0.023379  0  0.00378  0.105996  0  3.986329  0
C  C104  1  0.68481706  0.31978730  0.99964108  1  -0.06777  0  -0.031572  0.050647  0  4.039349  0
C  C105  1  0.33555594  0.22678884  0.00023775  1  0.008965  0  -0.086803  -0.129942  0  3.954239  0
C  C106  1  0.55292766  0.35562251  0.00014257  1  -0.067602  0  -0.030452  -0.165707  0  3.951551  0
C  C107  1  0.47127653  0.19199574  0.99979755  1  -0.214074  0  -0.020253  -0.105718  0  3.946457  0
C  C108  1  0.41415368  0.27345949  0.00031490  1  -0.181312  0  -0.021434  -0.001388  0  4.063996  0
C  C109  1  0.60745835  0.27304814  0.99978789  1  -0.089538  0  -0.031002  -0.071706  0  4.096925  0
C  C110  1  0.52980361  0.64398546  0.99964028  1  0.043223  0  -0.021737  -0.144393  0  3.945545  0
C  C111  1  0.47365968  0.90338595  0.99999804  1  -0.020311  0  -0.02231  -0.145964  0  3.947827  0
C  C112  1  0.36148305  0.66861562  0.99668192  1  0.397835  0  0.112201  0.295644  0  4.025992  0
C  C113  1  0.35004152  0.71850157  0.99652378  1  0.130657  0  -0.100413  -0.263945  0  3.979461  0
C  C114  1  0.64162618  0.87873225  0.99634818  1  0.447811  0  0.11165  0.295087  0  4.025859  0
C  C115  1  0.65273194  0.82884565  0.99606466  1  0.001029  0  -0.100552  -0.263716  0  3.978653  0
C  C116  1  0.31569730  0.87457783  0.00356347  1  -0.06068  0  -0.074194  -0.057032  0  3.97772  0
C  C117  1  0.32522152  0.82456797  0.00377651  1  0.032633  0  -0.094254  -0.149171  0  3.976971  0
C  C118  1  0.68787936  0.67284171  0.00263313  1  -0.079685  0  -0.073894  -0.057522  0  3.971446  0
C  C119  1  0.67802599  0.72284944  0.00297088  1  0.001156  0  -0.094855  -0.150139  0  3.979441  0
C  C120  1  0.50826438  0.74703507  0.99986167  1  -0.010656  0  0.003654  0.10619  0  3.987307  0
C  C121  1  0.49463566  0.80033373  0.99995280  1  -0.022687  0  0.003252  0.105377  0  3.985454  0
C  C122  1  0.41901467  0.04600987  0.36793875  1  0.091901  0  -0.023939  -0.150799  0  3.949671  0
C  C123  1  0.57197516  0.04752337  0.13278956  1  0.021323  0  -0.023002  -0.150615  0  3.949065  0
C  C124  1  0.27343921  0.04542335  0.33769123  1  0.409574  0  0.109981  0.291562  0  4.042112  0
C  C125  1  0.30084871  0.04523829  0.29232305  1  -0.048963  0  -0.100553  -0.263755  0  3.964923  0
C  C126  1  0.71687437  0.04650208  0.16321237  1  0.410056  0  0.109296  0.290722  0  4.045731  0
C  C127  1  0.68848376  0.04574651  0.20852108  1  0.034319  0  -0.099979  -0.263097  0  3.965325  0
C  C128  1  0.39404382  0.04765331  0.15085740  1  -0.006033  0  -0.07457  -0.052259  0  3.96553  0
C  C129  1  0.36318388  0.04693465  0.19593443  1  -0.031315  0  -0.093601  -0.146557  0  3.981662  0
C  C130  1  0.59656443  0.04634421  0.34968976  1  -0.10345  0  -0.074201  -0.053443  0  3.967268  0
C  C131  1  0.62642144  0.04621859  0.30459049  1  0.049903  0  -0.093477  -0.145933  0  3.983686  0
C  C132  1  0.47895784  0.04572295  0.27451352  1  -0.027494  0  0.00488  0.106464  0  3.979337  0
C  C133  1  0.51008921  0.04603701  0.22617034  1  0.064959  0  0.004395  0.106897  0  3.977789  0
C  C134  1  0.42245599  0.04425606  0.63268615  1  0.020656  0  -0.023523  -0.150683  0  3.948833  0
C  C135  1  0.57600098  0.04497821  0.86788477  1  0.027189  0  -0.022983  -0.14863  0  3.945135  0
C  C136  1  0.27732022  0.04165948  0.66288265  1  0.486234  0  0.109928  0.290597  0  4.043512  0
C  C137  1  0.30521190  0.04070008  0.70825334  1  0.007252  0  -0.100153  -0.263096  0  3.963189  0
C  C138  1  0.72089759  0.04197613  0.83768193  1  0.437535  0  0.109397  0.289666  0  4.043016  0
C  C139  1  0.69278028  0.04070951  0.79233132  1  0.01962  0  -0.09962  -0.263945  0  3.963564  0
C  C140  1  0.39831860  0.04644579  0.84960135  1  -0.001793  0  -0.074283  -0.052218  0  3.965639  0
C  C141  1  0.36775933  0.04543957  0.80450632  1  -0.083124  0  -0.093359  -0.147289  0  3.983926  0
C  C142  1  0.60004477  0.04578575  0.65098759  1  -0.006039  0  -0.074621  -0.053069  0  3.965301  0
C  C143  1  0.63034707  0.04511830  0.69610544  1  0.019052  0  -0.093685  -0.146589  0  3.983122  0
C  C144  1  0.48332502  0.04264356  0.72611822  1  -0.033956  0  0.004457  0.106455  0  3.979844  0
C  C145  1  0.51466711  0.04272161  0.77446942  1  -0.000453  0  0.004217  0.107201  0  3.978254  0
S  S146  1  0.66934165  0.32959842  0.50082243  1  0.295468  0  0.078703  0.150873  0  3.087353  0
S  S147  1  0.30694035  0.21369243  0.49990032  1  0.302588  0  0.083106  0.136709  0  2.796628  0
S  S148  1  0.33321296  0.33162982  0.00087895  1  0.280275  0  0.078459  0.150961  0  3.087728  0
S  S149  1  0.69357458  0.21546583  0.99943046  1  0.293384  0  0.083046  0.137157  0  2.79686  0
Br  Br150  1  0.06560465  0.32955875  0.49945848  1  0.023388  0  0.050977  -0.027632  0  1.758202  0
Br  Br151  1  0.93696799  0.33112975  0.99874536  1  0.02595  0  0.051065  -0.027457  0  1.756772  0
O  O152  1  0.61038619  0.56520078  0.50002600  1  -1.163546  0  -0.312509  -0.57216  0  2.39452  0
O  O153  1  0.29971619  0.56927187  0.50001419  1  -1.135077  0  -0.316351  -0.530205  0  2.21011  0
O  O154  1  0.43631173  0.49769425  0.43732229  1  -1.180464  0  -0.314515  -0.575754  0  2.370091  0
O  O155  1  0.74701709  0.49602837  0.43580724  1  -1.112274  0  -0.314592  -0.527754  0  2.225599  0
O  O156  1  0.28674139  0.42867177  0.50009892  1  -1.137139  0  -0.315409  -0.523401  0  2.246712  0
O  O157  1  0.59929170  0.42703695  0.50030731  1  -1.172945  0  -0.318148  -0.574247  0  2.364046  0
O  O158  1  0.74742679  0.49608445  0.56460994  1  -1.111445  0  -0.314795  -0.527917  0  2.223945  0
O  O159  1  0.43674473  0.49759342  0.56287530  1  -1.181716  0  -0.314256  -0.575822  0  2.369808  0
O  O160  1  0.39378972  0.56700767  0.00027777  1  -1.16911  0  -0.313288  -0.573239  0  2.3932  0
O  O161  1  0.70437406  0.57114429  0.00004250  1  -1.125015  0  -0.316144  -0.530288  0  2.207593  0
O  O162  1  0.56624309  0.49931161  0.06296075  1  -1.179538  0  -0.314566  -0.57506  0  2.369586  0
O  O163  1  0.25548565  0.49754634  0.06440206  1  -1.105394  0  -0.314604  -0.527226  0  2.225601  0
O  O164  1  0.71667129  0.43057971  0.00019224  1  -1.120248  0  -0.315407  -0.523281  0  2.246496  0
O  O165  1  0.40417961  0.42889704  0.00028331  1  -1.173485  0  -0.318418  -0.57504  0  2.363974  0
O  O166  1  0.25534197  0.49778028  0.93569774  1  -1.107705  0  -0.314562  -0.526961  0  2.225222  0
O  O167  1  0.56602087  0.49956986  0.93737395  1  -1.184582  0  -0.314231  -0.574598  0  2.368759  0
O  O168  1  0.38834438  0.97813216  0.50016142  1  -1.169751  0  -0.31302  -0.572991  0  2.401639  0
O  O169  1  0.69896355  0.97518306  0.49999215  1  -1.114454  0  -0.315708  -0.529761  0  2.203747  0
O  O170  1  0.55554961  0.04680710  0.43757889  1  -1.181865  0  -0.315075  -0.576344  0  2.3757  0
O  O171  1  0.24479806  0.04642978  0.43573331  1  -1.118574  0  -0.314792  -0.528281  0  2.221895  0
O  O172  1  0.69883079  0.11636093  0.50016227  1  -1.128224  0  -0.317222  -0.520248  0  2.193775  0
O  O173  1  0.38598591  0.11566241  0.50038431  1  -1.176757  0  -0.318524  -0.575051  0  2.373542  0
O  O174  1  0.24766483  0.04571516  0.56489670  1  -1.118431  0  -0.314677  -0.528028  0  2.225714  0
O  O175  1  0.55847977  0.04608391  0.56305602  1  -1.178565  0  -0.314598  -0.576195  0  2.37298  0
O  O176  1  0.61105937  0.98003379  0.00147782  1  -1.168629  0  -0.313906  -0.573696  0  2.403623  0
O  O177  1  0.30045501  0.97662262  0.00020285  1  -1.133824  0  -0.315876  -0.530015  0  2.201213  0
O  O178  1  0.43723025  0.04864779  0.06296254  1  -1.182537  0  -0.31541  -0.576243  0  2.374772  0
O  O179  1  0.74807479  0.04872113  0.06528727  1  -1.113551  0  -0.314707  -0.528581  0  2.222294  0
O  O180  1  0.30044734  0.11827516  0.99949462  1  -1.123345  0  -0.316591  -0.520749  0  2.192158  0
O  O181  1  0.61326372  0.11759089  0.99957548  1  -1.184363  0  -0.318478  -0.574846  0  2.375129  0
O  O182  1  0.75110753  0.04721451  0.93570603  1  -1.117572  0  -0.313832  -0.527362  0  2.220749  0
O  O183  1  0.44038174  0.04726281  0.93748928  1  -1.18083  0  -0.315106  -0.575761  0  2.375951  0
F  F184  1  0.89589246  0.50374056  0.35246637  1  -0.625477  0  -0.097368  -0.139244  0  1.346685  0
F  F185  1  0.10622284  0.50395974  0.14778102  1  -0.626007  0  -0.09779  -0.139707  0  1.346031  0
F  F186  1  0.89671123  0.50251295  0.64809247  1  -0.627599  0  -0.09741  -0.139876  0  1.346882  0
F  F187  1  0.10571134  0.50264032  0.85212670  1  -0.624072  0  -0.097391  -0.139558  0  1.345945  0
F  F188  1  0.80551683  0.64329002  0.50000311  1  -0.627072  0  -0.094376  -0.132203  0  1.365566  0
F  F189  1  0.19561803  0.90020268  0.50016006  1  -0.626564  0  -0.094568  -0.132783  0  1.365979  0
F  F190  1  0.19945983  0.64475986  0.99332718  1  -0.625384  0  -0.094955  -0.132669  0  1.363543  0
F  F191  1  0.80351008  0.90251346  0.99232231  1  -0.625707  0  -0.094577  -0.132255  0  1.364123  0
F  F192  1  0.09658288  0.04504773  0.35191063  1  -0.625887  0  -0.097362  -0.13994  0  1.345948  0
F  F193  1  0.89409045  0.04616515  0.14924871  1  -0.626746  0  -0.097526  -0.140201  0  1.347735  0
F  F194  1  0.10049173  0.03974413  0.64862732  1  -0.627328  0  -0.097329  -0.139516  0  1.346866  0
F  F195  1  0.89771515  0.03994923  0.85193191  1  -0.625886  0  -0.097574  -0.139565  0  1.346327  0
