# generated using pymatgen
data_Zn3H14(C12O5)2
_symmetry_space_group_name_H-M   'P 1'
_cell_length_a   12.06696393
_cell_length_b   13.71523464
_cell_length_c   13.71523322
_cell_angle_alpha   85.06563716
_cell_angle_beta   86.79784758
_cell_angle_gamma   86.79790622
_symmetry_Int_Tables_number   1
_chemical_formula_structural   Zn3H14(C12O5)2
_chemical_formula_sum   'Zn6 H28 C48 O20'
_cell_volume   2254.96897871
_cell_formula_units_Z   2
loop_
 _symmetry_equiv_pos_site_id
 _symmetry_equiv_pos_as_xyz
  1  'x, y, z'
loop_
 _atom_site_type_symbol
 _atom_site_label
 _atom_site_symmetry_multiplicity
 _atom_site_fract_x
 _atom_site_fract_y
 _atom_site_fract_z
 _atom_site_occupancy
 _atom_site_pbe_bader_charge
 _atom_site_pbe_bader_spin_density
 _atom_site_pbe_cm5_charge
 _atom_site_pbe_ddec_charge
 _atom_site_pbe_ddec_spin_density
 _atom_site_pbe_ddec_sum_bond_order
 _atom_site_pbe_magmom
Zn  Zn0  1  0.00000008  0.99999974  0.99999998  1  1.390706  0  0.660812  1.023778  0  2.311161  0
Zn  Zn1  1  0.49999996  0.99999957  0.00000021  1  1.390723  0  0.660845  1.023832  0  2.311092  0
Zn  Zn2  1  0.25000050  0.91674149  0.08326042  1  1.306451  0  0.68121  0.989665  0  2.272795  0
Zn  Zn3  1  0.24999993  0.08034205  0.91965812  1  1.318154  0  0.685734  1.005896  0  2.209848  0
Zn  Zn4  1  0.74999951  0.08325930  0.91674230  1  1.306452  0  0.681194  0.989637  0  2.272841  0
Zn  Zn5  1  0.75000186  0.91965656  0.08034250  1  1.318178  0  0.685749  1.005924  0  2.209843  0
H  H6  1  0.15789660  0.91060652  0.91663095  1  0.62287  0  0.316166  0.410421  0  0.879849  0
H  H7  1  0.18629089  0.95227268  0.38048617  1  0.071466  0  0.105191  0.113348  0  1.012166  0
H  H8  1  0.85514164  0.99352299  0.27777335  1  0.109057  0  0.098739  0.103447  0  1.032939  0
H  H9  1  0.21838007  0.96810180  0.55607781  1  0.057414  0  0.099183  0.099768  0  1.029368  0
H  H10  1  0.10168171  0.73195328  0.90036714  1  0.061899  0  0.103263  0.10647  0  1.004396  0
H  H11  1  0.17757700  0.56291261  0.87593829  1  0.074149  0  0.10729  0.110025  0  0.988642  0
H  H12  1  0.83680645  0.61795838  0.09167687  1  0.112271  0  0.109942  0.117738  0  1.003349  0
H  H13  1  0.34210496  0.08336977  0.08939548  1  0.62284  0  0.316136  0.410352  0  0.879921  0
H  H14  1  0.31370716  0.61951388  0.04772919  1  0.071447  0  0.105161  0.113302  0  1.012225  0
H  H15  1  0.64485527  0.72222874  0.00647882  1  0.10905  0  0.09874  0.103444  0  1.032948  0
H  H16  1  0.28161600  0.44392220  0.03189747  1  0.057373  0  0.099181  0.099732  0  1.029401  0
H  H17  1  0.39831977  0.09963046  0.26804629  1  0.06194  0  0.103259  0.106479  0  1.00441  0
H  H18  1  0.32242522  0.12406088  0.43708708  1  0.074187  0  0.107304  0.11002  0  0.988608  0
H  H19  1  0.66319461  0.90832022  0.38204218  1  0.112229  0  0.109918  0.117729  0  1.003392  0
H  H20  1  0.84210510  0.08939355  0.08337028  1  0.622856  0  0.316152  0.410388  0  0.879884  0
H  H21  1  0.81370652  0.04772957  0.61951584  1  0.07143  0  0.10516  0.113301  0  1.012252  0
H  H22  1  0.14485583  0.00647853  0.72222872  1  0.10907  0  0.098771  0.103498  0  1.032858  0
H  H23  1  0.78161498  0.03189824  0.44392233  1  0.057335  0  0.099202  0.099783  0  1.029403  0
H  H24  1  0.89831914  0.26804680  0.09963122  1  0.061977  0  0.103266  0.106455  0  1.004403  0
H  H25  1  0.82242717  0.43708748  0.12406061  1  0.074189  0  0.1073  0.110005  0  0.988621  0
H  H26  1  0.16319522  0.38204170  0.90831998  1  0.112206  0  0.109899  0.117682  0  1.003417  0
H  H27  1  0.65789590  0.91663030  0.91060433  1  0.622843  0  0.316141  0.41038  0  0.879881  0
H  H28  1  0.68629121  0.38048618  0.95227076  1  0.071447  0  0.105186  0.113337  0  1.012199  0
H  H29  1  0.35514233  0.27777058  0.99352270  1  0.109034  0  0.098745  0.103329  0  1.032781  0
H  H30  1  0.71838149  0.55607859  0.96810174  1  0.057403  0  0.099186  0.099769  0  1.029354  0
H  H31  1  0.60168022  0.90037034  0.73195351  1  0.061964  0  0.103261  0.10647  0  1.00441  0
H  H32  1  0.67757560  0.87593992  0.56291340  1  0.074373  0  0.107292  0.110022  0  0.988633  0
H  H33  1  0.33680625  0.09167985  0.61795764  1  0.112233  0  0.109913  0.117714  0  1.003393  0
C  C34  1  0.07025923  0.95277729  0.21883585  1  1.522376  0  0.219371  0.608849  0  4.164588  0
C  C35  1  0.02601375  0.97165537  0.31976580  1  -0.064578  0  -0.02063  -0.037401  0  3.98379  0
C  C36  1  0.09791688  0.96908062  0.39538091  1  -0.048046  0  -0.076531  -0.131619  0  3.920459  0
C  C37  1  0.05823509  0.98834959  0.49109906  1  0.018042  0  -0.004938  0.07744  0  4.003904  0
C  C38  1  0.91061002  0.99364425  0.33776203  1  0.022741  0  -0.08995  -0.094803  0  3.988522  0
C  C39  1  0.13004050  0.98612900  0.57001953  1  -0.093855  0  -0.090972  -0.134783  0  3.992399  0
C  C40  1  0.91768162  0.78654035  0.00934223  1  1.55247  0  0.220788  0.60541  0  4.157634  0
C  C41  1  0.96364421  0.68435178  0.99718452  1  -0.012514  0  -0.018612  -0.035591  0  3.975817  0
C  C42  1  0.06102394  0.66857655  0.93623358  1  -0.002105  0  -0.085516  -0.092067  0  3.994191  0
C  C43  1  0.10261328  0.57495860  0.92256777  1  -0.078296  0  -0.085566  -0.130483  0  3.990649  0
C  C44  1  0.91078839  0.60496200  0.04430600  1  -0.045921  0  -0.074697  -0.13374  0  3.923732  0
C  C45  1  0.04890605  0.49219017  0.96874449  1  0.017121  0  -0.003937  0.07382  0  4.004137  0
C  C46  1  0.42974073  0.78116687  0.04722446  1  1.522423  0  0.219367  0.608857  0  4.164512  0
C  C47  1  0.47398484  0.68023347  0.02834531  1  -0.064571  0  -0.020607  -0.037355  0  3.983779  0
C  C48  1  0.40207981  0.60461933  0.03092127  1  -0.048085  0  -0.076556  -0.131687  0  3.920525  0
C  C49  1  0.44176163  0.50890088  0.01165231  1  0.071088  0  -0.004856  0.077552  0  4.003829  0
C  C50  1  0.58938627  0.66223984  0.00635743  1  0.022732  0  -0.089971  -0.094776  0  3.98851  0
C  C51  1  0.36995770  0.42997953  0.01387181  1  -0.093999  0  -0.090991  -0.134779  0  3.992429  0
C  C52  1  0.58232029  0.99065544  0.21345879  1  1.552423  0  0.220807  0.605419  0  4.157808  0
C  C53  1  0.53635920  0.00281367  0.31564727  1  -0.012564  0  -0.018706  -0.035711  0  3.97594  0
C  C54  1  0.43897943  0.06376427  0.33142289  1  -0.002232  0  -0.085479  -0.09206  0  3.994268  0
C  C55  1  0.39739032  0.07743193  0.42504079  1  -0.078193  0  -0.085574  -0.130429  0  3.990557  0
C  C56  1  0.58921202  0.95569177  0.39503770  1  -0.045856  0  -0.074626  -0.133699  0  3.923788  0
C  C57  1  0.45109672  0.03125490  0.50780878  1  -0.034925  0  -0.003857  0.073902  0  4.004041  0
C  C58  1  0.92974166  0.04722277  0.78116761  1  1.522439  0  0.219352  0.608858  0  4.164646  0
C  C59  1  0.97398379  0.02834469  0.68023420  1  -0.064489  0  -0.020617  -0.037363  0  3.98381  0
C  C60  1  0.90207897  0.03092015  0.60462058  1  -0.048029  0  -0.076546  -0.131606  0  3.920481  0
C  C61  1  0.94175997  0.01165045  0.50890180  1  0.070941  0  -0.004919  0.077364  0  4.003951  0
C  C62  1  0.08938588  0.00635580  0.66223952  1  0.022667  0  -0.089987  -0.09483  0  3.988438  0
C  C63  1  0.86995544  0.01387032  0.42998135  1  -0.093963  0  -0.090997  -0.13473  0  3.992526  0
C  C64  1  0.08232178  0.21345828  0.99065246  1  1.552434  0  0.220781  0.605437  0  4.157807  0
C  C65  1  0.03635838  0.31564683  0.00281240  1  -0.012554  0  -0.018679  -0.035774  0  3.975925  0
C  C66  1  0.93897939  0.33142353  0.06376318  1  -0.002233  0  -0.085502  -0.09202  0  3.994192  0
C  C67  1  0.89739089  0.42504149  0.07743040  1  -0.078204  0  -0.085545  -0.130385  0  3.990494  0
C  C68  1  0.08921333  0.39503735  0.95569164  1  -0.045871  0  -0.074568  -0.133592  0  3.923778  0
C  C69  1  0.95109817  0.50780918  0.03125447  1  -0.034871  0  -0.00384  0.073896  0  4.004041  0
C  C70  1  0.57025600  0.21883317  0.95277777  1  1.522402  0  0.219373  0.608833  0  4.164629  0
C  C71  1  0.52601442  0.31976585  0.97165611  1  -0.064581  0  -0.020634  -0.037378  0  3.983755  0
C  C72  1  0.59791853  0.39538146  0.96908081  1  -0.048025  0  -0.076525  -0.13163  0  3.92054  0
C  C73  1  0.55823681  0.49109844  0.98835062  1  0.018021  0  -0.004942  0.077361  0  4.003975  0
C  C74  1  0.41061124  0.33776094  0.99364543  1  0.022786  0  -0.089969  -0.094572  0  3.988257  0
C  C75  1  0.63004074  0.57001979  0.98613038  1  -0.093893  0  -0.090973  -0.134763  0  3.992386  0
C  C76  1  0.41767974  0.00934462  0.78654107  1  1.552599  0  0.220776  0.605342  0  4.15789  0
C  C77  1  0.46364162  0.99718713  0.68435248  1  -0.012547  0  -0.018696  -0.035678  0  3.97589  0
C  C78  1  0.56102139  0.93623653  0.66857759  1  -0.002241  0  -0.085507  -0.092043  0  3.99412  0
C  C79  1  0.60261136  0.92256814  0.57495825  1  -0.078392  0  -0.085569  -0.130488  0  3.990507  0
C  C80  1  0.41078719  0.04430829  0.60496220  1  -0.045853  0  -0.074623  -0.13368  0  3.923733  0
C  C81  1  0.54890335  0.96874443  0.49219040  1  0.017123  0  -0.003851  0.073906  0  4.004087  0
O  O82  1  0.16368377  0.95933504  0.96339049  1  -1.231552  0  -0.55998  -0.872032  0  2.329456  0
O  O83  1  0.00302228  0.95093360  0.15170448  1  -1.18113  0  -0.315594  -0.574452  0  2.336123  0
O  O84  1  0.17686817  0.93941183  0.20797959  1  -1.143161  0  -0.329153  -0.567968  0  2.332965  0
O  O85  1  0.82862904  0.79456840  0.06531182  1  -1.16064  0  -0.3212  -0.559036  0  2.321703  0
O  O86  1  0.96653465  0.85727228  0.96355355  1  -1.188098  0  -0.316634  -0.572563  0  2.31372  0
O  O87  1  0.33631655  0.03661117  0.04066547  1  -1.231547  0  -0.559983  -0.872009  0  2.329563  0
O  O88  1  0.49697568  0.84829535  0.04906718  1  -1.181142  0  -0.315569  -0.574433  0  2.336264  0
O  O89  1  0.32312856  0.79202052  0.06059163  1  -1.143192  0  -0.329145  -0.567973  0  2.332856  0
O  O90  1  0.67137452  0.93468733  0.20543143  1  -1.160702  0  -0.321241  -0.559056  0  2.321812  0
O  O91  1  0.53346674  0.03644305  0.14272735  1  -1.18802  0  -0.316597  -0.572521  0  2.313774  0
O  O92  1  0.83631715  0.04066429  0.03661084  1  -1.231585  0  -0.559987  -0.87201  0  2.329529  0
O  O93  1  0.99697610  0.04906646  0.84829547  1  -1.181176  0  -0.315558  -0.574432  0  2.336319  0
O  O94  1  0.82312933  0.06058896  0.79202180  1  -1.143161  0  -0.32911  -0.567939  0  2.332878  0
O  O95  1  0.17137262  0.20543168  0.93468357  1  -1.160771  0  -0.321206  -0.559008  0  2.321796  0
O  O96  1  0.03346954  0.14272708  0.03644250  1  -1.18796  0  -0.316602  -0.572526  0  2.313719  0
O  O97  1  0.66368349  0.96338889  0.95933584  1  -1.231545  0  -0.559972  -0.872013  0  2.329503  0
O  O98  1  0.50302352  0.15170471  0.95093272  1  -1.181188  0  -0.315591  -0.574433  0  2.336279  0
O  O99  1  0.67687067  0.20797953  0.93941265  1  -1.143132  0  -0.329125  -0.567956  0  2.33283  0
O  O100  1  0.32862482  0.06531054  0.79456793  1  -1.160867  0  -0.321201  -0.559017  0  2.321862  0
O  O101  1  0.46653251  0.96355628  0.85727262  1  -1.188002  0  -0.316596  -0.572496  0  2.313784  0
