# generated using pymatgen
data_ZnH9C17N3O4
_symmetry_space_group_name_H-M   'P 1'
_cell_length_a   18.12710141
_cell_length_b   23.32168061
_cell_length_c   23.32169258
_cell_angle_alpha   63.12081867
_cell_angle_beta   67.11081832
_cell_angle_gamma   67.11087907
_symmetry_Int_Tables_number   1
_chemical_formula_structural   ZnH9C17N3O4
_chemical_formula_sum   'Zn8 H72 C136 N24 O32'
_cell_volume   7824.52725425
_cell_formula_units_Z   8
loop_
 _symmetry_equiv_pos_site_id
 _symmetry_equiv_pos_as_xyz
  1  'x, y, z'
loop_
 _atom_site_type_symbol
 _atom_site_label
 _atom_site_symmetry_multiplicity
 _atom_site_fract_x
 _atom_site_fract_y
 _atom_site_fract_z
 _atom_site_occupancy
 _atom_site_pbe_bader_charge
 _atom_site_pbe_bader_spin_density
 _atom_site_pbe_cm5_charge
 _atom_site_pbe_ddec_charge
 _atom_site_pbe_ddec_spin_density
 _atom_site_pbe_ddec_sum_bond_order
 _atom_site_pbe_magmom
Zn  Zn0  1  0.44966164  0.36093948  0.71641973  1  1.283402  0  0.664953  0.812966  0  2.411086  0
Zn  Zn1  1  0.02715762  0.13901875  0.78358136  1  1.284708  0  0.665156  0.813525  0  2.409815  0
Zn  Zn2  1  0.55033503  0.28358285  0.63906042  1  1.282201  0  0.664984  0.813034  0  2.411049  0
Zn  Zn3  1  0.97284821  0.21641408  0.86097960  1  1.283559  0  0.665198  0.81367  0  2.409776  0
Zn  Zn4  1  0.55033548  0.63906109  0.28358472  1  1.282206  0  0.664984  0.813049  0  2.411093  0
Zn  Zn5  1  0.97284672  0.86097981  0.21641538  1  1.283602  0  0.665205  0.813709  0  2.409697  0
Zn  Zn6  1  0.44966253  0.71641822  0.36094196  1  1.283365  0  0.66495  0.813018  0  2.411021  0
Zn  Zn7  1  0.02715618  0.78358249  0.13901760  1  1.284752  0  0.66519  0.813613  0  2.409804  0
H  H8  1  0.39473528  0.01413181  0.84397864  1  0.061459  0  0.098187  0.098141  0  1.00226  0
H  H9  1  0.75278570  0.48587990  0.65598866  1  0.029065  0  0.098386  0.097859  0  1.002637  0
H  H10  1  0.60526828  0.15601802  0.98587015  1  0.061485  0  0.098172  0.098117  0  1.002263  0
H  H11  1  0.24721354  0.34401543  0.51411901  1  0.028958  0  0.098381  0.097869  0  1.002798  0
H  H12  1  0.60526571  0.98586975  0.15601991  1  0.06143  0  0.098162  0.098103  0  1.002248  0
H  H13  1  0.24721306  0.51412117  0.34401635  1  0.029053  0  0.098338  0.097829  0  1.002766  0
H  H14  1  0.39473459  0.84397955  0.01413135  1  0.061465  0  0.098186  0.098129  0  1.002221  0
H  H15  1  0.75278637  0.65598763  0.48588090  1  0.029017  0  0.098369  0.097836  0  1.00265  0
H  H16  1  0.34505116  0.97111815  0.97111895  1  0.071263  0  0.100642  0.10312  0  1.014933  0
H  H17  1  0.78721932  0.52890503  0.52890602  1  0.047807  0  0.100529  0.102915  0  1.015086  0
H  H18  1  0.65495250  0.02888441  0.02888390  1  0.071115  0  0.100575  0.103087  0  1.015018  0
H  H19  1  0.21277792  0.47109704  0.47109729  1  0.047523  0  0.100535  0.102941  0  1.015139  0
H  H20  1  0.18159901  0.16365459  0.90075787  1  0.073269  0  0.09926  0.102839  0  1.019547  0
H  H21  1  0.74584911  0.33630693  0.59942405  1  0.06126  0  0.0983  0.101593  0  1.018819  0
H  H22  1  0.81840052  0.09924363  0.83634132  1  0.073314  0  0.099252  0.102857  0  1.019492  0
H  H23  1  0.25414684  0.40057703  0.66369497  1  0.061162  0  0.098302  0.101602  0  1.01882  0
H  H24  1  0.81840071  0.83634349  0.09924264  1  0.073273  0  0.09926  0.102841  0  1.019547  0
H  H25  1  0.25414449  0.66369712  0.40057818  1  0.061121  0  0.098305  0.10156  0  1.018849  0
H  H26  1  0.18159959  0.90075693  0.16365537  1  0.073282  0  0.099268  0.102836  0  1.019565  0
H  H27  1  0.74584827  0.59942603  0.33630639  1  0.060903  0  0.098308  0.101615  0  1.018853  0
H  H28  1  0.04838997  0.00271742  0.00271896  1  0.037388  0  0.102271  0.107234  0  1.02975  0
H  H29  1  0.55378598  0.49732252  0.49732183  1  0.04096  0  0.102591  0.106866  0  1.028129  0
H  H30  1  0.95161877  0.99727117  0.99727154  1  0.037639  0  0.102334  0.107187  0  1.029772  0
H  H31  1  0.44621369  0.50267755  0.50268036  1  0.040041  0  0.102592  0.106881  0  1.028098  0
H  H32  1  0.25702568  0.25059824  0.82318648  1  0.10658  0  0.101651  0.102688  0  1.011155  0
H  H33  1  0.83074307  0.24939075  0.67691529  1  0.07154  0  0.101936  0.10343  0  1.010636  0
H  H34  1  0.74296862  0.17681753  0.74940103  1  0.106513  0  0.101616  0.102647  0  1.011216  0
H  H35  1  0.16925441  0.32308353  0.75060883  1  0.071557  0  0.101959  0.103452  0  1.010709  0
H  H36  1  0.74297100  0.74940183  0.17681619  1  0.106622  0  0.10164  0.102697  0  1.011196  0
H  H37  1  0.16925296  0.75061131  0.32308410  1  0.071444  0  0.101972  0.10351  0  1.010707  0
H  H38  1  0.25702781  0.82318701  0.25059796  1  0.106602  0  0.101648  0.102707  0  1.011147  0
H  H39  1  0.83073999  0.67691803  0.24939127  1  0.071559  0  0.101957  0.103469  0  1.010685  0
H  H40  1  0.46839840  0.10237348  0.76475853  1  0.06963  0  0.098666  0.098586  0  1.011761  0
H  H41  1  0.83558415  0.39766313  0.73513182  1  0.063274  0  0.099457  0.099671  0  1.012351  0
H  H42  1  0.53160043  0.23523938  0.89763221  1  0.069497  0  0.098636  0.098544  0  1.011776  0
H  H43  1  0.16441700  0.26487059  0.60233384  1  0.063473  0  0.099465  0.099618  0  1.012386  0
H  H44  1  0.53160211  0.89762958  0.23524120  1  0.069496  0  0.098665  0.09856  0  1.011789  0
H  H45  1  0.16441736  0.60233495  0.26487114  1  0.063626  0  0.099459  0.09959  0  1.012354  0
H  H46  1  0.46840016  0.76475970  0.10237229  1  0.069571  0  0.098654  0.098564  0  1.01175  0
H  H47  1  0.83558290  0.73513246  0.39766393  1  0.063263  0  0.099491  0.099677  0  1.012381  0
H  H48  1  0.43176440  0.35990595  0.84675243  1  0.16285  0  0.131325  0.111117  0  0.988621  0
H  H49  1  0.13828932  0.14013486  0.65321664  1  0.15758  0  0.13122  0.111339  0  0.988938  0
H  H50  1  0.56823363  0.15324773  0.64009460  1  0.162822  0  0.13135  0.111115  0  0.988529  0
H  H51  1  0.86171101  0.34678147  0.85986571  1  0.157499  0  0.13121  0.111314  0  0.988939  0
H  H52  1  0.56823088  0.64009661  0.15324825  1  0.162757  0  0.131351  0.111114  0  0.988489  0
H  H53  1  0.86171107  0.85986670  0.34678294  1  0.157615  0  0.131188  0.111257  0  0.988979  0
H  H54  1  0.43176468  0.84675283  0.35990435  1  0.162819  0  0.131365  0.111143  0  0.98855  0
H  H55  1  0.13829023  0.65321561  0.14013436  1  0.157592  0  0.131196  0.111292  0  0.98897  0
H  H56  1  0.30721721  0.48431489  0.70087232  1  0.141653  0  0.131029  0.111442  0  0.979806  0
H  H57  1  0.99235575  0.01565821  0.79915700  1  0.164546  0  0.130905  0.111499  0  0.979664  0
H  H58  1  0.69278042  0.29912844  0.51568707  1  0.141637  0  0.131011  0.111406  0  0.979865  0
H  H59  1  0.00764547  0.20084271  0.98434322  1  0.164865  0  0.130888  0.111435  0  0.979707  0
H  H60  1  0.69278090  0.51568816  0.29912599  1  0.141694  0  0.131026  0.111455  0  0.979859  0
H  H61  1  0.00764643  0.98434335  0.20084246  1  0.164829  0  0.130922  0.111474  0  0.979643  0
H  H62  1  0.30721953  0.70087262  0.48431502  1  0.141683  0  0.131011  0.111384  0  0.97986  0
H  H63  1  0.99235573  0.79915636  0.01565853  1  0.164568  0  0.130883  0.11144  0  0.979739  0
H  H64  1  0.33580216  0.42260661  0.92422222  1  0.111241  0  0.118675  0.12387  0  0.997389  0
H  H65  1  0.18253743  0.07747906  0.57572600  1  0.116908  0  0.118386  0.12371  0  0.996997  0
H  H66  1  0.66419710  0.07577844  0.57739437  1  0.111262  0  0.118712  0.12393  0  0.997332  0
H  H67  1  0.81746095  0.42427302  0.92252052  1  0.1428  0  0.118388  0.123747  0  0.996988  0
H  H68  1  0.66419307  0.57739794  0.07577714  1  0.111203  0  0.118683  0.123875  0  0.997348  0
H  H69  1  0.81746311  0.92252200  0.42427333  1  0.116938  0  0.118388  0.123694  0  0.99702  0
H  H70  1  0.33580329  0.92422312  0.42260436  1  0.111201  0  0.11868  0.123866  0  0.997407  0
H  H71  1  0.18253980  0.57572555  0.07747774  1  0.116873  0  0.118387  0.123714  0  0.996944  0
H  H72  1  0.20535041  0.55298024  0.77160908  1  0.115758  0  0.119024  0.124834  0  0.992326  0
H  H73  1  0.02996452  0.94702260  0.72839066  1  0.134489  0  0.119014  0.126022  0  0.992052  0
H  H74  1  0.79464942  0.22839206  0.44702225  1  0.115791  0  0.119018  0.124803  0  0.992378  0
H  H75  1  0.97003547  0.27161121  0.05297697  1  0.134535  0  0.118998  0.126019  0  0.99199  0
H  H76  1  0.79464842  0.44702430  0.22838876  1  0.115723  0  0.119049  0.12486  0  0.992303  0
H  H77  1  0.97003695  0.05297747  0.27161013  1  0.134459  0  0.119025  0.126018  0  0.992013  0
H  H78  1  0.20535141  0.77161000  0.55297912  1  0.115814  0  0.119025  0.12483  0  0.992417  0
H  H79  1  0.02996449  0.72838985  0.94702297  1  0.134529  0  0.119024  0.126016  0  0.991997  0
C  C80  1  0.36741441  0.18202402  0.78918591  1  -0.003631  0  -0.0211  -0.042605  0  3.971167  0
C  C81  1  0.83867048  0.31798042  0.71078828  1  -0.003449  0  -0.021373  -0.042221  0  3.972993  0
C  C82  1  0.63258065  0.21081511  0.81797817  1  -0.003798  0  -0.021105  -0.042458  0  3.97106  0
C  C83  1  0.16133232  0.28921118  0.68201342  1  -0.004457  0  -0.021407  -0.042386  0  3.973067  0
C  C84  1  0.63258211  0.81797655  0.21081572  1  -0.003819  0  -0.021055  -0.042484  0  3.971262  0
C  C85  1  0.16133048  0.68201567  0.28921319  1  -0.004482  0  -0.02145  -0.042425  0  3.973052  0
C  C86  1  0.36741762  0.78918744  0.18202288  1  -0.003713  0  -0.021053  -0.042442  0  3.970995  0
C  C87  1  0.83866535  0.71079137  0.31798182  1  -0.003489  0  -0.021389  -0.042351  0  3.973066  0
C  C88  1  0.24013294  0.03105264  0.93004091  1  0.03704  0  -0.005313  0.046572  0  3.991877  0
C  C89  1  0.70118400  0.46895638  0.56997191  1  0.045975  0  -0.006421  0.04442  0  3.98967  0
C  C90  1  0.75987247  0.06995584  0.96894435  1  0.036932  0  -0.005353  0.046559  0  3.991888  0
C  C91  1  0.29881466  0.43002809  0.53104574  1  0.046132  0  -0.006411  0.043769  0  3.989254  0
C  C92  1  0.75987124  0.96894642  0.06995523  1  0.037205  0  -0.00536  0.046515  0  3.99201  0
C  C93  1  0.29881260  0.53104767  0.43003112  1  0.046201  0  -0.006465  0.043817  0  3.989062  0
C  C94  1  0.24013387  0.93004023  0.03105248  1  0.037063  0  -0.005276  0.046573  0  3.991852  0
C  C95  1  0.70118426  0.56997248  0.46895688  1  0.045651  0  -0.006401  0.044413  0  3.989743  0
C  C96  1  0.15540000  0.03955682  0.93977414  1  -0.01889  0  -0.010899  -0.057786  0  3.946941  0
C  C97  1  0.63471337  0.46044600  0.56022842  1  -0.016928  0  -0.010242  -0.056627  0  3.943751  0
C  C98  1  0.84460798  0.06021778  0.96043614  1  -0.018831  0  -0.010959  -0.057946  0  3.947041  0
C  C99  1  0.36528560  0.43977085  0.53955588  1  -0.016933  0  -0.010258  -0.056663  0  3.944014  0
C  C100  1  0.84460806  0.96043576  0.06021776  1  -0.018793  0  -0.010955  -0.05792  0  3.946983  0
C  C101  1  0.36528171  0.53955906  0.43977633  1  -0.016915  0  -0.010179  -0.056635  0  3.943743  0
C  C102  1  0.15539964  0.93977431  0.03955826  1  -0.018872  0  -0.01094  -0.05785  0  3.946923  0
C  C103  1  0.63471424  0.56022873  0.46044606  1  -0.016696  0  -0.010239  -0.056654  0  3.943773  0
C  C104  1  0.28316303  0.08255134  0.87854832  1  -0.070459  0  -0.003712  0.084465  0  3.992191  0
C  C105  1  0.74421041  0.41745395  0.62147579  1  -0.060599  0  -0.003213  0.084998  0  3.990997  0
C  C106  1  0.71683905  0.12145032  0.91744878  1  -0.070461  0  -0.003715  0.08438  0  3.992346  0
C  C107  1  0.25578814  0.37852393  0.58254830  1  -0.060601  0  -0.003253  0.087494  0  3.987395  0
C  C108  1  0.71683872  0.91744972  0.12145108  1  -0.07066  0  -0.003691  0.084427  0  3.992242  0
C  C109  1  0.25578591  0.58254911  0.37852734  1  -0.06061  0  -0.003248  0.087425  0  3.987222  0
C  C110  1  0.28316306  0.87854775  0.08255186  1  -0.070511  0  -0.003728  0.084426  0  3.992252  0
C  C111  1  0.74420926  0.62147764  0.41745347  1  -0.060546  0  -0.00324  0.084972  0  3.991041  0
C  C112  1  0.36423627  0.06603029  0.83947140  1  0.01676  0  -0.095003  -0.140552  0  3.995969  0
C  C113  1  0.76972441  0.43397791  0.66050607  1  0.002289  0  -0.095647  -0.141484  0  3.998942  0
C  C114  1  0.63576495  0.16052649  0.93397051  1  0.016749  0  -0.095011  -0.14047  0  3.996057  0
C  C115  1  0.23027611  0.33949704  0.56601960  1  0.002677  0  -0.095678  -0.142365  0  3.998516  0
C  C116  1  0.63576384  0.93397027  0.16052786  1  0.016809  0  -0.095014  -0.140521  0  3.996017  0
C  C117  1  0.23027423  0.56602167  0.33949880  1  0.002403  0  -0.095638  -0.142329  0  3.998374  0
C  C118  1  0.36423700  0.83947208  0.06603081  1  0.016661  0  -0.095067  -0.140573  0  3.996048  0
C  C119  1  0.76972288  0.66050701  0.43397842  1  0.002501  0  -0.095617  -0.141467  0  3.998999  0
C  C120  1  0.28078913  0.97590362  0.97590294  1  -0.097095  0  -0.088594  -0.179295  0  3.953972  0
C  C121  1  0.73253931  0.52411238  0.52411267  1  -0.143864  0  -0.088624  -0.178104  0  3.952571  0
C  C122  1  0.71921621  0.02409744  0.02409536  1  -0.096803  0  -0.088467  -0.179228  0  3.954133  0
C  C123  1  0.26745776  0.47589018  0.47589046  1  -0.14386  0  -0.088626  -0.178407  0  3.952965  0
C  C124  1  0.24447538  0.14990736  0.87093287  1  -0.030668  0  -0.091398  -0.127775  0  3.963647  0
C  C125  1  0.76522996  0.35008501  0.62915911  1  0.026489  0  -0.090931  -0.125401  0  3.960466  0
C  C126  1  0.75552321  0.12906794  0.85009159  1  -0.031072  0  -0.091381  -0.127722  0  3.963666  0
C  C127  1  0.23476793  0.37084119  0.64991675  1  0.026593  0  -0.09094  -0.126223  0  3.95973  0
C  C128  1  0.75552373  0.85009072  0.12906868  1  -0.031002  0  -0.091386  -0.127694  0  3.963543  0
C  C129  1  0.23476532  0.64991755  0.37084371  1  0.026552  0  -0.090827  -0.125949  0  3.959405  0
C  C130  1  0.24447630  0.87093263  0.14990871  1  -0.030564  0  -0.091379  -0.127691  0  3.963739  0
C  C131  1  0.76522735  0.62916137  0.35008479  1  0.026843  0  -0.090924  -0.125394  0  3.960483  0
C  C132  1  0.11435245  0.99468747  0.99468803  1  0.032257  0  -0.087185  -0.121708  0  3.969694  0
C  C133  1  0.60369795  0.50533483  0.50533538  1  0.069182  0  -0.087331  -0.120937  0  3.966723  0
C  C134  1  0.88565729  0.00530361  0.00530276  1  0.03227  0  -0.087351  -0.12175  0  3.970018  0
C  C135  1  0.39630053  0.49466524  0.49466803  1  0.069681  0  -0.087331  -0.121024  0  3.966674  0
C  C136  1  0.28628077  0.19879263  0.82748402  1  -0.041012  0  -0.082798  -0.07762  0  3.984003  0
C  C137  1  0.81252394  0.30120654  0.67256780  1  -0.050885  0  -0.081938  -0.078648  0  3.98507  0
C  C138  1  0.71371425  0.17251795  0.80120756  1  -0.040453  0  -0.082763  -0.077666  0  3.984085  0
C  C139  1  0.18747337  0.32743061  0.69879419  1  -0.050994  0  -0.081959  -0.078715  0  3.985197  0
C  C140  1  0.71371411  0.80120744  0.17251919  1  -0.040598  0  -0.082794  -0.07774  0  3.984138  0
C  C141  1  0.18747253  0.69879602  0.32743251  1  -0.050967  0  -0.081994  -0.078877  0  3.985241  0
C  C142  1  0.28628315  0.82748362  0.19879293  1  -0.041062  0  -0.082807  -0.07774  0  3.984041  0
C  C143  1  0.81252027  0.67257145  0.30120635  1  -0.05093  0  -0.08196  -0.078656  0  3.984984  0
C  C144  1  0.40545144  0.11520347  0.79495124  1  -0.083372  0  -0.087789  -0.089425  0  4.000183  0
C  C145  1  0.81564702  0.38481025  0.70498989  1  -0.042657  0  -0.088936  -0.090444  0  4.002352  0
C  C146  1  0.59454705  0.20504724  0.88479966  1  -0.083176  0  -0.087753  -0.089466  0  4.000193  0
C  C147  1  0.18435590  0.29501252  0.61518307  1  -0.043105  0  -0.088883  -0.090268  0  4.002672  0
C  C148  1  0.59454775  0.88479809  0.20504913  1  -0.083173  0  -0.087789  -0.089424  0  4.000254  0
C  C149  1  0.18435453  0.61518584  0.29501353  1  -0.042937  0  -0.088881  -0.090247  0  4.002522  0
C  C150  1  0.40545278  0.79495233  0.11520228  1  -0.083144  0  -0.087767  -0.089422  0  4.000243  0
C  C151  1  0.81564352  0.70499201  0.38481117  1  -0.042806  0  -0.088973  -0.090391  0  4.002492  0
C  C152  1  0.41380738  0.23419764  0.74473515  1  1.547673  0  0.216729  0.600503  0  4.154205  0
C  C153  1  0.89277499  0.26581396  0.75524901  1  1.552667  0  0.215119  0.598488  0  4.157774  0
C  C154  1  0.58618836  0.25526448  0.76580541  1  1.547674  0  0.216654  0.600288  0  4.154226  0
C  C155  1  0.10722846  0.24474868  0.73418237  1  1.554295  0  0.215141  0.598704  0  4.157606  0
C  C156  1  0.58619361  0.76580392  0.25526510  1  1.547578  0  0.216697  0.600579  0  4.154046  0
C  C157  1  0.10722816  0.73418460  0.24474895  1  1.5543  0  0.215171  0.598639  0  4.157622  0
C  C158  1  0.41380924  0.74473459  0.23419829  1  1.547711  0  0.216619  0.600397  0  4.15423  0
C  C159  1  0.89276845  0.75525437  0.26581416  1  1.553266  0  0.215126  0.59861  0  4.157621  0
C  C160  1  0.10432408  0.09377221  0.89331868  1  1.571407  0  0.216102  0.601817  0  4.18434  0
C  C161  1  0.59144636  0.40618737  0.60664768  1  1.570462  0  0.217106  0.602918  0  4.1834  0
C  C162  1  0.89568628  0.10667248  0.90621732  1  1.572386  0  0.216512  0.602377  0  4.184011  0
C  C163  1  0.40855310  0.39335042  0.59381366  1  1.570509  0  0.217117  0.603036  0  4.183308  0
C  C164  1  0.89568706  0.90621638  0.10667152  1  1.572518  0  0.216524  0.602351  0  4.183978  0
C  C165  1  0.40855012  0.59381520  0.39336120  1  1.570944  0  0.217321  0.603315  0  4.182889  0
C  C166  1  0.10432305  0.89331611  0.09377300  1  1.571559  0  0.216128  0.601929  0  4.184256  0
C  C167  1  0.59144546  0.60664567  0.40619068  1  1.570378  0  0.217128  0.603042  0  4.183165  0
C  C168  1  0.38050646  0.40296674  0.83294605  1  0.473711  0  0.066528  0.109935  0  3.889218  0
C  C169  1  0.11631907  0.09706251  0.66702482  1  0.510196  0  0.067858  0.111249  0  3.889228  0
C  C170  1  0.61949299  0.16705522  0.59703322  1  0.473835  0  0.066514  0.109964  0  3.889128  0
C  C171  1  0.88368178  0.33297211  0.90293807  1  0.510293  0  0.067875  0.111296  0  3.889166  0
C  C172  1  0.61949034  0.59703482  0.16705505  1  0.473929  0  0.066465  0.10988  0  3.889084  0
C  C173  1  0.88368327  0.90293855  0.33297353  1  0.510244  0  0.067844  0.111329  0  3.889182  0
C  C174  1  0.38050680  0.83294633  0.40296612  1  0.474  0  0.066491  0.109877  0  3.889069  0
C  C175  1  0.11632005  0.66702496  0.09706182  1  0.510243  0  0.067889  0.11134  0  3.889136  0
C  C176  1  0.31029390  0.47307963  0.75080146  1  0.458899  0  0.066745  0.107602  0  3.883752  0
C  C177  1  0.03413414  0.02691922  0.74920697  1  0.478486  0  0.067358  0.107901  0  3.884496  0
C  C178  1  0.68970438  0.24919924  0.52692211  1  0.458621  0  0.066786  0.107657  0  3.88381  0
C  C179  1  0.96586467  0.25079238  0.97308247  1  0.478201  0  0.067444  0.108067  0  3.884495  0
C  C180  1  0.68970361  0.52692342  0.24919789  1  0.458592  0  0.066751  0.107557  0  3.883861  0
C  C181  1  0.96586700  0.97308184  0.25079347  1  0.477941  0  0.067441  0.108088  0  3.884394  0
C  C182  1  0.31029498  0.75080182  0.47308016  1  0.458635  0  0.066791  0.107705  0  3.883724  0
C  C183  1  0.03413548  0.74920620  0.02691896  1  0.478312  0  0.067391  0.107983  0  3.884515  0
C  C184  1  0.32762170  0.43771446  0.87511737  1  0.026744  0  -0.068832  -0.150165  0  3.930026  0
C  C185  1  0.14038586  0.06231936  0.62484664  1  -0.002169  0  -0.068108  -0.149452  0  3.928496  0
C  C186  1  0.67237713  0.12488341  0.56228675  1  0.026722  0  -0.068824  -0.150171  0  3.930001  0
C  C187  1  0.85961263  0.37515228  0.93768043  1  -0.028182  0  -0.068118  -0.149513  0  3.928356  0
C  C188  1  0.67237505  0.56228909  0.12488283  1  0.026684  0  -0.068806  -0.150074  0  3.930019  0
C  C189  1  0.85961605  0.93768121  0.37515336  1  -0.00211  0  -0.06805  -0.149339  0  3.928333  0
C  C190  1  0.32762206  0.87511815  0.43771362  1  0.026706  0  -0.06882  -0.150147  0  3.929969  0
C  C191  1  0.14038768  0.62484579  0.06231861  1  -0.002368  0  -0.068095  -0.149455  0  3.928242  0
C  C192  1  0.25470797  0.51068225  0.78991087  1  0.023262  0  -0.067359  -0.147162  0  3.916165  0
C  C193  1  0.05529173  0.98933149  0.71008625  1  -0.025602  0  -0.067778  -0.1502  0  3.919261  0
C  C194  1  0.74529133  0.21008933  0.48932004  1  0.023134  0  -0.067401  -0.14715  0  3.916297  0
C  C195  1  0.94470689  0.28991446  0.01066904  1  -0.025469  0  -0.067775  -0.150252  0  3.919209  0
C  C196  1  0.74528982  0.48932179  0.21008751  1  0.023516  0  -0.067373  -0.147108  0  3.916335  0
C  C197  1  0.94471002  0.01066957  0.28991400  1  -0.025476  0  -0.067807  -0.150238  0  3.919046  0
C  C198  1  0.25470862  0.78991173  0.51068161  1  0.023297  0  -0.067366  -0.147202  0  3.916259  0
C  C199  1  0.05529294  0.71008511  0.98933076  1  -0.025415  0  -0.067782  -0.150187  0  3.919141  0
C  C200  1  0.26292121  0.49240315  0.85370885  1  -0.012547  0  0.016583  0.055394  0  3.994793  0
C  C201  1  0.10901763  0.00761511  0.64627110  1  -0.049228  0  0.016439  0.056098  0  3.995525  0
C  C202  1  0.73707938  0.14629087  0.50759809  1  -0.012431  0  0.016588  0.055383  0  3.994863  0
C  C203  1  0.89098007  0.35372957  0.99238570  1  -0.048983  0  0.016411  0.056056  0  3.99545  0
C  C204  1  0.73707690  0.50759990  0.14628945  1  -0.012561  0  0.016506  0.055188  0  3.995014  0
C  C205  1  0.89098352  0.99238595  0.35372976  1  -0.049017  0  0.016372  0.056023  0  3.995354  0
C  C206  1  0.26292193  0.85370970  0.49240295  1  -0.012551  0  0.016569  0.055455  0  3.994782  0
C  C207  1  0.10901976  0.64627000  0.00761366  1  -0.049008  0  0.016417  0.056066  0  3.995446  0
C  C208  1  0.20653422  0.52905564  0.89838636  1  0.915045  0  0.24909  0.248959  0  3.981058  0
C  C209  1  0.13400220  0.97094985  0.60161377  1  0.963333  0  0.248602  0.247887  0  3.982545  0
C  C210  1  0.79346711  0.10161476  0.47094468  1  0.915067  0  0.249042  0.24887  0  3.981196  0
C  C211  1  0.86599444  0.39838784  0.02904995  1  0.963023  0  0.248661  0.247945  0  3.982651  0
C  C212  1  0.79346318  0.47094592  0.10161285  1  0.915105  0  0.24911  0.248964  0  3.981152  0
C  C213  1  0.86600015  0.02905121  0.39838716  1  0.962972  0  0.248646  0.247882  0  3.982528  0
C  C214  1  0.20653523  0.89838631  0.52905625  1  0.915035  0  0.249064  0.248867  0  3.981041  0
C  C215  1  0.13400267  0.60161272  0.97094979  1  0.963274  0  0.248536  0.247799  0  3.982615  0
N  N216  1  0.37146824  0.42008825  0.77221524  1  -1.22501  0  -0.305064  -0.177536  0  3.483953  0
N  N217  1  0.06370878  0.07991281  0.72779241  1  -1.230093  0  -0.306163  -0.178747  0  3.48404  0
N  N218  1  0.62852878  0.22778620  0.57991325  1  -1.224792  0  -0.305106  -0.177625  0  3.484033  0
N  N219  1  0.93629217  0.27220419  0.92008797  1  -1.230261  0  -0.306212  -0.178807  0  3.483956  0
N  N220  1  0.62852688  0.57991480  0.22778612  1  -1.224897  0  -0.305046  -0.177499  0  3.483916  0
N  N221  1  0.93629372  0.92008775  0.27220612  1  -1.230172  0  -0.306225  -0.178956  0  3.48403  0
N  N222  1  0.37146862  0.77221536  0.42008853  1  -1.22503  0  -0.305099  -0.177562  0  3.483978  0
N  N223  1  0.06370862  0.72779239  0.07991289  1  -1.230109  0  -0.306146  -0.178768  0  3.484014  0
N  N224  1  0.15101192  0.58692964  0.87574489  1  -0.571204  0  -0.14722  -0.139041  0  3.1785  0
N  N225  1  0.11367156  0.91310598  0.62429142  1  -0.510279  0  -0.148299  -0.139204  0  3.17836  0
N  N226  1  0.84899051  0.12425486  0.41307339  1  -0.571856  0  -0.147236  -0.13909  0  3.178446  0
N  N227  1  0.88632503  0.37571065  0.08689346  1  -0.510535  0  -0.148284  -0.139148  0  3.178294  0
N  N228  1  0.84898423  0.41307391  0.12425421  1  -0.570763  0  -0.147213  -0.139063  0  3.17841  0
N  N229  1  0.88633203  0.08689310  0.37571046  1  -0.509552  0  -0.148238  -0.139098  0  3.178296  0
N  N230  1  0.15101351  0.87574471  0.58692857  1  -0.571221  0  -0.147176  -0.138984  0  3.178428  0
N  N231  1  0.11367176  0.62429091  0.91310549  1  -0.510294  0  -0.148209  -0.139111  0  3.178364  0
N  N232  1  0.20769646  0.49964191  0.96320622  1  -0.567814  0  -0.148435  -0.140239  0  3.205657  0
N  N233  1  0.17057913  0.00035329  0.53679101  1  -0.507735  0  -0.147222  -0.138683  0  3.205989  0
N  N234  1  0.79230438  0.03679368  0.50035808  1  -0.56735  0  -0.148369  -0.140092  0  3.205812  0
N  N235  1  0.82941782  0.46321053  0.99964570  1  -0.507541  0  -0.147258  -0.138713  0  3.205953  0
N  N236  1  0.79230033  0.50035964  0.03679145  1  -0.568098  0  -0.148354  -0.140084  0  3.205617  0
N  N237  1  0.82942082  0.99964778  0.46321064  1  -0.508088  0  -0.147191  -0.138654  0  3.206041  0
N  N238  1  0.20769813  0.96320688  0.49964259  1  -0.567867  0  -0.148368  -0.140114  0  3.205653  0
N  N239  1  0.17057853  0.53679053  0.00035318  1  -0.507827  0  -0.147192  -0.138604  0  3.20592  0
O  O240  1  0.11886036  0.09090047  0.83693207  1  -1.152991  0  -0.313467  -0.534971  0  2.264283  0
O  O241  1  0.54659035  0.40905386  0.66301753  1  -1.161035  0  -0.313452  -0.536254  0  2.265694  0
O  O242  1  0.88114899  0.16305938  0.90908721  1  -1.153596  0  -0.313611  -0.535161  0  2.264626  0
O  O243  1  0.45340555  0.33697920  0.59094903  1  -1.161135  0  -0.313463  -0.536313  0  2.265704  0
O  O244  1  0.88114994  0.90908513  0.16305846  1  -1.153645  0  -0.313577  -0.535108  0  2.264721  0
O  O245  1  0.45340317  0.59095418  0.33698805  1  -1.161419  0  -0.313639  -0.536485  0  2.265803  0
O  O246  1  0.11886122  0.83693020  0.09089940  1  -1.153127  0  -0.313505  -0.535045  0  2.264281  0
O  O247  1  0.54659209  0.66301788  0.40905427  1  -1.161033  0  -0.313449  -0.536279  0  2.265548  0
O  O248  1  0.48394904  0.21653218  0.70590437  1  -1.175293  0  -0.321707  -0.556486  0  2.34382  0
O  O249  1  0.90631284  0.28347149  0.79410935  1  -1.172111  0  -0.320781  -0.555509  0  2.344933  0
O  O250  1  0.51604835  0.29409560  0.78346884  1  -1.175402  0  -0.321669  -0.556395  0  2.343845  0
O  O251  1  0.09369186  0.20588870  0.71652407  1  -1.17232  0  -0.320733  -0.555467  0  2.344729  0
O  O252  1  0.51605355  0.78346440  0.29409680  1  -1.175258  0  -0.321734  -0.556569  0  2.34382  0
O  O253  1  0.09368971  0.71652708  0.20588965  1  -1.172122  0  -0.320777  -0.555501  0  2.344791  0
O  O254  1  0.48395176  0.70590497  0.21653257  1  -1.17537  0  -0.321656  -0.556452  0  2.34381  0
O  O255  1  0.90630565  0.79411435  0.28347228  1  -1.172195  0  -0.320799  -0.555537  0  2.344806  0
O  O256  1  0.04611280  0.13640198  0.91711773  1  -1.176566  0  -0.318351  -0.560354  0  2.336462  0
O  O257  1  0.59986398  0.36353600  0.58282473  1  -1.164598  0  -0.318706  -0.559996  0  2.335159  0
O  O258  1  0.95389822  0.08287087  0.86359180  1  -1.176972  0  -0.318498  -0.560537  0  2.336182  0
O  O259  1  0.40013527  0.41717413  0.63646485  1  -1.164584  0  -0.318699  -0.560067  0  2.335087  0
O  O260  1  0.95389661  0.86359009  0.08286884  1  -1.177088  0  -0.31855  -0.560573  0  2.336107  0
O  O261  1  0.40012907  0.63646609  0.41718798  1  -1.164657  0  -0.318736  -0.560191  0  2.334646  0
O  O262  1  0.04611307  0.91711723  0.13640200  1  -1.1766  0  -0.318324  -0.560378  0  2.33641  0
O  O263  1  0.59986385  0.58282395  0.36353712  1  -1.164523  0  -0.318721  -0.560067  0  2.335101  0
O  O264  1  0.38187544  0.29175327  0.74912145  1  -1.16408  0  -0.320026  -0.555266  0  2.30244  0
O  O265  1  0.92286937  0.20826248  0.75084448  1  -1.166466  0  -0.319368  -0.554682  0  2.302366  0
O  O266  1  0.61812258  0.25088001  0.70824787  1  -1.164038  0  -0.320005  -0.555197  0  2.302286  0
O  O267  1  0.07713148  0.24915038  0.79173439  1  -1.166915  0  -0.319395  -0.554854  0  2.302486  0
O  O268  1  0.61812619  0.70824630  0.25088037  1  -1.164053  0  -0.320028  -0.55534  0  2.302237  0
O  O269  1  0.07713181  0.79173658  0.24915171  1  -1.167004  0  -0.319405  -0.554781  0  2.302446  0
O  O270  1  0.38187678  0.74912106  0.29175439  1  -1.164107  0  -0.319992  -0.555279  0  2.302389  0
O  O271  1  0.92286656  0.75084918  0.20826295  1  -1.166982  0  -0.31938  -0.554786  0  2.302396  0
