# generated using pymatgen
data_CdH8C4(N4O)2
_symmetry_space_group_name_H-M   'P 1'
_cell_length_a   8.23313107
_cell_length_b   9.17355699
_cell_length_c   11.67156784
_cell_angle_alpha   79.33421051
_cell_angle_beta   69.07545111
_cell_angle_gamma   82.33940937
_symmetry_Int_Tables_number   1
_chemical_formula_structural   CdH8C4(N4O)2
_chemical_formula_sum   'Cd3 H24 C12 N24 O6'
_cell_volume   806.98789295
_cell_formula_units_Z   3
loop_
 _symmetry_equiv_pos_site_id
 _symmetry_equiv_pos_as_xyz
  1  'x, y, z'
loop_
 _atom_site_type_symbol
 _atom_site_label
 _atom_site_symmetry_multiplicity
 _atom_site_fract_x
 _atom_site_fract_y
 _atom_site_fract_z
 _atom_site_occupancy
 _atom_site_hle17_bader_spin_density
 _atom_site_hle17_ddec_charge
 _atom_site_hle17_ddec_spin_density
 _atom_site_hle17_ddec_sum_bond_order
 _atom_site_hle17_magmom
 _atom_site_hse06_10hf_bader_spin_density
 _atom_site_hse06_10hf_ddec_charge
 _atom_site_hse06_10hf_ddec_spin_density
 _atom_site_hse06_10hf_ddec_sum_bond_order
 _atom_site_hse06_10hf_magmom
 _atom_site_hse06_bader_spin_density
 _atom_site_hse06_ddec_charge
 _atom_site_hse06_ddec_spin_density
 _atom_site_hse06_ddec_sum_bond_order
 _atom_site_hse06_magmom
 _atom_site_pbe_bader_spin_density
 _atom_site_pbe_cm5_charge
 _atom_site_pbe_ddec_charge
 _atom_site_pbe_ddec_spin_density
 _atom_site_pbe_ddec_sum_bond_order
 _atom_site_pbe_magmom
Cd  Cd0  1  0.50000492  0.00000125  0.99999957  1  0  0.921939  0  1.891592  0  0  0.688914  0  2.367064  0  0  0.739248  0  2.327378  0  0  0.807986  0.653026  0  2.394294  0
Cd  Cd1  1  0.75289768  0.81580983  0.70086262  1  0  1.087233  0  1.735681  0  0  0.886123  0  2.193414  0  0  0.936867  0  2.143808  0  0  0.7972  0.849953  0  2.227582  0
Cd  Cd2  1  0.24710143  0.18418862  0.29913920  1  0  1.087213  0  1.7357  0  0  0.886095  0  2.193428  0  0  0.936841  0  2.143825  0  0  0.797189  0.849926  0  2.227594  0
H  H3  1  0.59111342  0.46161780  0.86544577  1  0  0.101998  0  0.930875  0  0  0.114041  0  0.995839  0  0  0.114827  0  0.996739  0  0  0.104723  0.11342  0  0.995344  0
H  H4  1  0.40889090  0.53838073  0.13455045  1  0  0.102022  0  0.930916  0  0  0.114022  0  0.995895  0  0  0.11481  0  0.996794  0  0  0.104721  0.113404  0  0.995399  0
H  H5  1  0.63048182  0.31513206  0.97590458  1  0  0.099273  0  0.947234  0  0  0.110089  0  1.013  0  0  0.111235  0  1.014071  0  0  0.101508  0.109203  0  1.012422  0
H  H6  1  0.36951837  0.68486992  0.02409053  1  0  0.099339  0  0.947187  0  0  0.110113  0  1.012979  0  0  0.111259  0  1.014052  0  0  0.101517  0.109232  0  1.01239  0
H  H7  1  0.94000318  0.36606191  0.90932899  1  0  0.105202  0  0.936877  0  0  0.11863  0  0.997174  0  0  0.120137  0  0.997055  0  0  0.102322  0.117504  0  0.99732  0
H  H8  1  0.05999678  0.63394332  0.09066834  1  0  0.105232  0  0.936755  0  0  0.118623  0  0.997079  0  0  0.120132  0  0.996961  0  0  0.102308  0.117494  0  0.997228  0
H  H9  1  0.92685940  0.48783708  0.77591336  1  0  0.108134  0  0.924219  0  0  0.124572  0  0.981415  0  0  0.126142  0  0.98023  0  0  0.104818  0.123345  0  0.982419  0
H  H10  1  0.07313673  0.51216690  0.22409023  1  0  0.108111  0  0.924211  0  0  0.124533  0  0.981406  0  0  0.126106  0  0.98022  0  0  0.104806  0.123319  0  0.982393  0
H  H11  1  0.93816110  0.02229037  0.88791514  1  0  0.091736  0  0.965318  0  0  0.100935  0  1.035561  0  0  0.102244  0  1.035996  0  0  0.096656  0.09997  0  1.035348  0
H  H12  1  0.06183763  0.97771352  0.11208953  1  0  0.091698  0  0.965296  0  0  0.100887  0  1.035566  0  0  0.102196  0  1.036003  0  0  0.096637  0.099919  0  1.035348  0
H  H13  1  0.07675714  0.13902115  0.91031147  1  0  0.098742  0  0.950287  0  0  0.110152  0  1.015466  0  0  0.111708  0  1.014768  0  0  0.100766  0.10902  0  1.015993  0
H  H14  1  0.92324419  0.86098273  0.08969169  1  0  0.098743  0  0.950209  0  0  0.110142  0  1.015402  0  0  0.111701  0  1.014698  0  0  0.100762  0.109007  0  1.015929  0
H  H15  1  0.75497778  0.76883361  0.48815773  1  0  0.429432  0  0.845549  0  0  0.406955  0  0.901003  0  0  0.417015  0  0.886318  0  0  0.30125  0.399737  0  0.911566  0
H  H16  1  0.24501880  0.23116382  0.51184314  1  0  0.429434  0  0.845555  0  0  0.406953  0  0.901013  0  0  0.417013  0  0.886328  0  0  0.30126  0.399736  0  0.911576  0
H  H17  1  0.91820780  0.86188981  0.43940023  1  0  0.398573  0  0.889244  0  0  0.365523  0  0.966918  0  0  0.374019  0  0.954845  0  0  0.29856  0.359505  0  0.975454  0
H  H18  1  0.08180232  0.13809981  0.56059393  1  0  0.398631  0  0.88917  0  0  0.365581  0  0.966842  0  0  0.374075  0  0.954772  0  0  0.298554  0.359563  0  0.975378  0
H  H19  1  0.10937674  0.78503106  0.55263779  1  0  0.388062  0  0.927945  0  0  0.345726  0  1.009367  0  0  0.356697  0  0.993522  0  0  0.283934  0.337839  0  1.020759  0
H  H20  1  0.89062505  0.21496640  0.44735920  1  0  0.388095  0  0.927905  0  0  0.345753  0  1.009338  0  0  0.356724  0  0.993491  0  0  0.283945  0.337864  0  1.020732  0
H  H21  1  0.09284004  0.78936694  0.69550066  1  0  0.394737  0  0.926415  0  0  0.349339  0  1.013444  0  0  0.361282  0  0.996577  0  0  0.280182  0.34085  0  1.0254  0
H  H22  1  0.90716573  0.21062938  0.30449462  1  0  0.394714  0  0.926454  0  0  0.349303  0  1.013503  0  0  0.361244  0  0.996638  0  0  0.280158  0.340815  0  1.025458  0
H  H23  1  0.72205929  0.50178503  0.62171167  1  0  0.413429  0  0.889476  0  0  0.373179  0  0.966779  0  0  0.38442  0  0.950706  0  0  0.288441  0.365254  0  0.978093  0
H  H24  1  0.27792773  0.49821944  0.37828386  1  0  0.413337  0  0.889603  0  0  0.373067  0  0.966926  0  0  0.384308  0  0.950854  0  0  0.288392  0.365143  0  0.97824  0
H  H25  1  0.54708624  0.61303984  0.64890699  1  0  0.42191  0  0.84781  0  0  0.386685  0  0.928528  0  0  0.397266  0  0.91285  0  0  0.306898  0.37907  0  0.939847  0
H  H26  1  0.45290553  0.38697098  0.35109341  1  0  0.42198  0  0.847704  0  0  0.386765  0  0.928417  0  0  0.397345  0  0.912738  0  0  0.306929  0.379152  0  0.939733  0
C  C27  1  0.72553900  0.27021710  0.79070203  1  0  0.346308  0  3.727141  0  0  0.323491  0  4.002496  0  0  0.334509  0  4.019092  0  0  0.227786  0.316093  0  3.991193  0
C  C28  1  0.27446271  0.72978141  0.20929656  1  0  0.346414  0  3.727072  0  0  0.323567  0  4.002437  0  0  0.334588  0  4.019032  0  0  0.22781  0.31617  0  3.991135  0
C  C29  1  0.68880474  0.37415513  0.88189952  1  0  -0.191926  0  3.681126  0  0  -0.231669  0  3.931366  0  0  -0.234499  0  3.943318  0  0  -0.153316  -0.229597  0  3.923105  0
C  C30  1  0.31120371  0.62584008  0.11809436  1  0  -0.192061  0  3.681212  0  0  -0.23169  0  3.931286  0  0  -0.234521  0  3.943237  0  0  -0.153343  -0.229627  0  3.92305  0
C  C31  1  0.79734890  0.57268797  0.94522889  1  0  0.338159  0  3.742677  0  0  0.322178  0  4.015263  0  0  0.333185  0  4.031685  0  0  0.217479  0.314808  0  4.004034  0
C  C32  1  0.20264270  0.42730626  0.05477191  1  0  0.33815  0  3.742736  0  0  0.321955  0  4.015586  0  0  0.332962  0  4.03201  0  0  0.217387  0.314584  0  4.004361  0
C  C33  1  0.85305161  0.44664439  0.87291238  1  0  -0.18197  0  3.670204  0  0  -0.225067  0  3.918569  0  0  -0.226779  0  3.928082  0  0  -0.149537  -0.223684  0  3.911941  0
C  C34  1  0.14695271  0.55335399  0.12708815  1  0  -0.18206  0  3.670093  0  0  -0.225021  0  3.918392  0  0  -0.226741  0  3.927914  0  0  -0.149505  -0.223644  0  3.911762  0
C  C35  1  0.19387333  0.93026252  0.86279434  1  0  0.347258  0  3.675838  0  0  0.327426  0  3.947837  0  0  0.338882  0  3.963517  0  0  0.224266  0.31969  0  3.937202  0
C  C36  1  0.80612410  0.06974147  0.13720807  1  0  0.347479  0  3.675702  0  0  0.327525  0  3.947848  0  0  0.338981  0  3.963529  0  0  0.224294  0.319786  0  3.93721  0
C  C37  1  0.03807971  0.02433975  0.92927108  1  0  -0.179293  0  3.670564  0  0  -0.21913  0  3.919051  0  0  -0.221457  0  3.929731  0  0  -0.151961  -0.217371  0  3.91166  0
C  C38  1  0.96190969  0.97566759  0.07073550  1  0  -0.179305  0  3.670506  0  0  -0.219116  0  3.919074  0  0  -0.221445  0  3.929756  0  0  -0.15198  -0.217339  0  3.911664  0
N  N39  1  0.70213024  0.12378441  0.81767268  1  0  -0.322133  0  3.141132  0  0  -0.268191  0  3.427177  0  0  -0.284148  0  3.443259  0  0  -0.234155  -0.257225  0  3.416114  0
N  N40  1  0.29787936  0.87621285  0.18232494  1  0  -0.322088  0  3.141061  0  0  -0.268142  0  3.427099  0  0  -0.284101  0  3.443183  0  0  -0.234141  -0.257177  0  3.416032  0
N  N41  1  0.75714766  0.07345231  0.70821443  1  0  -0.122109  0  3.170287  0  0  -0.084273  0  3.46624  0  0  -0.09144  0  3.481031  0  0  -0.111714  -0.079095  0  3.455956  0
N  N42  1  0.24286048  0.92654719  0.29178328  1  0  -0.122193  0  3.170298  0  0  -0.084368  0  3.46627  0  0  -0.091535  0  3.48106  0  0  -0.111749  -0.079191  0  3.455988  0
N  N43  1  0.81127512  0.18480567  0.61784361  1  0  -0.095402  0  3.084674  0  0  -0.061981  0  3.351168  0  0  -0.063137  0  3.363042  0  0  -0.083307  -0.060857  0  3.34319  0
N  N44  1  0.18872660  0.81519286  0.38215412  1  0  -0.095346  0  3.08463  0  0  -0.061918  0  3.351112  0  0  -0.063077  0  3.362986  0  0  -0.083291  -0.060796  0  3.343137  0
N  N45  1  0.79227749  0.30997818  0.66717060  1  0  -0.31768  0  2.971268  0  0  -0.28095  0  3.226962  0  0  -0.293368  0  3.238242  0  0  -0.211973  -0.272547  0  3.219369  0
N  N46  1  0.20772154  0.69002156  0.33282593  1  0  -0.317692  0  2.971277  0  0  -0.280956  0  3.226965  0  0  -0.293376  0  3.238248  0  0  -0.211952  -0.272553  0  3.219376  0
N  N47  1  0.76776224  0.56433370  0.06738716  1  0  -0.306239  0  2.891992  0  0  -0.291734  0  3.184599  0  0  -0.301176  0  3.193864  0  0  -0.227577  -0.285381  0  3.178291  0
N  N48  1  0.23223189  0.43566145  0.93261717  1  0  -0.306216  0  2.892019  0  0  -0.291638  0  3.184664  0  0  -0.301081  0  3.193933  0  0  -0.227568  -0.285286  0  3.178359  0
N  N49  1  0.69782043  0.69905487  0.09649384  1  0  -0.086263  0  2.962965  0  0  -0.089615  0  3.266802  0  0  -0.085382  0  3.275914  0  0  -0.110842  -0.092092  0  3.260483  0
N  N50  1  0.30217485  0.30094252  0.90350907  1  0  -0.086225  0  2.963034  0  0  -0.089582  0  3.266849  0  0  -0.08535  0  3.275963  0  0  -0.110808  -0.092058  0  3.260529  0
N  N51  1  0.68524950  0.78565106  0.99533005  1  0  -0.14666  0  3.243799  0  0  -0.088496  0  3.538012  0  0  -0.098838  0  3.556518  0  0  -0.139637  -0.081236  0  3.525027  0
N  N52  1  0.31474945  0.21434961  0.00467153  1  0  -0.146771  0  3.243974  0  0  -0.088593  0  3.538159  0  0  -0.098935  0  3.556665  0  0  -0.139637  -0.081332  0  3.525171  0
N  N53  1  0.74736386  0.70928026  0.89867281  1  0  -0.367147  0  3.171521  0  0  -0.308549  0  3.448937  0  0  -0.32688  0  3.467466  0  0  -0.254351  -0.29593  0  3.436033  0
N  N54  1  0.25263655  0.29071811  0.10133041  1  0  -0.367036  0  3.171581  0  0  -0.308373  0  3.449  0  0  -0.3267  0  3.467526  0  0  -0.25432  -0.295758  0  3.436105  0
N  N55  1  0.35593071  0.92590996  0.86756587  1  0  -0.324458  0  3.060246  0  0  -0.276319  0  3.339463  0  0  -0.291748  0  3.356571  0  0  -0.232143  -0.265613  0  3.327591  0
N  N56  1  0.64406787  0.07409618  0.13243770  1  0  -0.324393  0  3.060247  0  0  -0.276227  0  3.339518  0  0  -0.291657  0  3.356631  0  0  -0.23206  -0.265521  0  3.327649  0
N  N57  1  0.45417498  0.83670971  0.78483616  1  0  -0.161196  0  3.275031  0  0  -0.108014  0  3.573661  0  0  -0.119239  0  3.592458  0  0  -0.134307  -0.100059  0  3.560374  0
N  N58  1  0.54582505  0.16329428  0.21516474  1  0  -0.161242  0  3.27517  0  0  -0.108054  0  3.573795  0  0  -0.119279  0  3.592593  0  0  -0.134329  -0.100097  0  3.560507  0
N  N59  1  0.35891037  0.78752929  0.73279668  1  0  -0.076086  0  3.008999  0  0  -0.069561  0  3.290373  0  0  -0.067325  0  3.301952  0  0  -0.095263  -0.070669  0  3.282406  0
N  N60  1  0.64108721  0.21247242  0.26720768  1  0  -0.076091  0  3.008909  0  0  -0.069574  0  3.290277  0  0  -0.067336  0  3.301854  0  0  -0.095274  -0.070682  0  3.282307  0
N  N61  1  0.19492500  0.84415646  0.78024080  1  0  -0.303898  0  3.02113  0  0  -0.262316  0  3.291005  0  0  -0.275481  0  3.302577  0  0  -0.204609  -0.25331  0  3.283104  0
N  N62  1  0.80507786  0.15584377  0.21977101  1  0  -0.304003  0  3.020836  0  0  -0.262373  0  3.290752  0  0  -0.275535  0  3.302318  0  0  -0.20462  -0.253367  0  3.282851  0
O  O63  1  0.79185187  0.86884132  0.48254961  1  0  -0.78017  0  1.81873  0  0  -0.72088  0  1.991959  0  0  -0.741848  0  1.963339  0  0  -0.580244  -0.705966  0  2.011859  0
O  O64  1  0.20815650  0.13115485  0.51744846  1  0  -0.780221  0  1.818707  0  0  -0.720931  0  1.991925  0  0  -0.741898  0  1.963307  0  0  -0.580232  -0.706018  0  2.011824  0
O  O65  1  0.04123430  0.75131075  0.64073365  1  0  -0.829726  0  1.954087  0  0  -0.754855  0  2.168451  0  0  -0.778277  0  2.132827  0  0  -0.593591  -0.738272  0  2.193394  0
O  O66  1  0.95876779  0.24868226  0.35926382  1  0  -0.829725  0  1.954109  0  0  -0.754819  0  2.168449  0  0  -0.778253  0  2.132853  0  0  -0.593567  -0.738237  0  2.193394  0
O  O67  1  0.67499984  0.60803887  0.61565127  1  0  -0.838862  0  1.870237  0  0  -0.767965  0  2.057426  0  0  -0.789088  0  2.022685  0  0  -0.57228  -0.752937  0  2.081828  0
O  O68  1  0.32499231  0.39196649  0.38434715  1  0  -0.838829  0  1.870156  0  0  -0.767904  0  2.057365  0  0  -0.789037  0  2.022641  0  0  -0.572266  -0.752878  0  2.081759  0
