# generated using pymatgen
data_AlH12C24(ClO2)3
_symmetry_space_group_name_H-M   'P 1'
_cell_length_a   4.05561322
_cell_length_b   28.67747897
_cell_length_c   28.67712872
_cell_angle_alpha   119.99959988
_cell_angle_beta   89.99821523
_cell_angle_gamma   90.00095196
_symmetry_Int_Tables_number   1
_chemical_formula_structural   AlH12C24(ClO2)3
_chemical_formula_sum   'Al2 H24 C48 Cl6 O12'
_cell_volume   2888.45461342
_cell_formula_units_Z   2
loop_
 _symmetry_equiv_pos_site_id
 _symmetry_equiv_pos_as_xyz
  1  'x, y, z'
loop_
 _atom_site_type_symbol
 _atom_site_label
 _atom_site_symmetry_multiplicity
 _atom_site_fract_x
 _atom_site_fract_y
 _atom_site_fract_z
 _atom_site_occupancy
 _atom_site_pbe_bader_charge
 _atom_site_pbe_bader_spin_density
 _atom_site_pbe_cm5_charge
 _atom_site_pbe_ddec_charge
 _atom_site_pbe_ddec_spin_density
 _atom_site_pbe_ddec_sum_bond_order
 _atom_site_pbe_magmom
Al  Al0  1  0.98434100  0.50000052  0.50000033  1  2.508961  0  0.432895  1.61085  0  2.561063  0
Al  Al1  1  0.98436180  0.16666594  0.83333259  1  2.508846  0  0.432747  1.610865  0  2.56121  0
H  H2  1  0.16374428  0.19281620  0.70534195  1  0.057275  0  0.110234  0.116273  0  0.984245  0
H  H3  1  0.18031701  0.24724408  0.66055872  1  0.099033  0  0.090968  0.09584  0  1.043331  0
H  H4  1  0.82094550  0.36134653  0.78597406  1  0.077223  0  0.094648  0.098942  0  1.025193  0
H  H5  1  0.81268478  0.30482989  0.82890565  1  0.093711  0  0.110365  0.115778  0  0.985784  0
H  H6  1  0.82096826  0.30533000  0.54736969  1  0.076906  0  0.094661  0.098835  0  1.025274  0
H  H7  1  0.18033304  0.41943326  0.67279036  1  0.098936  0  0.090868  0.095743  0  1.04319  0
H  H8  1  0.16371474  0.47385117  0.62799764  1  0.056801  0  0.110209  0.116208  0  0.984328  0
H  H9  1  0.81267907  0.36183612  0.50442842  1  0.093813  0  0.110388  0.115733  0  0.985897  0
H  H10  1  0.16375972  0.01252294  0.80718475  1  0.107877  0  0.110218  0.116289  0  0.984166  0
H  H11  1  0.18033813  0.91331229  0.75275800  1  0.090133  0  0.090936  0.095843  0  1.043255  0
H  H12  1  0.82098431  0.92462978  0.63865456  1  0.087752  0  0.094632  0.098887  0  1.025264  0
H  H13  1  0.81270776  0.02407682  0.69516869  1  0.08989  0  0.110362  0.115824  0  0.985701  0
H  H14  1  0.82098735  0.74204313  0.69466884  1  0.090023  0  0.094672  0.098879  0  1.025184  0
H  H15  1  0.18033284  0.75335558  0.58056610  1  0.088589  0  0.090858  0.095665  0  1.04317  0
H  H16  1  0.16375601  0.65414505  0.52614097  1  0.10815  0  0.110252  0.116269  0  0.984269  0
H  H17  1  0.81271527  0.64259635  0.63815683  1  0.090131  0  0.110379  0.115693  0  0.985862  0
H  H18  1  0.16375148  0.29465786  0.98747629  1  0.074273  0  0.110211  0.116253  0  0.984224  0
H  H19  1  0.18033559  0.33944263  0.08668763  1  0.105649  0  0.090942  0.095804  0  1.043338  0
H  H20  1  0.82094538  0.21402280  0.07537025  1  0.080508  0  0.094642  0.098877  0  1.025265  0
H  H21  1  0.81268321  0.17108991  0.97592220  1  0.100755  0  0.110353  0.115774  0  0.985743  0
H  H22  1  0.82101080  0.45263258  0.25795165  1  0.089659  0  0.094601  0.098799  0  1.025255  0
H  H23  1  0.18036183  0.32721949  0.24664553  1  0.106572  0  0.090936  0.095787  0  1.043325  0
H  H24  1  0.16376672  0.37200889  0.34585625  1  0.07342  0  0.11021  0.1162  0  0.98422  0
H  H25  1  0.81274722  0.49557171  0.35740023  1  0.100848  0  0.110344  0.115753  0  0.985844  0
C  C26  1  0.48484508  0.46307430  0.41765782  1  1.604288  0  0.274876  0.651632  0  4.066217  0
C  C27  1  0.48482172  0.45458763  0.53692846  1  1.595605  0  0.274934  0.651678  0  4.0663  0
C  C28  1  0.48482820  0.58234226  0.54541030  1  1.602751  0  0.274924  0.651665  0  4.066737  0
C  C29  1  0.48484597  0.21207732  0.79640524  1  1.596741  0  0.27489  0.651626  0  4.066369  0
C  C30  1  0.48484936  0.08432801  0.78792227  1  1.603523  0  0.274954  0.651775  0  4.066002  0
C  C31  1  0.48484481  0.20359313  0.91567271  1  1.605028  0  0.274868  0.65158  0  4.066306  0
C  C32  1  0.49103976  0.24498038  0.76954521  1  -0.038755  0  -0.009806  -0.041453  0  3.965908  0
C  C33  1  0.31405229  0.22911375  0.72197737  1  -0.025635  0  -0.078851  -0.078839  0  3.964863  0
C  C34  1  0.32529802  0.25975225  0.69679959  1  -0.032468  0  -0.091674  -0.120557  0  3.973338  0
C  C35  1  0.51033329  0.30779308  0.71898949  1  0.035812  0  -0.015314  0.065204  0  4.015608  0
C  C36  1  0.67851310  0.32419785  0.76778645  1  -0.043483  0  -0.092988  -0.122901  0  3.974228  0
C  C37  1  0.67348103  0.29283964  0.79215311  1  -0.021539  0  -0.078554  -0.077938  0  3.972335  0
C  C38  1  0.52176662  0.34140462  0.69348461  1  0.127273  0  0.009245  0.029039  0  3.957535  0
C  C39  1  0.52182578  0.32527651  0.63986833  1  0.032025  0  0.009429  0.029185  0  3.957492  0
C  C40  1  0.67855100  0.34247759  0.56555967  1  -0.041971  0  -0.092944  -0.122635  0  3.97397  0
C  C41  1  0.51039943  0.35888503  0.61435885  1  0.035321  0  -0.015238  0.065151  0  4.015818  0
C  C42  1  0.32533530  0.40692487  0.63654701  1  -0.033431  0  -0.091673  -0.120579  0  3.973708  0
C  C43  1  0.31405176  0.43755848  0.61136720  1  -0.024499  0  -0.078819  -0.078733  0  3.965138  0
C  C44  1  0.49103543  0.42168870  0.56379340  1  -0.038461  0  -0.009825  -0.041429  0  3.965939  0
C  C45  1  0.67347609  0.37383247  0.54118730  1  -0.022623  0  -0.078651  -0.07804  0  3.972377  0
C  C46  1  0.49105817  0.02456451  0.75502103  1  -0.045934  0  -0.009824  -0.041508  0  3.966017  0
C  C47  1  0.31407886  0.99286132  0.77088670  1  -0.010653  0  -0.078943  -0.078999  0  3.965052  0
C  C48  1  0.32532757  0.93704422  0.74024878  1  -0.031321  0  -0.091639  -0.120459  0  3.973331  0
C  C49  1  0.51037608  0.91119515  0.69220994  1  0.017218  0  -0.015268  0.065022  0  4.015782  0
C  C50  1  0.67855653  0.94358973  0.67580536  1  -0.034636  0  -0.092946  -0.122722  0  3.974226  0
C  C51  1  0.67350655  0.99931386  0.70716044  1  -0.020094  0  -0.078488  -0.077952  0  3.972177  0
C  C52  1  0.52180739  0.85207965  0.65859652  1  0.086824  0  0.009248  0.029121  0  3.957564  0
C  C53  1  0.52182319  0.81459222  0.67472358  1  -0.018496  0  0.009457  0.029293  0  3.957477  0
C  C54  1  0.67856055  0.72308315  0.65751866  1  -0.036962  0  -0.092916  -0.122672  0  3.973988  0
C  C55  1  0.51038989  0.75547519  0.64111312  1  0.016278  0  -0.015289  0.064996  0  4.015878  0
C  C56  1  0.32535873  0.72962315  0.59307175  1  -0.004286  0  -0.091569  -0.120292  0  3.973335  0
C  C57  1  0.31410283  0.67380919  0.56243702  1  -0.034675  0  -0.078891  -0.078865  0  3.965054  0
C  C58  1  0.49108360  0.64210569  0.57830460  1  -0.046877  0  -0.00975  -0.041375  0  3.965886  0
C  C59  1  0.67350109  0.66735652  0.62616192  1  -0.020249  0  -0.078744  -0.078057  0  3.972402  0
C  C60  1  0.49105099  0.23045386  0.97543504  1  -0.029206  0  -0.009778  -0.041372  0  3.966039  0
C  C61  1  0.31406647  0.27802273  0.00713856  1  -0.072366  0  -0.078908  -0.078964  0  3.965104  0
C  C62  1  0.32532032  0.30320148  0.06295474  1  -0.012974  0  -0.091661  -0.120474  0  3.97348  0
C  C63  1  0.51036591  0.28101277  0.08880506  1  0.004158  0  -0.015281  0.065142  0  4.015821  0
C  C64  1  0.67852614  0.23221361  0.05641213  1  0.072552  0  -0.092961  -0.12273  0  3.974186  0
C  C65  1  0.67348348  0.20784512  0.00068464  1  -0.127572  0  -0.078524  -0.077975  0  3.972244  0
C  C66  1  0.52181667  0.30651906  0.14791958  1  0.121429  0  0.00926  0.028948  0  3.957428  0
C  C67  1  0.52183295  0.36013607  0.18540382  1  0.042513  0  0.009429  0.029382  0  3.957168  0
C  C68  1  0.67858039  0.43444378  0.27691323  1  0.06273  0  -0.092948  -0.122678  0  3.974016  0
C  C69  1  0.51040431  0.38564548  0.24452433  1  0.004928  0  -0.015297  0.064991  0  4.01557  0
C  C70  1  0.32536530  0.36345893  0.27037604  1  -0.014338  0  -0.091634  -0.120421  0  3.973594  0
C  C71  1  0.31411207  0.38863963  0.32619101  1  -0.070792  0  -0.07896  -0.078804  0  3.965188  0
C  C72  1  0.49108584  0.43620872  0.35789263  1  -0.028912  0  -0.009797  -0.041534  0  3.966108  0
C  C73  1  0.67353580  0.45881643  0.33264007  1  -0.128016  0  -0.078534  -0.077969  0  3.972227  0
Cl  Cl74  1  0.56189760  0.41011434  0.73961588  1  -0.198171  0  0.011213  -0.06452  0  1.583865  0
Cl  Cl75  1  0.56217091  0.25656643  0.59374214  1  -0.198299  0  0.011222  -0.064551  0  1.583797  0
Cl  Cl76  1  0.56194561  0.82950085  0.58988560  1  -0.200779  0  0.011129  -0.064624  0  1.583921  0
Cl  Cl77  1  0.56212164  0.83717308  0.74343436  1  -0.200606  0  0.011225  -0.064547  0  1.583814  0
Cl  Cl78  1  0.56201015  0.26039333  0.17050494  1  -0.20023  0  0.011205  -0.064528  0  1.583896  0
Cl  Cl79  1  0.56209833  0.40626210  0.16281939  1  -0.200008  0  0.011229  -0.064566  0  1.583856  0
O  O80  1  0.71791025  0.55691329  0.55305311  1  -1.261372  0  -0.239678  -0.603377  0  2.369317  0
O  O81  1  0.71794091  0.49614216  0.44308825  1  -1.262549  0  -0.239586  -0.603301  0  2.368934  0
O  O82  1  0.71791911  0.44695084  0.50385934  1  -1.260146  0  -0.239621  -0.60332  0  2.369188  0
O  O83  1  0.24798600  0.56054035  0.51199013  1  -1.261168  0  -0.239122  -0.600154  0  2.35932  0
O  O84  1  0.24796795  0.48800873  0.54855060  1  -1.25395  0  -0.239138  -0.600149  0  2.359109  0
O  O85  1  0.24799992  0.45145163  0.43945802  1  -1.256136  0  -0.239066  -0.600045  0  2.359171  0
O  O86  1  0.71794728  0.17052445  0.89024282  1  -1.262907  0  -0.239612  -0.60334  0  2.368966  0
O  O87  1  0.71795676  0.21971593  0.82947228  1  -1.261002  0  -0.23966  -0.603366  0  2.369028  0
O  O88  1  0.71796068  0.10975621  0.78028206  1  -1.262323  0  -0.239681  -0.603437  0  2.368882  0
O  O89  1  0.24801561  0.21521641  0.89387219  1  -1.256402  0  -0.239089  -0.600108  0  2.359228  0
O  O90  1  0.24801966  0.10612870  0.82134674  1  -1.261133  0  -0.239086  -0.600124  0  2.35916  0
O  O91  1  0.24801799  0.17865078  0.78478116  1  -1.25432  0  -0.239042  -0.60011  0  2.35932  0
