# generated using pymatgen
data_Ag2H3C7NO5
_symmetry_space_group_name_H-M   'P 1'
_cell_length_a   5.35736784
_cell_length_b   8.48949988
_cell_length_c   17.96328249
_cell_angle_alpha   92.55480361
_cell_angle_beta   89.99985541
_cell_angle_gamma   89.99985180
_symmetry_Int_Tables_number   1
_chemical_formula_structural   Ag2H3C7NO5
_chemical_formula_sum   'Ag8 H12 C28 N4 O20'
_cell_volume   816.18270503
_cell_formula_units_Z   4
loop_
 _symmetry_equiv_pos_site_id
 _symmetry_equiv_pos_as_xyz
  1  'x, y, z'
loop_
 _atom_site_type_symbol
 _atom_site_label
 _atom_site_symmetry_multiplicity
 _atom_site_fract_x
 _atom_site_fract_y
 _atom_site_fract_z
 _atom_site_occupancy
 _atom_site_hle17_bader_spin_density
 _atom_site_hle17_ddec_charge
 _atom_site_hle17_ddec_spin_density
 _atom_site_hle17_ddec_sum_bond_order
 _atom_site_hle17_magmom
 _atom_site_hse06_10hf_bader_spin_density
 _atom_site_hse06_10hf_ddec_charge
 _atom_site_hse06_10hf_ddec_spin_density
 _atom_site_hse06_10hf_ddec_sum_bond_order
 _atom_site_hse06_10hf_magmom
 _atom_site_hse06_bader_spin_density
 _atom_site_hse06_ddec_charge
 _atom_site_hse06_ddec_spin_density
 _atom_site_hse06_ddec_sum_bond_order
 _atom_site_hse06_magmom
 _atom_site_pbe_bader_spin_density
 _atom_site_pbe_cm5_charge
 _atom_site_pbe_ddec_charge
 _atom_site_pbe_ddec_spin_density
 _atom_site_pbe_ddec_sum_bond_order
 _atom_site_pbe_magmom
Ag  Ag0  1  0.20856957  0.62488100  0.43509145  1  0  0.621002  0  1.410394  0  0  0.515634  0  1.867565  0  0  0.548549  0  1.807088  0  0  0.423557  0.493092  0  1.90922  0
Ag  Ag1  1  0.70854658  0.37513307  0.06491607  1  0  0.620983  0  1.410319  0  0  0.515615  0  1.867466  0  0  0.548529  0  1.806986  0  0  0.423556  0.493068  0  1.909116  0
Ag  Ag2  1  0.79145464  0.37513397  0.56491842  1  0  0.620972  0  1.410345  0  0  0.515586  0  1.867518  0  0  0.5485  0  1.807042  0  0  0.423526  0.493039  0  1.909173  0
Ag  Ag3  1  0.29144590  0.62486748  0.93508525  1  0  0.620966  0  1.410312  0  0  0.515596  0  1.867437  0  0  0.548511  0  1.806956  0  0  0.423557  0.493049  0  1.90908  0
Ag  Ag4  1  0.63748118  0.80269574  0.47551954  1  0  0.674353  0  1.246941  0  0  0.557527  0  1.680192  0  0  0.593603  0  1.620552  0  0  0.427455  0.531445  0  1.722097  0
Ag  Ag5  1  0.13745508  0.19731104  0.02447735  1  0  0.674386  0  1.24683  0  0  0.557547  0  1.680106  0  0  0.59362  0  1.620464  0  0  0.427451  0.531465  0  1.722012  0
Ag  Ag6  1  0.36255423  0.19731038  0.52447184  1  0  0.674345  0  1.246886  0  0  0.557537  0  1.680126  0  0  0.593607  0  1.620483  0  0  0.427461  0.531452  0  1.722036  0
Ag  Ag7  1  0.86253553  0.80268479  0.97552390  1  0  0.674394  0  1.24682  0  0  0.55752  0  1.680151  0  0  0.593597  0  1.620498  0  0  0.427443  0.531434  0  1.722058  0
H  H8  1  0.78969374  0.45338598  0.24786912  1  0  0.116  0  0.960776  0  0  0.125935  0  1.022228  0  0  0.128593  0  1.022028  0  0  0.10887  0.123961  0  1.022713  0
H  H9  1  0.28970734  0.54662065  0.25213155  1  0  0.115915  0  0.960792  0  0  0.125887  0  1.022212  0  0  0.128544  0  1.022016  0  0  0.108856  0.123918  0  1.022682  0
H  H10  1  0.21029128  0.54662407  0.75213456  1  0  0.11592  0  0.960729  0  0  0.125878  0  1.022183  0  0  0.128537  0  1.021987  0  0  0.108867  0.123905  0  1.022657  0
H  H11  1  0.71032434  0.45336693  0.74786959  1  0  0.115828  0  0.960774  0  0  0.125769  0  1.02225  0  0  0.128427  0  1.02205  0  0  0.108818  0.123797  0  1.022721  0
H  H12  1  0.08947925  0.27608223  0.17591241  1  0  0.088887  0  0.979148  0  0  0.093544  0  1.057223  0  0  0.098359  0  1.050869  0  0  0.098432  0.089947  0  1.061898  0
H  H13  1  0.58950317  0.72392348  0.32408507  1  0  0.088931  0  0.979145  0  0  0.093609  0  1.057173  0  0  0.098428  0  1.050819  0  0  0.098425  0.090012  0  1.061838  0
H  H14  1  0.91047030  0.72391455  0.82408162  1  0  0.088924  0  0.979209  0  0  0.093573  0  1.057281  0  0  0.098381  0  1.050935  0  0  0.098429  0.089975  0  1.061955  0
H  H15  1  0.41051544  0.27607709  0.67591681  1  0  0.088934  0  0.979149  0  0  0.093587  0  1.05722  0  0  0.098406  0  1.050869  0  0  0.098438  0.089987  0  1.061892  0
H  H16  1  0.28452482  0.05323413  0.24050010  1  0  0.11624  0  0.963414  0  0  0.124326  0  1.024923  0  0  0.127027  0  1.02489  0  0  0.108832  0.122367  0  1.025168  0
H  H17  1  0.78453722  0.94676994  0.25949386  1  0  0.116261  0  0.96339  0  0  0.124335  0  1.024914  0  0  0.127039  0  1.024872  0  0  0.108815  0.122373  0  1.025167  0
H  H18  1  0.71542286  0.94675552  0.75949216  1  0  0.116241  0  0.963366  0  0  0.124309  0  1.024908  0  0  0.127015  0  1.024863  0  0  0.10879  0.122342  0  1.025165  0
H  H19  1  0.21544593  0.05324113  0.74050483  1  0  0.116181  0  0.963421  0  0  0.124332  0  1.024877  0  0  0.127034  0  1.024841  0  0  0.108804  0.122373  0  1.025122  0
C  C20  1  0.67215968  0.44458660  0.39457136  1  0  0.629924  0  3.947785  0  0  0.573951  0  4.243517  0  0  0.60967  0  4.235571  0  0  0.208842  0.549426  0  4.248173  0
C  C21  1  0.17213339  0.55542510  0.10543392  1  0  0.629324  0  3.94833  0  0  0.573317  0  4.244163  0  0  0.609037  0  4.236242  0  0  0.208607  0.548792  0  4.248805  0
C  C22  1  0.32785706  0.55542114  0.60543396  1  0  0.629328  0  3.948359  0  0  0.573263  0  4.244211  0  0  0.608988  0  4.236288  0  0  0.208553  0.548736  0  4.248857  0
C  C23  1  0.82787215  0.44456959  0.89456843  1  0  0.62943  0  3.948146  0  0  0.573452  0  4.244016  0  0  0.609177  0  4.23609  0  0  0.208672  0.548928  0  4.248664  0
C  C24  1  0.84262812  0.33608012  0.34958209  1  0  0.027703  0  3.609876  0  0  0.026483  0  3.857443  0  0  0.030052  0  3.869418  0  0  0.110396  0.024137  0  3.849715  0
C  C25  1  0.34261971  0.66392877  0.15041857  1  0  0.027829  0  3.609826  0  0  0.026546  0  3.857485  0  0  0.030119  0  3.869456  0  0  0.110379  0.024199  0  3.849764  0
C  C26  1  0.15737369  0.66392173  0.65042315  1  0  0.027641  0  3.610054  0  0  0.026567  0  3.85746  0  0  0.03014  0  3.869434  0  0  0.110387  0.024221  0  3.849727  0
C  C27  1  0.65738397  0.33606470  0.84958265  1  0  0.028096  0  3.609429  0  0  0.026626  0  3.857347  0  0  0.030193  0  3.869324  0  0  0.110432  0.02428  0  3.849617  0
C  C28  1  0.88496074  0.35750674  0.27437060  1  0  -0.114054  0  3.725806  0  0  -0.134925  0  3.975582  0  0  -0.138389  0  3.99264  0  0  -0.081271  -0.133156  0  3.964565  0
C  C29  1  0.38497046  0.64249735  0.22562941  1  0  -0.113879  0  3.725787  0  0  -0.134753  0  3.975525  0  0  -0.13822  0  3.99258  0  0  -0.081155  -0.132988  0  3.96451  0
C  C30  1  0.11502053  0.64249613  0.72562964  1  0  -0.113811  0  3.72597  0  0  -0.134744  0  3.975693  0  0  -0.138211  0  3.99274  0  0  -0.081176  -0.132974  0  3.964673  0
C  C31  1  0.61505002  0.35749263  0.77437288  1  0  -0.11385  0  3.725719  0  0  -0.134641  0  3.975507  0  0  -0.138104  0  3.992575  0  0  -0.081166  -0.132872  0  3.964482  0
C  C32  1  0.04999137  0.25930335  0.23448048  1  0  -0.009707  0  3.727866  0  0  -0.033662  0  3.989722  0  0  -0.02872  0  4.002946  0  0  -0.07904  -0.036541  0  3.980753  0
C  C33  1  0.55000264  0.74069649  0.26551583  1  0  -0.009761  0  3.728015  0  0  -0.0337  0  3.989791  0  0  -0.028777  0  4.003051  0  0  -0.079039  -0.036572  0  3.980808  0
C  C34  1  0.94998805  0.74068290  0.76551619  1  0  -0.00982  0  3.727881  0  0  -0.033741  0  3.989685  0  0  -0.028825  0  4.00297  0  0  -0.079135  -0.036618  0  3.98071  0
C  C35  1  0.45001597  0.25930165  0.73448379  1  0  -0.009736  0  3.727819  0  0  -0.033671  0  3.98967  0  0  -0.028732  0  4.002886  0  0  -0.07903  -0.03655  0  3.9807  0
C  C36  1  0.15983644  0.13504919  0.27026476  1  0  -0.100571  0  3.718321  0  0  -0.121415  0  3.969224  0  0  -0.124185  0  3.984337  0  0  -0.078585  -0.120062  0  3.959461  0
C  C37  1  0.65984193  0.86495399  0.22973151  1  0  -0.100692  0  3.718199  0  0  -0.121497  0  3.969174  0  0  -0.124266  0  3.984283  0  0  -0.078586  -0.120147  0  3.959414  0
C  C38  1  0.84013363  0.86494873  0.72972817  1  0  -0.100632  0  3.71795  0  0  -0.121456  0  3.968927  0  0  -0.124225  0  3.984025  0  0  -0.078488  -0.120101  0  3.959167  0
C  C39  1  0.34015428  0.13504659  0.77027093  1  0  -0.100581  0  3.718253  0  0  -0.121511  0  3.969226  0  0  -0.124279  0  3.984339  0  0  -0.078571  -0.120161  0  3.959472  0
C  C40  1  0.10913404  0.11327668  0.34473043  1  0  0.032557  0  3.611813  0  0  0.027547  0  3.862637  0  0  0.032405  0  3.872441  0  0  0.113595  0.024293  0  3.856342  0
C  C41  1  0.60912700  0.88672777  0.15526590  1  0  0.032713  0  3.611568  0  0  0.027531  0  3.862615  0  0  0.032388  0  3.872417  0  0  0.113602  0.024267  0  3.856334  0
C  C42  1  0.89086590  0.88672129  0.65526418  1  0  0.032754  0  3.611901  0  0  0.027684  0  3.862824  0  0  0.032548  0  3.872632  0  0  0.113639  0.024421  0  3.856533  0
C  C43  1  0.39086175  0.11326924  0.84473537  1  0  0.032534  0  3.611968  0  0  0.027513  0  3.86288  0  0  0.032368  0  3.872681  0  0  0.113623  0.02425  0  3.856599  0
C  C44  1  0.20711876  0.97471577  0.38555952  1  0  0.64212  0  3.948705  0  0  0.587716  0  4.239727  0  0  0.622949  0  4.233814  0  0  0.212124  0.563627  0  4.242694  0
C  C45  1  0.70711538  0.02529319  0.11443568  1  0  0.642151  0  3.948888  0  0  0.587788  0  4.239888  0  0  0.623021  0  4.233977  0  0  0.212078  0.563709  0  4.242852  0
C  C46  1  0.79288119  0.02528685  0.61443292  1  0  0.642089  0  3.948865  0  0  0.587667  0  4.239932  0  0  0.622877  0  4.234064  0  0  0.211981  0.56359  0  4.242897  0
C  C47  1  0.29287523  0.97470963  0.88556289  1  0  0.642257  0  3.948482  0  0  0.587784  0  4.239638  0  0  0.623017  0  4.233718  0  0  0.212033  0.563707  0  4.242607  0
N  N48  1  0.96015607  0.21703771  0.38466234  1  0  0.248354  0  3.665497  0  0  0.29145  0  3.91844  0  0  0.293483  0  3.938862  0  0  -0.099971  0.289306  0  3.904918  0
N  N49  1  0.46014002  0.78296742  0.11533762  1  0  0.2484  0  3.665371  0  0  0.29154  0  3.918347  0  0  0.293573  0  3.938765  0  0  -0.099942  0.289394  0  3.90483  0
N  N50  1  0.03984947  0.78296749  0.61533682  1  0  0.248334  0  3.665668  0  0  0.291383  0  3.918613  0  0  0.293416  0  3.939033  0  0  -0.09996  0.28924  0  3.905095  0
N  N51  1  0.53984686  0.21702611  0.88466527  1  0  0.248324  0  3.665477  0  0  0.291512  0  3.918448  0  0  0.293544  0  3.938871  0  0  -0.099943  0.289369  0  3.90493  0
O  O52  1  0.44155211  0.42756896  0.38330169  1  0  -0.578551  0  2.078228  0  0  -0.514586  0  2.349641  0  0  -0.547005  0  2.341681  0  0  -0.299542  -0.491789  0  2.354306  0
O  O53  1  0.94152980  0.57245404  0.11670354  1  0  -0.578273  0  2.078241  0  0  -0.514279  0  2.349635  0  0  -0.546703  0  2.341691  0  0  -0.299391  -0.491483  0  2.354292  0
O  O54  1  0.55847210  0.57245179  0.61670492  1  0  -0.578275  0  2.078015  0  0  -0.514278  0  2.349438  0  0  -0.546704  0  2.341488  0  0  -0.299377  -0.491478  0  2.354092  0
O  O55  1  0.05846827  0.42754774  0.88329947  1  0  -0.578277  0  2.078338  0  0  -0.51428  0  2.34973  0  0  -0.546704  0  2.341784  0  0  -0.299412  -0.491487  0  2.354389  0
O  O56  1  0.77590241  0.54996212  0.43717327  1  0  -0.65809  0  2.242562  0  0  -0.57635  0  2.543913  0  0  -0.609594  0  2.526426  0  0  -0.322571  -0.552999  0  2.555182  0
O  O57  1  0.27586755  0.45004350  0.06283185  1  0  -0.657802  0  2.242605  0  0  -0.576053  0  2.543993  0  0  -0.609274  0  2.526451  0  0  -0.322481  -0.552695  0  2.555238  0
O  O58  1  0.22414046  0.45003277  0.56283521  1  0  -0.657728  0  2.242857  0  0  -0.57602  0  2.544341  0  0  -0.609217  0  2.526744  0  0  -0.32245  -0.552667  0  2.555595  0
O  O59  1  0.72412866  0.54995476  0.93717167  1  0  -0.657907  0  2.242435  0  0  -0.576161  0  2.543869  0  0  -0.609368  0  2.526278  0  0  -0.322528  -0.552799  0  2.555102  0
O  O60  1  0.93287376  0.19810250  0.45671918  1  0  -0.526917  0  1.836621  0  0  -0.481396  0  2.11025  0  0  -0.507335  0  2.103592  0  0  -0.231715  -0.463288  0  2.114801  0
O  O61  1  0.43285636  0.80190146  0.04327967  1  0  -0.527077  0  1.836678  0  0  -0.481492  0  2.110254  0  0  -0.507432  0  2.103592  0  0  -0.231762  -0.463378  0  2.1148  0
O  O62  1  0.06714859  0.80190269  0.54327998  1  0  -0.526952  0  1.836752  0  0  -0.481384  0  2.110366  0  0  -0.50732  0  2.103703  0  0  -0.231741  -0.463283  0  2.114927  0
O  O63  1  0.56713052  0.19809557  0.95672216  1  0  -0.527038  0  1.836722  0  0  -0.481501  0  2.110327  0  0  -0.507439  0  2.103664  0  0  -0.231784  -0.463401  0  2.114887  0
O  O64  1  0.41262248  0.99607534  0.42003196  1  0  -0.615651  0  2.122462  0  0  -0.538076  0  2.398666  0  0  -0.572474  0  2.386724  0  0  -0.31536  -0.51361  0  2.405898  0
O  O65  1  0.91262507  0.00392269  0.07996460  1  0  -0.61573  0  2.122493  0  0  -0.538143  0  2.398667  0  0  -0.572544  0  2.386725  0  0  -0.315334  -0.513682  0  2.405906  0
O  O66  1  0.58738493  0.00392362  0.57995654  1  0  -0.61566  0  2.122585  0  0  -0.538075  0  2.398813  0  0  -0.572466  0  2.38688  0  0  -0.315252  -0.513617  0  2.406051  0
O  O67  1  0.08736928  0.99606961  0.92003661  1  0  -0.61577  0  2.122343  0  0  -0.538172  0  2.398601  0  0  -0.572572  0  2.386652  0  0  -0.315354  -0.513713  0  2.405842  0
O  O68  1  0.07843083  0.85072467  0.37813710  1  0  -0.593624  0  2.050532  0  0  -0.523755  0  2.310658  0  0  -0.557049  0  2.30174  0  0  -0.304064  -0.500205  0  2.315774  0
O  O69  1  0.57843065  0.14928101  0.12185927  1  0  -0.593685  0  2.050783  0  0  -0.523748  0  2.310803  0  0  -0.557046  0  2.301886  0  0  -0.304058  -0.500195  0  2.315907  0
O  O70  1  0.92156911  0.14927923  0.62185870  1  0  -0.593685  0  2.05062  0  0  -0.523743  0  2.31067  0  0  -0.557038  0  2.30177  0  0  -0.304042  -0.500179  0  2.315749  0
O  O71  1  0.42155623  0.85071705  0.87813812  1  0  -0.59374  0  2.050572  0  0  -0.523757  0  2.310599  0  0  -0.557053  0  2.301675  0  0  -0.304048  -0.5002  0  2.315692  0
