# generated using pymatgen
data_CuH4(C2N)2
_symmetry_space_group_name_H-M   'P 1'
_cell_length_a   7.82977614
_cell_length_b   8.89648078
_cell_length_c   14.47787442
_cell_angle_alpha   76.54807314
_cell_angle_beta   88.29254593
_cell_angle_gamma   88.53440377
_symmetry_Int_Tables_number   1
_chemical_formula_structural   CuH4(C2N)2
_chemical_formula_sum   'Cu8 H32 C32 N16'
_cell_volume   980.20849991
_cell_formula_units_Z   8
loop_
 _symmetry_equiv_pos_site_id
 _symmetry_equiv_pos_as_xyz
  1  'x, y, z'
loop_
 _atom_site_type_symbol
 _atom_site_label
 _atom_site_symmetry_multiplicity
 _atom_site_fract_x
 _atom_site_fract_y
 _atom_site_fract_z
 _atom_site_occupancy
 _atom_site_hle17_bader_spin_density
 _atom_site_hle17_ddec_charge
 _atom_site_hle17_ddec_spin_density
 _atom_site_hle17_ddec_sum_bond_order
 _atom_site_hle17_magmom
 _atom_site_hse06_10hf_bader_spin_density
 _atom_site_hse06_10hf_ddec_charge
 _atom_site_hse06_10hf_ddec_spin_density
 _atom_site_hse06_10hf_ddec_sum_bond_order
 _atom_site_hse06_10hf_magmom
 _atom_site_hse06_bader_spin_density
 _atom_site_hse06_ddec_charge
 _atom_site_hse06_ddec_spin_density
 _atom_site_hse06_ddec_sum_bond_order
 _atom_site_hse06_magmom
 _atom_site_pbe_bader_spin_density
 _atom_site_pbe_cm5_charge
 _atom_site_pbe_ddec_charge
 _atom_site_pbe_ddec_spin_density
 _atom_site_pbe_ddec_sum_bond_order
 _atom_site_pbe_magmom
Cu  Cu0  1  0.21105801  0.37815780  0.61731062  1  0  0.414808  0  2.215816  0  0  0.329622  0  2.687961  0  0  0.320169  0  2.648093  0  0  0.514327  0.339566  0  2.711969  0
Cu  Cu1  1  0.78894443  0.62184748  0.38269267  1  0  0.414721  0  2.215827  0  0  0.329564  0  2.68802  0  0  0.320082  0  2.648169  0  0  0.514281  0.3395  0  2.712026  0
Cu  Cu2  1  0.46466343  0.88842067  0.56985220  1  0  0.385248  0  2.371136  0  0  0.311509  0  2.863518  0  0  0.297394  0  2.824746  0  0  0.507591  0.324969  0  2.886004  0
Cu  Cu3  1  0.53534155  0.11158460  0.43014759  1  0  0.385311  0  2.371139  0  0  0.311555  0  2.863517  0  0  0.297457  0  2.824747  0  0  0.507615  0.325009  0  2.886005  0
Cu  Cu4  1  0.18647102  0.59563184  0.80612617  1  0  0.430585  0  2.178502  0  0  0.345037  0  2.647801  0  0  0.335351  0  2.610672  0  0  0.518646  0.354869  0  2.670311  0
Cu  Cu5  1  0.81352652  0.40436304  0.19387732  1  0  0.430584  0  2.178542  0  0  0.345024  0  2.647855  0  0  0.335337  0  2.610725  0  0  0.518631  0.354854  0  2.670366  0
Cu  Cu6  1  0.44359262  0.09320641  0.79786278  1  0  0.434888  0  2.187971  0  0  0.353021  0  2.654428  0  0  0.341266  0  2.620007  0  0  0.525013  0.364254  0  2.674843  0
Cu  Cu7  1  0.55640356  0.90679075  0.20213420  1  0  0.434983  0  2.187973  0  0  0.353048  0  2.654394  0  0  0.341343  0  2.619983  0  0  0.525035  0.36428  0  2.674813  0
H  H8  1  0.56046088  0.34052204  0.63538123  1  0  0.094715  0  0.955655  0  0  0.100652  0  1.022396  0  0  0.104143  0  1.020058  0  0  0.117224  0.097824  0  1.024541  0
H  H9  1  0.43953773  0.65948207  0.36461884  1  0  0.094753  0  0.955637  0  0  0.100693  0  1.022358  0  0  0.104182  0  1.020021  0  0  0.11723  0.097865  0  1.024502  0
H  H10  1  0.84003536  0.45982375  0.57466145  1  0  0.084204  0  0.951744  0  0  0.088019  0  1.025594  0  0  0.093383  0  1.019622  0  0  0.113107  0.083909  0  1.030245  0
H  H11  1  0.15996326  0.54018037  0.42533932  1  0  0.084204  0  0.951794  0  0  0.088018  0  1.025655  0  0  0.093383  0  1.019681  0  0  0.113083  0.083909  0  1.030307  0
H  H12  1  0.09534808  0.12387604  0.77504064  1  0  0.092186  0  0.969763  0  0  0.095876  0  1.043152  0  0  0.100004  0  1.040117  0  0  0.113172  0.092755  0  1.045548  0
H  H13  1  0.90464929  0.87612576  0.22495910  1  0  0.092203  0  0.969793  0  0  0.095899  0  1.043168  0  0  0.100026  0  1.040129  0  0  0.113174  0.092774  0  1.045567  0
H  H14  1  0.93797723  0.91360376  0.87215389  1  0  0.09001  0  0.928616  0  0  0.107266  0  0.986185  0  0  0.107721  0  0.987504  0  0  0.097674  0.106881  0  0.985315  0
H  H15  1  0.06201891  0.08639573  0.12784482  1  0  0.089987  0  0.928632  0  0  0.107226  0  0.986202  0  0  0.107681  0  0.987521  0  0  0.097652  0.106836  0  0.985328  0
H  H16  1  0.71680782  0.89324888  0.85266727  1  0  0.079812  0  0.951116  0  0  0.09238  0  1.022426  0  0  0.093827  0  1.021917  0  0  0.093124  0.091246  0  1.022797  0
H  H17  1  0.28318825  0.10675407  0.14733025  1  0  0.079807  0  0.951095  0  0  0.092379  0  1.022381  0  0  0.093824  0  1.021875  0  0  0.093108  0.091243  0  1.022748  0
H  H18  1  0.75790309  0.92416421  0.01774629  1  0  0.107214  0  0.966706  0  0  0.126493  0  1.03003  0  0  0.128065  0  1.030437  0  0  0.0864  0.125261  0  1.029823  0
H  H19  1  0.24209816  0.07583528  0.98225233  1  0  0.107248  0  0.966696  0  0  0.126525  0  1.030025  0  0  0.128098  0  1.03043  0  0  0.086405  0.125293  0  1.029818  0
H  H20  1  0.63907222  0.08387648  0.95200880  1  0  0.096127  0  0.958919  0  0  0.114175  0  1.027176  0  0  0.117578  0  1.024181  0  0  0.083491  0.111508  0  1.029571  0
H  H21  1  0.36092774  0.91612416  0.04799106  1  0  0.09615  0  0.958911  0  0  0.114198  0  1.027174  0  0  0.117599  0  1.024181  0  0  0.083495  0.11153  0  1.029572  0
H  H22  1  0.85859755  0.10461197  0.97269326  1  0  0.098949  0  0.94458  0  0  0.126254  0  0.993622  0  0  0.126674  0  0.995721  0  0  0.08718  0.125922  0  0.992172  0
H  H23  1  0.14140371  0.89538751  0.02730605  1  0  0.098973  0  0.944594  0  0  0.126285  0  0.993621  0  0  0.126703  0  0.995722  0  0  0.087195  0.125954  0  0.992172  0
H  H24  1  0.54069298  0.63292826  0.73647813  1  0  0.098164  0  0.951437  0  0  0.102889  0  1.021932  0  0  0.106446  0  1.019524  0  0  0.117403  0.100054  0  1.024187  0
H  H25  1  0.45930948  0.36707469  0.26352066  1  0  0.098202  0  0.951457  0  0  0.10292  0  1.021937  0  0  0.106477  0  1.019531  0  0  0.117416  0.100086  0  1.024191  0
H  H26  1  0.90988277  0.41268644  0.85730485  1  0  0.075765  0  0.952242  0  0  0.087628  0  1.024584  0  0  0.089741  0  1.022999  0  0  0.090413  0.086016  0  1.0257  0
H  H27  1  0.09011343  0.58731074  0.14269627  1  0  0.075686  0  0.95226  0  0  0.087546  0  1.024604  0  0  0.089658  0  1.023021  0  0  0.090385  0.085937  0  1.025719  0
H  H28  1  0.68392419  0.41412240  0.84295943  1  0  0.093115  0  0.930888  0  0  0.111794  0  0.985035  0  0  0.111664  0  0.987791  0  0  0.098423  0.111809  0  0.983163  0
H  H29  1  0.31607318  0.58587939  0.15703755  1  0  0.093062  0  0.93091  0  0  0.111721  0  0.985077  0  0  0.111609  0  0.987809  0  0  0.098403  0.111739  0  0.983205  0
H  H30  1  0.75064276  0.43598721  0.00661938  1  0  0.100056  0  0.974992  0  0  0.117082  0  1.044488  0  0  0.120263  0  1.042103  0  0  0.082724  0.11459  0  1.04638  0
H  H31  1  0.24935083  0.56401228  0.99338006  1  0  0.099992  0  0.975054  0  0  0.117053  0  1.044511  0  0  0.120228  0  1.04213  0  0  0.082712  0.114561  0  1.046403  0
H  H32  1  0.64548071  0.60732455  0.94473971  1  0  0.105529  0  0.938484  0  0  0.131031  0  0.988526  0  0  0.131654  0  0.990547  0  0  0.090496  0.130534  0  0.987119  0
H  H33  1  0.35451545  0.39267378  0.05525916  1  0  0.105522  0  0.938445  0  0  0.131017  0  0.988509  0  0  0.131645  0  0.990521  0  0  0.090491  0.130521  0  0.987101  0
H  H34  1  0.87021049  0.60548163  0.96008238  1  0  0.094009  0  0.950738  0  0  0.115903  0  1.011759  0  0  0.117796  0  1.011024  0  0  0.084873  0.114411  0  1.012472  0
H  H35  1  0.12978438  0.39451786  0.03991773  1  0  0.093998  0  0.950746  0  0  0.115876  0  1.011803  0  0  0.117767  0  1.01107  0  0  0.084849  0.114384  0  1.012514  0
H  H36  1  0.83923001  0.97130772  0.56414926  1  0  0.093282  0  0.930552  0  0  0.102047  0  0.992223  0  0  0.105493  0  0.989943  0  0  0.119697  0.099479  0  0.994038  0
H  H37  1  0.16078022  0.02869061  0.43585145  1  0  0.093267  0  0.930574  0  0  0.102056  0  0.992229  0  0  0.105502  0  0.989946  0  0  0.119704  0.09948  0  0.994055  0
H  H38  1  0.10052234  0.85671174  0.65467994  1  0  0.095729  0  0.949191  0  0  0.101602  0  1.01605  0  0  0.104523  0  1.014424  0  0  0.117788  0.099283  0  1.017581  0
H  H39  1  0.89948275  0.14328893  0.34532467  1  0  0.095775  0  0.949181  0  0  0.101637  0  1.016041  0  0  0.104558  0  1.014414  0  0  0.117823  0.099317  0  1.01757  0
C  C40  1  0.37559874  0.08309409  0.57475510  1  0  -0.12525  0  3.6164  0  0  -0.136582  0  4.019087  0  0  -0.112661  0  3.999727  0  0  -0.072104  -0.15382  0  4.031813  0
C  C41  1  0.62439991  0.91690770  0.42524185  1  0  -0.125243  0  3.61653  0  0  -0.136573  0  4.019206  0  0  -0.11266  0  3.999843  0  0  -0.072079  -0.153806  0  4.031922  0
C  C42  1  0.28823077  0.57772114  0.58988200  1  0  -0.144032  0  3.568818  0  0  -0.145353  0  3.949134  0  0  -0.129844  0  3.942447  0  0  -0.065092  -0.156158  0  3.952588  0
C  C43  1  0.71176778  0.42228646  0.41012033  1  0  -0.144064  0  3.568741  0  0  -0.145398  0  3.949087  0  0  -0.129879  0  3.942384  0  0  -0.065108  -0.156199  0  3.952535  0
C  C44  1  0.35072029  0.89949470  0.81790698  1  0  -0.119456  0  3.52737  0  0  -0.120979  0  3.902442  0  0  -0.105813  0  3.898781  0  0  -0.054843  -0.1315  0  3.903712  0
C  C45  1  0.64928108  0.10049899  0.18209041  1  0  -0.119463  0  3.527426  0  0  -0.120992  0  3.902482  0  0  -0.105838  0  3.89885  0  0  -0.054917  -0.131511  0  3.903751  0
C  C46  1  0.27917119  0.39928987  0.82169346  1  0  -0.124908  0  3.543805  0  0  -0.125445  0  3.920379  0  0  -0.1088  0  3.911611  0  0  -0.057067  -0.13725  0  3.925607  0
C  C47  1  0.72082512  0.60070270  0.17831109  1  0  -0.124911  0  3.544013  0  0  -0.125448  0  3.920589  0  0  -0.1088  0  3.911823  0  0  -0.057017  -0.137255  0  3.925824  0
C  C48  1  0.68003883  0.29284818  0.66770733  1  0  0.097463  0  3.647522  0  0  0.073278  0  3.888756  0  0  0.075381  0  3.906455  0  0  0.053051  0.071502  0  3.877943  0
C  C49  1  0.31996747  0.70715477  0.33229139  1  0  0.097265  0  3.647558  0  0  0.073098  0  3.888782  0  0  0.075205  0  3.906484  0  0  0.052974  0.071325  0  3.877966  0
C  C50  1  0.83493342  0.35859373  0.63386513  1  0  0.062303  0  3.682776  0  0  0.035667  0  3.929657  0  0  0.036045  0  3.94584  0  0  0.044199  0.035078  0  3.91986  0
C  C51  1  0.16506278  0.64140345  0.36613668  1  0  0.06241  0  3.682658  0  0  0.035757  0  3.929526  0  0  0.036135  0  3.945703  0  0  0.044271  0.035173  0  3.919728  0
C  C52  1  0.97480453  0.17353247  0.74482343  1  0  0.029265  0  3.626578  0  0  -0.001123  0  3.868181  0  0  -0.001292  0  3.884689  0  0  0.047632  -0.001557  0  3.858417  0
C  C53  1  0.02519036  0.82646586  0.25517685  1  0  0.029174  0  3.626668  0  0  -0.001252  0  3.868277  0  0  -0.001419  0  3.884782  0  0  0.047561  -0.001682  0  3.858517  0
C  C54  1  0.81984468  0.10791981  0.78111960  1  0  0.2104  0  3.694562  0  0  0.216417  0  3.938514  0  0  0.220804  0  3.957689  0  0  0.122807  0.213159  0  3.926233  0
C  C55  1  0.18015397  0.89208199  0.21887943  1  0  0.210525  0  3.694487  0  0  0.216608  0  3.938334  0  0  0.220993  0  3.957516  0  0  0.122889  0.213346  0  3.92605  0
C  C56  1  0.81304210  0.97387046  0.86540106  1  0  -0.154992  0  3.739618  0  0  -0.195502  0  3.992901  0  0  -0.196944  0  4.005497  0  0  -0.16454  -0.194242  0  3.984226  0
C  C57  1  0.18695400  0.02613133  0.13459732  1  0  -0.155026  0  3.739698  0  0  -0.195519  0  3.992941  0  0  -0.196962  0  4.005543  0  0  -0.164526  -0.194242  0  3.984241  0
C  C58  1  0.76470518  0.02465428  0.95728967  1  0  -0.279525  0  3.689317  0  0  -0.3496  0  3.926576  0  0  -0.352935  0  3.93607  0  0  -0.244706  -0.347091  0  3.920274  0
C  C59  1  0.23529478  0.97534636  0.04270881  1  0  -0.279602  0  3.689372  0  0  -0.349701  0  3.926641  0  0  -0.353036  0  3.936136  0  0  -0.244722  -0.347198  0  3.920338  0
C  C60  1  0.66643053  0.68325852  0.71838239  1  0  0.033924  0  3.614651  0  0  0.004429  0  3.85678  0  0  0.005153  0  3.872349  0  0  0.054057  0.003342  0  3.847731  0
C  C61  1  0.33357196  0.31674328  0.28161657  1  0  0.033853  0  3.614867  0  0  0.004368  0  3.856964  0  0  0.005111  0  3.87255  0  0  0.054014  0.003271  0  3.847909  0
C  C62  1  0.80936008  0.61844293  0.76986286  1  0  0.213931  0  3.691099  0  0  0.218746  0  3.936583  0  0  0.223036  0  3.956124  0  0  0.126823  0.215564  0  3.924075  0
C  C63  1  0.19064371  0.38155771  0.23013624  1  0  0.21386  0  3.691135  0  0  0.218643  0  3.936583  0  0  0.22293  0  3.956131  0  0  0.126771  0.215462  0  3.924077  0
C  C64  1  0.79215206  0.48412914  0.85346721  1  0  -0.152415  0  3.731162  0  0  -0.192135  0  3.982745  0  0  -0.194297  0  3.996577  0  0  -0.164283  -0.190336  0  3.973176  0
C  C65  1  0.20784794  0.51586918  0.14653230  1  0  -0.152213  0  3.731121  0  0  -0.191907  0  3.982706  0  0  -0.194078  0  3.996538  0  0  -0.164213  -0.190114  0  3.973144  0
C  C66  1  0.76308290  0.53674700  0.94656810  1  0  -0.274829  0  3.687373  0  0  -0.343483  0  3.922924  0  0  -0.346942  0  3.932776  0  0  -0.241713  -0.340854  0  3.916395  0
C  C67  1  0.23691197  0.46325248  0.05343064  1  0  -0.274777  0  3.687301  0  0  -0.343436  0  3.922843  0  0  -0.346894  0  3.932703  0  0  -0.241681  -0.340808  0  3.916314  0
C  C68  1  0.83165946  0.86984698  0.62315246  1  0  0.060076  0  3.675693  0  0  0.032242  0  3.923388  0  0  0.031835  0  3.941433  0  0  0.0435  0.032105  0  3.912454  0
C  C69  1  0.16834824  0.13015020  0.37684846  1  0  0.060093  0  3.675433  0  0  0.032204  0  3.923133  0  0  0.031818  0  3.941194  0  0  0.043376  0.032058  0  3.912192  0
C  C70  1  0.97475628  0.80666577  0.67288308  1  0  0.083425  0  3.66726  0  0  0.059478  0  3.910381  0  0  0.062184  0  3.927361  0  0  0.047866  0.057188  0  3.900206  0
C  C71  1  0.02524885  0.19333257  0.32711840  1  0  0.083412  0  3.667329  0  0  0.059449  0  3.910448  0  0  0.062168  0  3.927401  0  0  0.047902  0.057159  0  3.900272  0
N  N72  1  0.31117571  0.19516678  0.59211328  1  0  -0.387452  0  3.313937  0  0  -0.329571  0  3.654203  0  0  -0.342623  0  3.651819  0  0  -0.442824  -0.321079  0  3.6552  0
N  N73  1  0.68882411  0.80484081  0.40788765  1  0  -0.387426  0  3.314167  0  0  -0.32953  0  3.654422  0  0  -0.342592  0  3.652072  0  0  -0.442825  -0.321036  0  3.655411  0
N  N74  1  0.34471556  0.70272373  0.57508605  1  0  -0.381962  0  3.339073  0  0  -0.323731  0  3.66526  0  0  -0.338152  0  3.673139  0  0  -0.440454  -0.314401  0  3.658926  0
N  N75  1  0.65528945  0.29728040  0.42491667  1  0  -0.381929  0  3.339054  0  0  -0.323695  0  3.665252  0  0  -0.338115  0  3.673121  0  0  -0.440441  -0.314368  0  3.658923  0
N  N76  1  0.28538368  0.77914704  0.82574437  1  0  -0.410261  0  3.328189  0  0  -0.349002  0  3.660319  0  0  -0.363832  0  3.665177  0  0  -0.44434  -0.339313  0  3.656129  0
N  N77  1  0.71462027  0.22084668  0.17425918  1  0  -0.410295  0  3.328179  0  0  -0.349019  0  3.660302  0  0  -0.363847  0  3.66517  0  0  -0.444289  -0.339331  0  3.656108  0
N  N78  1  0.34484888  0.27751232  0.82452960  1  0  -0.411536  0  3.33272  0  0  -0.349774  0  3.658806  0  0  -0.3631  0  3.661423  0  0  -0.444164  -0.341244  0  3.656557  0
N  N79  1  0.65514608  0.72248254  0.17546980  1  0  -0.411545  0  3.332932  0  0  -0.349773  0  3.658977  0  0  -0.363109  0  3.661621  0  0  -0.444195  -0.341242  0  3.656732  0
N  N80  1  0.67092778  0.16879818  0.74167578  1  0  -0.279717  0  3.290145  0  0  -0.220469  0  3.575822  0  0  -0.224189  0  3.581162  0  0  -0.34198  -0.218888  0  3.572668  0
N  N81  1  0.32906704  0.83120362  0.25832400  1  0  -0.279697  0  3.290301  0  0  -0.220447  0  3.575898  0  0  -0.22418  0  3.581264  0  0  -0.341968  -0.218868  0  3.57275  0
N  N82  1  0.98365281  0.29912270  0.67222261  1  0  -0.22026  0  3.364729  0  0  -0.154273  0  3.650037  0  0  -0.155987  0  3.656309  0  0  -0.345743  -0.154095  0  3.646383  0
N  N83  1  0.01634841  0.70087910  0.32777706  1  0  -0.22021  0  3.364782  0  0  -0.154225  0  3.650123  0  0  -0.155934  0  3.656384  0  0  -0.345713  -0.154058  0  3.646476  0
N  N84  1  0.67632269  0.80725804  0.64527673  1  0  -0.20571  0  3.338323  0  0  -0.140886  0  3.618205  0  0  -0.143118  0  3.62634  0  0  -0.334749  -0.140549  0  3.613584  0
N  N85  1  0.32368491  0.19274375  0.35472283  1  0  -0.205755  0  3.338242  0  0  -0.140884  0  3.618079  0  0  -0.143178  0  3.626278  0  0  -0.334693  -0.140524  0  3.613434  0
N  N86  1  0.96518913  0.68047434  0.74577108  1  0  -0.282876  0  3.293377  0  0  -0.222635  0  3.579407  0  0  -0.227064  0  3.584717  0  0  -0.340092  -0.220699  0  3.57644  0
N  N87  1  0.03481347  0.31952285  0.25423199  1  0  -0.282866  0  3.293411  0  0  -0.222562  0  3.579379  0  0  -0.226996  0  3.584691  0  0  -0.340065  -0.220625  0  3.576408  0
