# generated using pymatgen
data_NaH12C11O5F3
_symmetry_space_group_name_H-M   'P 1'
_cell_length_a   7.10123127
_cell_length_b   8.89050112
_cell_length_c   11.47165084
_cell_angle_alpha   91.95853466
_cell_angle_beta   103.95062723
_cell_angle_gamma   110.01221986
_symmetry_Int_Tables_number   1
_chemical_formula_structural   NaH12C11O5F3
_chemical_formula_sum   'Na2 H24 C22 O10 F6'
_cell_volume   655.01406736
_cell_formula_units_Z   2
loop_
 _symmetry_equiv_pos_site_id
 _symmetry_equiv_pos_as_xyz
  1  'x, y, z'
loop_
 _atom_site_type_symbol
 _atom_site_label
 _atom_site_symmetry_multiplicity
 _atom_site_fract_x
 _atom_site_fract_y
 _atom_site_fract_z
 _atom_site_occupancy
 _atom_site_hle17_bader_spin_density
 _atom_site_hle17_ddec_charge
 _atom_site_hle17_ddec_spin_density
 _atom_site_hle17_ddec_sum_bond_order
 _atom_site_hle17_magmom
 _atom_site_hse06_10hf_bader_spin_density
 _atom_site_hse06_10hf_ddec_charge
 _atom_site_hse06_10hf_ddec_spin_density
 _atom_site_hse06_10hf_ddec_sum_bond_order
 _atom_site_hse06_10hf_magmom
 _atom_site_hse06_bader_spin_density
 _atom_site_hse06_ddec_charge
 _atom_site_hse06_ddec_spin_density
 _atom_site_hse06_ddec_sum_bond_order
 _atom_site_hse06_magmom
 _atom_site_pbe_bader_spin_density
 _atom_site_pbe_cm5_charge
 _atom_site_pbe_ddec_charge
 _atom_site_pbe_ddec_spin_density
 _atom_site_pbe_ddec_sum_bond_order
 _atom_site_pbe_magmom
Na  Na0  1  0.22819945  0.48710835  0.96521345  1  0  0.92097  0  0.350977  0  0  0.885852  0  0.488274  0  0  0.895753  0  0.466874  0  0  0.684866  0.878421  0  0.503792  0
Na  Na1  1  0.77179854  0.51289148  0.03478982  1  0  0.92099  0  0.350954  0  0  0.885872  0  0.488255  0  0  0.895772  0  0.466853  0  0  0.684886  0.878437  0  0.503777  0
H  H2  1  0.32927466  0.06428539  0.69509615  1  0  0.115639  0  0.996796  0  0  0.116297  0  1.070856  0  0  0.121603  0  1.069256  0  0  0.09519  0.112742  0  1.071799  0
H  H3  1  0.67073786  0.93571415  0.30491254  1  0  0.115656  0  0.996486  0  0  0.116335  0  1.070542  0  0  0.121636  0  1.068952  0  0  0.095233  0.112784  0  1.071477  0
H  H4  1  0.32703133  0.13508254  0.95993960  1  0  0.093188  0  0.944749  0  0  0.100804  0  1.010994  0  0  0.104915  0  1.004709  0  0  0.116626  0.097712  0  1.01556  0
H  H5  1  0.67297393  0.86491466  0.04006195  1  0  0.09319  0  0.94471  0  0  0.100806  0  1.010964  0  0  0.104911  0  1.004696  0  0  0.116613  0.097713  0  1.015534  0
H  H6  1  0.91552052  0.59920435  0.56679876  1  0  0.057232  0  0.929618  0  0  0.068252  0  0.998052  0  0  0.068697  0  0.996657  0  0  0.097846  0.067644  0  0.999414  0
H  H7  1  0.08447867  0.40080396  0.43320230  1  0  0.057266  0  0.929569  0  0  0.068256  0  0.998044  0  0  0.068699  0  0.996654  0  0  0.09784  0.067652  0  0.999402  0
H  H8  1  0.05027646  0.68896127  0.38786649  1  0  0.115973  0  0.944901  0  0  0.135613  0  1.009627  0  0  0.136751  0  1.009875  0  0  0.09563  0.13469  0  1.009606  0
H  H9  1  0.94973394  0.31104315  0.61213770  1  0  0.11594  0  0.944872  0  0  0.135588  0  1.009593  0  0  0.136725  0  1.009842  0  0  0.095611  0.134667  0  1.009572  0
H  H10  1  0.26155445  0.84823931  0.24087945  1  0  0.04442  0  0.953549  0  0  0.054204  0  1.027978  0  0  0.05405  0  1.027852  0  0  0.097085  0.054316  0  1.028049  0
H  H11  1  0.73844970  0.15177013  0.75912317  1  0  0.04447  0  0.953528  0  0  0.054226  0  1.027948  0  0  0.054076  0  1.027816  0  0  0.097093  0.054337  0  1.028019  0
H  H12  1  0.47045797  0.14025704  0.30648740  1  0  0.106565  0  0.957308  0  0  0.127517  0  1.018003  0  0  0.128556  0  1.018566  0  0  0.087887  0.126722  0  1.017687  0
H  H13  1  0.52953069  0.85975390  0.69350711  1  0  0.106548  0  0.957372  0  0  0.127504  0  1.018062  0  0  0.128538  0  1.018641  0  0  0.087893  0.126706  0  1.017751  0
H  H14  1  0.18303430  0.62394781  0.59839745  1  0  0.060565  0  0.95248  0  0  0.071646  0  1.021115  0  0  0.072066  0  1.020377  0  0  0.10014  0.07089  0  1.022055  0
H  H15  1  0.81696652  0.37605195  0.40160533  1  0  0.060591  0  0.952455  0  0  0.071694  0  1.021059  0  0  0.072113  0  1.020322  0  0  0.100172  0.070944  0  1.021986  0
H  H16  1  0.25033285  0.86036478  0.48098028  1  0  0.101924  0  0.954638  0  0  0.124724  0  1.013762  0  0  0.126226  0  1.013375  0  0  0.087358  0.123731  0  1.0138  0
H  H17  1  0.74967196  0.13963731  0.51902135  1  0  0.101971  0  0.954566  0  0  0.124771  0  1.013703  0  0  0.126278  0  1.013308  0  0  0.087386  0.123785  0  1.013733  0
H  H18  1  0.02786508  0.88993742  0.19785090  1  0  0.043685  0  0.961505  0  0  0.061252  0  1.024169  0  0  0.05993  0  1.025958  0  0  0.099473  0.062117  0  1.022986  0
H  H19  1  0.97212972  0.11005883  0.80215272  1  0  0.043792  0  0.961449  0  0  0.061341  0  1.024121  0  0  0.060022  0  1.025905  0  0  0.099495  0.062208  0  1.022928  0
H  H20  1  0.24703545  0.19124640  0.24814943  1  0  0.111666  0  0.950738  0  0  0.1271  0  1.019011  0  0  0.129103  0  1.017726  0  0  0.090128  0.125552  0  1.020155  0
H  H21  1  0.75294461  0.80875011  0.75184439  1  0  0.111586  0  0.950698  0  0  0.12702  0  1.018983  0  0  0.129025  0  1.017695  0  0  0.090084  0.12547  0  1.02013  0
H  H22  1  0.98478497  0.84301730  0.45177345  1  0  0.104247  0  0.948491  0  0  0.1249  0  1.011385  0  0  0.12614  0  1.011726  0  0  0.087704  0.123976  0  1.011214  0
H  H23  1  0.01521521  0.15698732  0.54822589  1  0  0.1042  0  0.948568  0  0  0.124876  0  1.011435  0  0  0.126118  0  1.011774  0  0  0.087702  0.123952  0  1.011266  0
H  H24  1  0.26193060  0.08603200  0.37619224  1  0  0.110082  0  0.956615  0  0  0.130275  0  1.019515  0  0  0.131596  0  1.019162  0  0  0.089894  0.129457  0  1.019495  0
H  H25  1  0.73806699  0.91397632  0.62380513  1  0  0.11011  0  0.9565  0  0  0.130264  0  1.019448  0  0  0.13158  0  1.019104  0  0  0.089902  0.129452  0  1.019415  0
C  C26  1  0.50721861  0.38068636  0.68697769  1  0  0.706011  0  3.626018  0  0  0.630289  0  3.971077  0  0  0.660253  0  3.941583  0  0  0.298734  0.608468  0  3.992711  0
C  C27  1  0.49277223  0.61931115  0.31302021  1  0  0.705872  0  3.626043  0  0  0.630127  0  3.971121  0  0  0.660076  0  3.941648  0  0  0.298728  0.608364  0  3.992705  0
C  C28  1  0.43222117  0.30065173  0.79315466  1  0  0.234309  0  3.930491  0  0  0.222084  0  4.202135  0  0  0.241431  0  4.211462  0  0  0.09937  0.209248  0  4.195807  0
C  C29  1  0.56778447  0.69936127  0.20684217  1  0  0.234408  0  3.930218  0  0  0.222234  0  4.201764  0  0  0.241575  0  4.211103  0  0  0.099314  0.209379  0  4.195453  0
C  C30  1  0.34860519  0.13149998  0.78047067  1  0  -0.269809  0  3.79444  0  0  -0.304906  0  4.079523  0  0  -0.325804  0  4.101925  0  0  -0.142119  -0.291104  0  4.063813  0
C  C31  1  0.65139632  0.86848745  0.21952225  1  0  -0.269755  0  3.794638  0  0  -0.304858  0  4.079694  0  0  -0.325757  0  4.102107  0  0  -0.142075  -0.291058  0  4.06399  0
C  C32  1  0.29445140  0.05363828  0.87807381  1  0  0.086253  0  3.721813  0  0  0.04664  0  3.999273  0  0  0.068654  0  4.006471  0  0  -0.058575  0.032589  0  3.993827  0
C  C33  1  0.70555539  0.94635890  0.12192969  1  0  0.086353  0  3.721801  0  0  0.046693  0  3.999305  0  0  0.068713  0  4.006492  0  0  -0.058523  0.032638  0  3.993863  0
C  C34  1  0.21234524  0.89014702  0.88965160  1  0  -0.313165  0  3.717661  0  0  -0.304694  0  3.988928  0  0  -0.331299  0  4.010354  0  0  -0.050219  -0.287317  0  3.974297  0
C  C35  1  0.78766618  0.10985978  0.11034931  1  0  -0.313374  0  3.717817  0  0  -0.304852  0  3.989003  0  0  -0.331471  0  4.010446  0  0  -0.050263  -0.287469  0  3.974355  0
C  C36  1  0.16400066  0.75989998  0.79210002  1  0  0.633103  0  3.812253  0  0  0.581396  0  4.107834  0  0  0.617373  0  4.099774  0  0  0.231653  0.556985  0  4.112876  0
C  C37  1  0.83601736  0.24011402  0.20790459  1  0  0.632897  0  3.813016  0  0  0.581267  0  4.108488  0  0  0.617244  0  4.100431  0  0  0.231566  0.556865  0  4.113516  0
C  C38  1  0.07306812  0.68708560  0.57765938  1  0  0.142898  0  3.601939  0  0  0.080333  0  3.884239  0  0  0.089922  0  3.889575  0  0  -0.071749  0.073767  0  3.880882  0
C  C39  1  0.92693525  0.31291652  0.42234206  1  0  0.142807  0  3.601787  0  0  0.080245  0  3.884154  0  0  0.08983  0  3.889496  0  0  -0.071771  0.07368  0  3.880803  0
C  C40  1  0.09058907  0.77576171  0.46850457  1  0  -0.326468  0  3.7199  0  0  -0.410112  0  3.977375  0  0  -0.412685  0  3.986187  0  0  -0.251393  -0.408108  0  3.971169  0
C  C41  1  0.90941550  0.22424282  0.53149710  1  0  -0.326443  0  3.71982  0  0  -0.410099  0  3.977309  0  0  -0.412664  0  3.986098  0  0  -0.251391  -0.408109  0  3.971108  0
C  C42  1  0.17275373  0.84279105  0.00507359  1  0  0.624515  0  3.838732  0  0  0.57342  0  4.135851  0  0  0.608425  0  4.130888  0  0  0.226393  0.549792  0  4.138627  0
C  C43  1  0.82724719  0.15720623  0.99492651  1  0  0.624434  0  3.838936  0  0  0.573334  0  4.136068  0  0  0.608342  0  4.131113  0  0  0.226401  0.549722  0  4.138837  0
C  C44  1  0.19628787  0.93917568  0.20811398  1  0  0.15836  0  3.607932  0  0  0.098247  0  3.880628  0  0  0.107991  0  3.887312  0  0  -0.069561  0.091739  0  3.875897  0
C  C45  1  0.80370851  0.06082416  0.79188559  1  0  0.158044  0  3.608197  0  0  0.097989  0  3.880882  0  0  0.10773  0  3.887573  0  0  -0.069614  0.091493  0  3.876146  0
C  C46  1  0.30073790  0.09852906  0.28926536  1  0  -0.319479  0  3.692358  0  0  -0.398708  0  3.944702  0  0  -0.400836  0  3.952247  0  0  -0.250093  -0.396995  0  3.939392  0
C  C47  1  0.69925150  0.90147456  0.71072990  1  0  -0.319304  0  3.692346  0  0  -0.398509  0  3.94467  0  0  -0.400638  0  3.952215  0  0  -0.250019  -0.396789  0  3.939354  0
O  O48  1  0.45777323  0.39964108  0.88308799  1  0  -0.63076  0  2.008365  0  0  -0.600655  0  2.244744  0  0  -0.619429  0  2.235571  0  0  -0.431251  -0.587804  0  2.25114  0
O  O49  1  0.54223387  0.60035476  0.11690505  1  0  -0.630997  0  2.007824  0  0  -0.600922  0  2.244199  0  0  -0.619703  0  2.235027  0  0  -0.431388  -0.588061  0  2.250607  0
O  O50  1  0.16397953  0.62278690  0.80540525  1  0  -0.60355  0  1.976507  0  0  -0.572009  0  2.212469  0  0  -0.591107  0  2.2002  0  0  -0.362939  -0.558995  0  2.220854  0
O  O51  1  0.83603315  0.37720769  0.19459721  1  0  -0.603285  0  1.977228  0  0  -0.571765  0  2.213141  0  0  -0.590856  0  2.200864  0  0  -0.362778  -0.558757  0  2.221521  0
O  O52  1  0.11928879  0.80647629  0.68060550  1  0  -0.332983  0  2.277428  0  0  -0.24614  0  2.506503  0  0  -0.269673  0  2.506936  0  0  -0.166407  -0.229884  0  2.5057  0
O  O53  1  0.88071412  0.19352216  0.31939403  1  0  -0.332864  0  2.277325  0  0  -0.246114  0  2.506454  0  0  -0.269648  0  2.506886  0  0  -0.166425  -0.229863  0  2.505649  0
O  O54  1  0.09037576  0.70186100  0.02610992  1  0  -0.674415  0  1.965105  0  0  -0.637334  0  2.204448  0  0  -0.656028  0  2.190975  0  0  -0.390787  -0.624417  0  2.213354  0
O  O55  1  0.90962876  0.29813745  0.97389331  1  0  -0.674322  0  1.965144  0  0  -0.637249  0  2.204515  0  0  -0.655924  0  2.191004  0  0  -0.390784  -0.624335  0  2.213418  0
O  O56  1  0.23074733  0.97056811  0.09011464  1  0  -0.334448  0  2.298191  0  0  -0.253133  0  2.53226  0  0  -0.277361  0  2.534092  0  0  -0.166462  -0.236524  0  2.530568  0
O  O57  1  0.76923429  0.02942838  0.90988200  1  0  -0.334297  0  2.298215  0  0  -0.253033  0  2.532293  0  0  -0.27726  0  2.534127  0  0  -0.166502  -0.236465  0  2.530627  0
F  F58  1  0.71083174  0.48138673  0.72654216  1  0  -0.252404  0  1.175914  0  0  -0.209632  0  1.340585  0  0  -0.218205  0  1.323414  0  0  -0.085969  -0.203484  0  1.352649  0
F  F59  1  0.28918535  0.51857711  0.27344691  1  0  -0.252295  0  1.176161  0  0  -0.209503  0  1.340831  0  0  -0.218086  0  1.323666  0  0  -0.085888  -0.203367  0  1.35288  0
F  F60  1  0.39636415  0.47283045  0.63781894  1  0  -0.252097  0  1.17507  0  0  -0.209867  0  1.341918  0  0  -0.220019  0  1.32611  0  0  -0.090547  -0.198664  0  1.348887  0
F  F61  1  0.60366031  0.52718464  0.36218830  1  0  -0.252057  0  1.174897  0  0  -0.209843  0  1.341758  0  0  -0.220003  0  1.325952  0  0  -0.090592  -0.198696  0  1.348752  0
F  F62  1  0.49419561  0.27390456  0.59373842  1  0  -0.26206  0  1.162443  0  0  -0.213665  0  1.321614  0  0  -0.227019  0  1.310512  0  0  -0.097902  -0.207255  0  1.332961  0
F  F63  1  0.50575525  0.72608285  0.40625125  1  0  -0.262097  0  1.162535  0  0  -0.213686  0  1.321709  0  0  -0.226963  0  1.310527  0  0  -0.09791  -0.207287  0  1.333046  0
