# generated using pymatgen
data_ZnH11C13N3O4
_symmetry_space_group_name_H-M   'P 1'
_cell_length_a   13.39172498
_cell_length_b   13.59780700
_cell_length_c   20.36627758
_cell_angle_alpha   89.99992634
_cell_angle_beta   89.99998302
_cell_angle_gamma   90.00006096
_symmetry_Int_Tables_number   1
_chemical_formula_structural   ZnH11C13N3O4
_chemical_formula_sum   'Zn8 H88 C104 N24 O32'
_cell_volume   3708.66028184
_cell_formula_units_Z   8
loop_
 _symmetry_equiv_pos_site_id
 _symmetry_equiv_pos_as_xyz
  1  'x, y, z'
loop_
 _atom_site_type_symbol
 _atom_site_label
 _atom_site_symmetry_multiplicity
 _atom_site_fract_x
 _atom_site_fract_y
 _atom_site_fract_z
 _atom_site_occupancy
 _atom_site_pbe_bader_charge
 _atom_site_pbe_bader_spin_density
 _atom_site_pbe_cm5_charge
 _atom_site_pbe_ddec_charge
 _atom_site_pbe_ddec_spin_density
 _atom_site_pbe_ddec_sum_bond_order
 _atom_site_pbe_magmom
Zn  Zn0  1  0.16407238  0.42897117  0.30780568  1  1.321669  0  0.685972  0.871341  0  2.345593  0
Zn  Zn1  1  0.33592820  0.07102997  0.80780588  1  1.321694  0  0.685949  0.871347  0  2.345716  0
Zn  Zn2  1  0.33592944  0.92896989  0.69219528  1  1.322692  0  0.686022  0.87137  0  2.345515  0
Zn  Zn3  1  0.16407248  0.57102874  0.19219441  1  1.322666  0  0.685972  0.871287  0  2.345621  0
Zn  Zn4  1  0.83592756  0.57102935  0.69219489  1  1.322669  0  0.686032  0.871377  0  2.345474  0
Zn  Zn5  1  0.66407100  0.92896981  0.19219519  1  1.322664  0  0.68604  0.871385  0  2.345408  0
Zn  Zn6  1  0.66407200  0.07102915  0.30780628  1  1.321791  0  0.685937  0.871286  0  2.345762  0
Zn  Zn7  1  0.83592671  0.42897104  0.80780518  1  1.321658  0  0.685973  0.871375  0  2.345669  0
H  H8  1  0.42120673  0.75194696  0.25941278  1  0.151325  0  0.118517  0.133738  0  0.985974  0
H  H9  1  0.07879143  0.74805449  0.75941140  1  0.151281  0  0.118505  0.133769  0  0.985929  0
H  H10  1  0.07879266  0.25194510  0.74058834  1  0.151327  0  0.118506  0.133752  0  0.985936  0
H  H11  1  0.42120721  0.24805249  0.24058874  1  0.151307  0  0.11851  0.133719  0  0.985994  0
H  H12  1  0.57879322  0.24805356  0.74058829  1  0.151332  0  0.118503  0.133728  0  0.985979  0
H  H13  1  0.92120777  0.25194455  0.24058869  1  0.151303  0  0.118519  0.13379  0  0.985908  0
H  H14  1  0.92120803  0.74805541  0.25941126  1  0.151297  0  0.118531  0.133793  0  0.985879  0
H  H15  1  0.57879274  0.75194729  0.75941282  1  0.151324  0  0.118519  0.133727  0  0.985988  0
H  H16  1  0.49253364  0.89074346  0.44294306  1  0.087583  0  0.109409  0.11988  0  1.010039  0
H  H17  1  0.00746219  0.60926057  0.94294377  1  0.08767  0  0.109402  0.119871  0  1.010081  0
H  H18  1  0.00746216  0.39073821  0.55705646  1  0.087673  0  0.109398  0.119886  0  1.010068  0
H  H19  1  0.49253406  0.10925606  0.05705697  1  0.087548  0  0.109431  0.119895  0  1.010032  0
H  H20  1  0.50746630  0.10925632  0.55705654  1  0.087657  0  0.109419  0.119887  0  1.010042  0
H  H21  1  0.99253776  0.39073921  0.05705631  1  0.087671  0  0.109404  0.119884  0  1.010072  0
H  H22  1  0.99253779  0.60926084  0.44294362  1  0.087668  0  0.109398  0.119861  0  1.010075  0
H  H23  1  0.50746663  0.89074372  0.94294361  1  0.087668  0  0.109418  0.119909  0  1.009997  0
H  H24  1  0.29093066  0.64267468  0.43830561  1  0.095514  0  0.110475  0.119704  0  1.015559  0
H  H25  1  0.20906966  0.85732568  0.93830412  1  0.095543  0  0.110507  0.119754  0  1.015485  0
H  H26  1  0.20907085  0.14267331  0.56169461  1  0.095497  0  0.110471  0.11971  0  1.015538  0
H  H27  1  0.29093208  0.35732609  0.06169494  1  0.0955  0  0.110507  0.119734  0  1.015525  0
H  H28  1  0.70906854  0.35732583  0.56169447  1  0.09549  0  0.110496  0.119747  0  1.015496  0
H  H29  1  0.79093028  0.14267483  0.06169548  1  0.095498  0  0.110497  0.119738  0  1.015493  0
H  H30  1  0.79093059  0.85732574  0.43830498  1  0.095537  0  0.110506  0.119728  0  1.015506  0
H  H31  1  0.70906936  0.64267516  0.93830514  1  0.095535  0  0.110491  0.119735  0  1.015515  0
H  H32  1  0.25628554  0.98261540  0.55795277  1  0.126666  0  0.107382  0.164238  0  1.034414  0
H  H33  1  0.24371271  0.51738497  0.05795242  1  0.126765  0  0.107371  0.164252  0  1.03446  0
H  H34  1  0.24371335  0.48261502  0.44204717  1  0.126688  0  0.107391  0.164285  0  1.034424  0
H  H35  1  0.25628568  0.01738512  0.94204644  1  0.126661  0  0.107394  0.164261  0  1.034403  0
H  H36  1  0.74371441  0.01738438  0.44204683  1  0.126678  0  0.107387  0.164257  0  1.034419  0
H  H37  1  0.75628649  0.48261555  0.94204718  1  0.126693  0  0.107405  0.164288  0  1.034382  0
H  H38  1  0.75628585  0.51738476  0.55795243  1  0.126681  0  0.107359  0.164217  0  1.034483  0
H  H39  1  0.74371427  0.98261540  0.05795315  1  0.126663  0  0.107379  0.164229  0  1.034439  0
H  H40  1  0.25260415  0.92374789  0.47862902  1  0.081679  0  0.103662  0.15001  0  0.98148  0
H  H41  1  0.24739540  0.57625387  0.97862874  1  0.081662  0  0.103668  0.150026  0  0.981491  0
H  H42  1  0.24739543  0.42374663  0.52137146  1  0.08165  0  0.10366  0.150046  0  0.981506  0
H  H43  1  0.25260379  0.07625211  0.02137056  1  0.08167  0  0.103658  0.150022  0  0.98148  0
H  H44  1  0.74739580  0.07625189  0.52137057  1  0.081671  0  0.103654  0.150013  0  0.981492  0
H  H45  1  0.75260454  0.42374591  0.02137135  1  0.081644  0  0.103656  0.150012  0  0.981523  0
H  H46  1  0.75260452  0.57625388  0.47862863  1  0.081661  0  0.103675  0.150026  0  0.981491  0
H  H47  1  0.74739615  0.92374840  0.97862952  1  0.08168  0  0.103664  0.150007  0  0.981511  0
H  H48  1  0.35953738  0.99128014  0.50314647  1  0.07595  0  0.105763  0.155673  0  0.976359  0
H  H49  1  0.14046164  0.50872107  0.00314565  1  0.075943  0  0.105807  0.155715  0  0.976357  0
H  H50  1  0.14046152  0.49127881  0.49685395  1  0.075939  0  0.105797  0.155718  0  0.976367  0
H  H51  1  0.35953673  0.00872049  0.99685321  1  0.07596  0  0.105765  0.155675  0  0.976378  0
H  H52  1  0.64046257  0.00871964  0.49685312  1  0.07595  0  0.105756  0.15566  0  0.976393  0
H  H53  1  0.85953830  0.49127944  0.99685443  1  0.075904  0  0.105796  0.155699  0  0.97637  0
H  H54  1  0.85953842  0.50872023  0.50314564  1  0.075908  0  0.105792  0.155696  0  0.976344  0
H  H55  1  0.64046246  0.99128003  0.00314687  1  0.075956  0  0.105783  0.155686  0  0.976352  0
H  H56  1  0.50464544  0.62057999  0.50432503  1  0.053415  0  0.098625  0.097004  0  0.982062  0
H  H57  1  0.99535544  0.87942100  0.00432530  1  0.053437  0  0.098637  0.097028  0  0.982014  0
H  H58  1  0.99535492  0.12057831  0.49567511  1  0.053417  0  0.098621  0.097027  0  0.982041  0
H  H59  1  0.50464445  0.37942078  0.99567511  1  0.053421  0  0.098618  0.097022  0  0.982038  0
H  H60  1  0.49535600  0.37941979  0.49567505  1  0.053422  0  0.098618  0.097011  0  0.982033  0
H  H61  1  0.00464450  0.12057952  0.99567527  1  0.053419  0  0.098627  0.097016  0  0.982061  0
H  H62  1  0.00464502  0.87942073  0.50432448  1  0.05342  0  0.098637  0.09703  0  0.98201  0
H  H63  1  0.49535549  0.62057974  0.00432497  1  0.053414  0  0.098635  0.097025  0  0.982068  0
H  H64  1  0.40227547  0.55648501  0.53674680  1  0.03283  0  0.099757  0.10095  0  0.973681  0
H  H65  1  0.09772503  0.94351613  0.03674710  1  0.032809  0  0.099739  0.100926  0  0.973688  0
H  H66  1  0.09772445  0.05648371  0.46325301  1  0.032813  0  0.099733  0.100926  0  0.9737  0
H  H67  1  0.40227531  0.44351492  0.96325336  1  0.032814  0  0.099743  0.100932  0  0.973704  0
H  H68  1  0.59772522  0.44351477  0.46325328  1  0.032809  0  0.099742  0.100931  0  0.973701  0
H  H69  1  0.90227491  0.05648292  0.96325299  1  0.032789  0  0.099737  0.100929  0  0.973712  0
H  H70  1  0.90227400  0.94351680  0.53674659  1  0.032788  0  0.099738  0.100923  0  0.973707  0
H  H71  1  0.59772463  0.55648560  0.03674623  1  0.032827  0  0.099755  0.100949  0  0.973689  0
H  H72  1  0.55759223  0.50136954  0.59274526  1  0.052806  0  0.082106  0.107756  0  1.042375  0
H  H73  1  0.94240712  0.99863055  0.09274544  1  0.052793  0  0.082117  0.107772  0  1.042366  0
H  H74  1  0.94240576  0.00136870  0.40725450  1  0.052768  0  0.082121  0.107802  0  1.042323  0
H  H75  1  0.55759216  0.49863056  0.90725438  1  0.052795  0  0.082125  0.107788  0  1.042338  0
H  H76  1  0.44240771  0.49863024  0.40725482  1  0.052411  0  0.082111  0.107768  0  1.042371  0
H  H77  1  0.05759357  0.00136923  0.90725464  1  0.052782  0  0.082101  0.107767  0  1.042375  0
H  H78  1  0.05759418  0.99863108  0.59274559  1  0.052788  0  0.082119  0.107786  0  1.042341  0
H  H79  1  0.44240778  0.50136996  0.09274521  1  0.052418  0  0.082117  0.10779  0  1.04236  0
H  H80  1  0.48119134  0.56381333  0.65076664  1  0.045422  0  0.096249  0.132658  0  0.984955  0
H  H81  1  0.01880836  0.93618685  0.15076696  1  0.045417  0  0.096257  0.132707  0  0.984923  0
H  H82  1  0.01880784  0.06381364  0.34923316  1  0.045424  0  0.096251  0.132672  0  0.98497  0
H  H83  1  0.48119123  0.43618668  0.84923301  1  0.045411  0  0.096245  0.132662  0  0.984967  0
H  H84  1  0.51880860  0.43618718  0.34923344  1  0.045418  0  0.096253  0.132666  0  0.984954  0
H  H85  1  0.98119233  0.06381293  0.84923312  1  0.045424  0  0.096253  0.132689  0  0.984946  0
H  H86  1  0.98119210  0.93618688  0.65076693  1  0.045425  0  0.096251  0.132689  0  0.98495  0
H  H87  1  0.51880871  0.56381310  0.15076658  1  0.045428  0  0.096256  0.132684  0  0.984949  0
H  H88  1  0.58641681  0.62363851  0.61681342  1  0.038388  0  0.092268  0.130971  0  0.989309  0
H  H89  1  0.91358402  0.87636153  0.11681371  1  0.038392  0  0.092251  0.130974  0  0.989347  0
H  H90  1  0.91358281  0.12363843  0.38318672  1  0.038386  0  0.092266  0.130989  0  0.989361  0
H  H91  1  0.58641662  0.37636161  0.88318670  1  0.038405  0  0.092264  0.130975  0  0.989352  0
H  H92  1  0.41358388  0.37636201  0.38318666  1  0.038405  0  0.092266  0.13096  0  0.989359  0
H  H93  1  0.08641667  0.12363898  0.88318686  1  0.038396  0  0.09226  0.130975  0  0.98933  0
H  H94  1  0.08641639  0.87636135  0.61681336  1  0.038393  0  0.092257  0.130967  0  0.98936  0
H  H95  1  0.41358333  0.62363817  0.11681338  1  0.038399  0  0.092259  0.13097  0  0.989354  0
C  C96  1  0.29220534  0.61379883  0.30685794  1  1.600979  0  0.217675  0.591984  0  4.177966  0
C  C97  1  0.20779130  0.88620032  0.80685495  1  1.601291  0  0.217661  0.591998  0  4.178077  0
C  C98  1  0.20779539  0.11379205  0.69313740  1  1.600844  0  0.21766  0.592  0  4.177806  0
C  C99  1  0.29220524  0.38620195  0.19314114  1  1.600957  0  0.217681  0.592013  0  4.177888  0
C  C100  1  0.70779461  0.38620757  0.69313772  1  1.600829  0  0.217653  0.591965  0  4.177869  0
C  C101  1  0.79220640  0.11379064  0.19313826  1  1.600754  0  0.217685  0.592016  0  4.177843  0
C  C102  1  0.79220829  0.88620111  0.30685581  1  1.6012  0  0.217629  0.59181  0  4.178119  0
C  C103  1  0.70779246  0.61380077  0.80685600  1  1.601213  0  0.217623  0.591886  0  4.17808  0
C  C104  1  0.35071986  0.68902125  0.34495716  1  -0.028795  0  -0.00843  -0.008253  0  3.962644  0
C  C105  1  0.14927676  0.81098151  0.84495621  1  -0.029019  0  -0.008447  -0.008311  0  3.962634  0
C  C106  1  0.14927721  0.18901890  0.65504351  1  -0.02906  0  -0.008387  -0.008202  0  3.962451  0
C  C107  1  0.35072194  0.31097812  0.15504338  1  -0.028748  0  -0.008383  -0.008203  0  3.962602  0
C  C108  1  0.64927859  0.31098074  0.65504292  1  -0.029011  0  -0.008437  -0.008275  0  3.962522  0
C  C109  1  0.85072318  0.18901680  0.15504339  1  -0.02898  0  -0.008464  -0.00834  0  3.962631  0
C  C110  1  0.85072348  0.81098235  0.34495706  1  -0.028988  0  -0.00844  -0.008293  0  3.962611  0
C  C111  1  0.64927950  0.68902092  0.84495768  1  -0.028784  0  -0.008503  -0.008401  0  3.9627  0
C  C112  1  0.41269325  0.75590931  0.31249120  1  -0.013537  0  -0.061474  -0.087759  0  3.875048  0
C  C113  1  0.08730413  0.74409204  0.81249032  1  -0.013137  0  -0.061481  -0.0878  0  3.875063  0
C  C114  1  0.08730539  0.25590682  0.68750794  1  -0.013136  0  -0.061447  -0.087747  0  3.874989  0
C  C115  1  0.41269375  0.24409087  0.18750884  1  -0.013337  0  -0.061468  -0.087764  0  3.875076  0
C  C116  1  0.58730669  0.24409121  0.68750790  1  -0.0131  0  -0.061432  -0.087733  0  3.87503  0
C  C117  1  0.91269506  0.25590700  0.18750878  1  -0.013125  0  -0.061476  -0.087775  0  3.875021  0
C  C118  1  0.91269530  0.74409296  0.31249116  1  -0.01315  0  -0.061494  -0.087805  0  3.874983  0
C  C119  1  0.58730619  0.75591039  0.81249125  1  -0.013534  0  -0.061443  -0.087691  0  3.875004  0
C  C120  1  0.46371733  0.82818198  0.34790952  1  -0.034891  0  -0.008748  -0.002896  0  3.962863  0
C  C121  1  0.03628004  0.67181856  0.84790871  1  -0.035075  0  -0.008748  -0.002999  0  3.962879  0
C  C122  1  0.03627915  0.32817952  0.65209153  1  -0.035304  0  -0.008726  -0.002922  0  3.962698  0
C  C123  1  0.46371926  0.17181824  0.15209149  1  -0.035297  0  -0.008745  -0.002874  0  3.96267  0
C  C124  1  0.53628112  0.17181780  0.65209106  1  -0.035321  0  -0.008724  -0.002853  0  3.962806  0
C  C125  1  0.96371990  0.32818048  0.15209187  1  -0.035432  0  -0.008708  -0.002931  0  3.962903  0
C  C126  1  0.96372005  0.67181953  0.34790856  1  -0.035434  0  -0.008712  -0.002935  0  3.962898  0
C  C127  1  0.53628292  0.82818374  0.84790957  1  -0.035257  0  -0.008749  -0.00288  0  3.962749  0
C  C128  1  0.45247679  0.83396593  0.41596859  1  -0.00504  0  -0.079925  -0.176916  0  3.954462  0
C  C129  1  0.04751830  0.66603669  0.91596975  1  -0.005075  0  -0.079957  -0.176883  0  3.9544  0
C  C130  1  0.04751745  0.33396214  0.58402999  1  -0.005092  0  -0.079997  -0.177001  0  3.954366  0
C  C131  1  0.45248024  0.16603355  0.08403046  1  -0.005025  0  -0.079987  -0.177001  0  3.954392  0
C  C132  1  0.54752016  0.16603385  0.58403051  1  -0.005123  0  -0.079964  -0.176972  0  3.954418  0
C  C133  1  0.95248164  0.33396309  0.08403034  1  -0.005066  0  -0.079972  -0.176942  0  3.954345  0
C  C134  1  0.95248249  0.66603691  0.41596960  1  -0.005075  0  -0.079955  -0.176887  0  3.954305  0
C  C135  1  0.54752120  0.83396550  0.91596913  1  -0.005104  0  -0.079942  -0.176967  0  3.95438  0
C  C136  1  0.39083122  0.76690947  0.44813602  1  0.263132  0  0.084429  0.161614  0  4.073947  0
C  C137  1  0.10916685  0.73309235  0.94813563  1  0.263192  0  0.084502  0.161635  0  4.073861  0
C  C138  1  0.10916594  0.26690727  0.55186410  1  0.263281  0  0.084461  0.161627  0  4.073841  0
C  C139  1  0.39083326  0.23309068  0.05186452  1  0.263194  0  0.084459  0.161665  0  4.073867  0
C  C140  1  0.60916723  0.23309105  0.55186407  1  0.26319  0  0.084419  0.161594  0  4.073986  0
C  C141  1  0.89083384  0.26690669  0.05186446  1  0.263191  0  0.08447  0.161647  0  4.073844  0
C  C142  1  0.89083326  0.73309325  0.44813549  1  0.263167  0  0.084473  0.161634  0  4.073852  0
C  C143  1  0.60916818  0.76690910  0.94813606  1  0.26317  0  0.084424  0.1616  0  4.073956  0
C  C144  1  0.34005207  0.69422717  0.41324701  1  0.026335  0  -0.080537  -0.182029  0  3.955138  0
C  C145  1  0.15994751  0.80577325  0.91324556  1  0.026288  0  -0.080585  -0.182065  0  3.955008  0
C  C146  1  0.15994875  0.19422643  0.58675366  1  0.026186  0  -0.080557  -0.182078  0  3.954968  0
C  C147  1  0.34005343  0.30577293  0.08675354  1  0.026296  0  -0.08059  -0.182077  0  3.955072  0
C  C148  1  0.65994638  0.30577262  0.58675357  1  0.026314  0  -0.080568  -0.182075  0  3.955085  0
C  C149  1  0.84005393  0.19422579  0.08675452  1  0.026292  0  -0.080549  -0.182056  0  3.955044  0
C  C150  1  0.84005269  0.80577262  0.41324642  1  0.026263  0  -0.080573  -0.182035  0  3.95508  0
C  C151  1  0.65994726  0.69422759  0.91324654  1  0.026263  0  -0.080513  -0.181983  0  3.955022  0
C  C152  1  0.53230749  0.89925086  0.31384042  1  1.614886  0  0.213384  0.589115  0  4.191555  0
C  C153  1  0.96769400  0.60074733  0.81383958  1  1.614858  0  0.213432  0.58921  0  4.191295  0
C  C154  1  0.96769317  0.39925687  0.68615556  1  1.615196  0  0.213375  0.589236  0  4.191354  0
C  C155  1  0.53230485  0.10074208  0.18615665  1  1.615188  0  0.213407  0.589227  0  4.191343  0
C  C156  1  0.46769544  0.10074230  0.68615623  1  1.615194  0  0.213364  0.589215  0  4.191263  0
C  C157  1  0.03230594  0.39925539  0.18615706  1  1.6153  0  0.213406  0.589208  0  4.191284  0
C  C158  1  0.03230603  0.60074585  0.31384207  1  1.615198  0  0.213329  0.589029  0  4.191553  0
C  C159  1  0.46769435  0.89925402  0.81384098  1  1.61522  0  0.213361  0.589107  0  4.191452  0
C  C160  1  0.34160308  0.85261213  0.55146415  1  0.976721  0  0.235481  0.343532  0  3.94536  0
C  C161  1  0.15839666  0.64738825  0.05146370  1  0.976719  0  0.235486  0.343483  0  3.945396  0
C  C162  1  0.15839716  0.35261239  0.44853639  1  0.976697  0  0.235493  0.343524  0  3.945394  0
C  C163  1  0.34160336  0.14738847  0.94853652  1  0.976715  0  0.235484  0.343514  0  3.945372  0
C  C164  1  0.65839686  0.14738765  0.44853594  1  0.976684  0  0.235477  0.343513  0  3.945423  0
C  C165  1  0.84160254  0.35261300  0.94853638  1  0.97661  0  0.235477  0.343533  0  3.945331  0
C  C166  1  0.84160278  0.64738739  0.55146320  1  0.976616  0  0.235487  0.343517  0  3.945276  0
C  C167  1  0.65839659  0.85261204  0.05146406  1  0.976727  0  0.235496  0.343546  0  3.945395  0
C  C168  1  0.41095179  0.70678129  0.56487706  1  0.957102  0  0.226148  0.267343  0  3.954164  0
C  C169  1  0.08904869  0.79321980  0.06487700  1  0.95714  0  0.226152  0.267262  0  3.954172  0
C  C170  1  0.08904754  0.20678003  0.43512311  1  0.957095  0  0.226125  0.26726  0  3.954158  0
C  C171  1  0.41095149  0.29321939  0.93512310  1  0.95709  0  0.226127  0.267263  0  3.954224  0
C  C172  1  0.58904890  0.29321849  0.43512253  1  0.957106  0  0.226164  0.267318  0  3.954209  0
C  C173  1  0.91095126  0.20678071  0.93512309  1  0.957106  0  0.226122  0.267239  0  3.954264  0
C  C174  1  0.91095166  0.79321975  0.56487697  1  0.957152  0  0.226133  0.267235  0  3.954175  0
C  C175  1  0.58904846  0.70678113  0.06487698  1  0.957098  0  0.226147  0.267369  0  3.954124  0
C  C176  1  0.29976163  0.94264798  0.52095485  1  -0.072633  0  -0.22694  -0.471738  0  3.943114  0
C  C177  1  0.20023813  0.55735246  0.02095448  1  -0.072696  0  -0.226971  -0.471804  0  3.943253  0
C  C178  1  0.20023871  0.44264823  0.47904609  1  -0.072606  0  -0.227006  -0.471911  0  3.943289  0
C  C179  1  0.29976104  0.05735258  0.97904484  1  -0.072636  0  -0.226953  -0.471796  0  3.943153  0
C  C180  1  0.70023906  0.05735254  0.47904523  1  -0.072613  0  -0.226947  -0.471776  0  3.943188  0
C  C181  1  0.79976107  0.44264806  0.97904610  1  -0.072501  0  -0.226993  -0.471824  0  3.943213  0
C  C182  1  0.79976123  0.55735155  0.52095448  1  -0.072495  0  -0.226942  -0.471739  0  3.943215  0
C  C183  1  0.70023890  0.94264794  0.02095476  1  -0.072631  0  -0.226957  -0.471747  0  3.94317  0
C  C184  1  0.46018887  0.61105780  0.54942066  1  0.004492  0  -0.147863  -0.178917  0  3.999142  0
C  C185  1  0.03981162  0.88894332  0.04942102  1  0.004493  0  -0.147868  -0.178913  0  3.999122  0
C  C186  1  0.03981036  0.11105647  0.45057910  1  0.004494  0  -0.147849  -0.178935  0  3.999153  0
C  C187  1  0.46018866  0.38894292  0.95057949  1  0.004476  0  -0.147876  -0.178951  0  3.999143  0
C  C188  1  0.53981182  0.38894271  0.45057942  1  0.004493  0  -0.147888  -0.178969  0  3.999086  0
C  C189  1  0.96018832  0.11105647  0.95057956  1  0.004499  0  -0.147824  -0.178872  0  3.999068  0
C  C190  1  0.96018809  0.88894405  0.54942050  1  0.004508  0  -0.147806  -0.178836  0  3.999042  0
C  C191  1  0.53981129  0.61105759  0.04942011  1  0.004477  0  -0.14787  -0.178939  0  3.99914  0
C  C192  1  0.52502066  0.57280970  0.60567543  1  -0.0471  0  -0.241166  -0.343849  0  3.939789  0
C  C193  1  0.97497868  0.92719109  0.10567567  1  -0.047104  0  -0.241161  -0.343917  0  3.939839  0
C  C194  1  0.97497741  0.07280819  0.39432426  1  -0.0471  0  -0.241167  -0.34391  0  3.939862  0
C  C195  1  0.52502052  0.42719109  0.89432471  1  -0.047099  0  -0.241166  -0.343882  0  3.93988  0
C  C196  1  0.47497928  0.42719081  0.39432465  1  -0.04672  0  -0.241164  -0.343838  0  3.939862  0
C  C197  1  0.02502126  0.07280869  0.89432491  1  -0.04709  0  -0.241191  -0.343939  0  3.939798  0
C  C198  1  0.02502104  0.92719085  0.60567533  1  -0.04709  0  -0.241197  -0.343957  0  3.939826  0
C  C199  1  0.47497942  0.57280942  0.10567489  1  -0.046712  0  -0.241178  -0.343922  0  3.939823  0
N  N200  1  0.34863202  0.83307657  0.61509532  1  -0.806901  0  -0.23557  -0.229964  0  3.4575  0
N  N201  1  0.15136769  0.66692369  0.11509486  1  -0.80691  0  -0.235554  -0.229907  0  3.457446  0
N  N202  1  0.15136745  0.33307548  0.38490523  1  -0.806845  0  -0.235598  -0.229974  0  3.457374  0
N  N203  1  0.34863160  0.16692404  0.88490485  1  -0.806874  0  -0.235574  -0.22995  0  3.457441  0
N  N204  1  0.65136792  0.16692395  0.38490476  1  -0.80689  0  -0.235582  -0.229928  0  3.457434  0
N  N205  1  0.84863225  0.33307609  0.88490522  1  -0.806884  0  -0.235584  -0.229983  0  3.457423  0
N  N206  1  0.84863249  0.66692430  0.61509485  1  -0.80688  0  -0.23558  -0.230018  0  3.457486  0
N  N207  1  0.65136834  0.83307574  0.11509523  1  -0.806884  0  -0.235578  -0.229966  0  3.457477  0
N  N208  1  0.39227609  0.74211559  0.62380534  1  -0.661597  0  -0.224158  -0.231685  0  3.129288  0
N  N209  1  0.10772512  0.75788538  0.12380481  1  -0.661587  0  -0.224161  -0.231642  0  3.129269  0
N  N210  1  0.10772329  0.24211447  0.37619529  1  -0.661585  0  -0.224089  -0.23158  0  3.129169  0
N  N211  1  0.39227502  0.25788506  0.87619531  1  -0.661576  0  -0.22415  -0.231614  0  3.129255  0
N  N212  1  0.60772460  0.25788492  0.37619474  1  -0.661612  0  -0.224185  -0.231668  0  3.129264  0
N  N213  1  0.89227558  0.24211440  0.87619527  1  -0.661586  0  -0.224102  -0.231574  0  3.129267  0
N  N214  1  0.89227516  0.75788531  0.62380479  1  -0.66159  0  -0.224171  -0.231631  0  3.129304  0
N  N215  1  0.60772417  0.74211472  0.12380477  1  -0.6616  0  -0.224161  -0.231687  0  3.12925  0
N  N216  1  0.37988863  0.77391126  0.51780805  1  -1.251268  0  -0.220556  -0.136403  0  3.715106  0
N  N217  1  0.12010964  0.72608919  0.01780804  1  -1.251318  0  -0.220594  -0.136333  0  3.71509  0
N  N218  1  0.12011003  0.27391068  0.48219206  1  -1.251267  0  -0.220592  -0.136342  0  3.715073  0
N  N219  1  0.37988897  0.22608865  0.98219212  1  -1.251281  0  -0.220543  -0.13635  0  3.71517  0
N  N220  1  0.62011206  0.22608852  0.48219154  1  -1.251264  0  -0.220516  -0.136346  0  3.715272  0
N  N221  1  0.87989031  0.27391133  0.98219205  1  -1.251259  0  -0.220592  -0.136389  0  3.715132  0
N  N222  1  0.87989066  0.72608910  0.51780753  1  -1.251305  0  -0.220581  -0.136332  0  3.715044  0
N  N223  1  0.62011172  0.77391113  0.01780797  1  -1.251275  0  -0.220553  -0.136421  0  3.715156  0
O  O224  1  0.26093150  0.53979788  0.33921539  1  -1.179968  0  -0.311866  -0.559041  0  2.367909  0
O  O225  1  0.23907110  0.96020488  0.83921527  1  -1.179776  0  -0.311924  -0.559126  0  2.367664  0
O  O226  1  0.23907214  0.03979855  0.66078345  1  -1.179963  0  -0.311824  -0.558998  0  2.368103  0
O  O227  1  0.26093150  0.46020139  0.16078468  1  -1.179991  0  -0.311866  -0.559038  0  2.367959  0
O  O228  1  0.73906919  0.46020263  0.66078273  1  -1.179966  0  -0.311817  -0.558986  0  2.368112  0
O  O229  1  0.76092884  0.03979857  0.16078383  1  -1.179917  0  -0.31182  -0.558994  0  2.3681  0
O  O230  1  0.76092855  0.96020638  0.33921712  1  -1.179803  0  -0.311893  -0.558994  0  2.367576  0
O  O231  1  0.73906919  0.53979471  0.83921687  1  -1.179747  0  -0.3119  -0.559054  0  2.367632  0
O  O232  1  0.27764189  0.63191136  0.24651456  1  -1.162721  0  -0.309208  -0.534609  0  2.31247  0
O  O233  1  0.22235702  0.86809085  0.74651600  1  -1.163232  0  -0.309123  -0.534489  0  2.312809  0
O  O234  1  0.22235886  0.13190816  0.75348617  1  -1.16263  0  -0.309269  -0.534668  0  2.312156  0
O  O235  1  0.27764175  0.36808940  0.25348551  1  -1.16269  0  -0.30923  -0.534645  0  2.312312  0
O  O236  1  0.72235805  0.36809357  0.75348651  1  -1.162567  0  -0.309242  -0.53461  0  2.312252  0
O  O237  1  0.77764218  0.13190673  0.25348703  1  -1.162721  0  -0.30927  -0.534637  0  2.312214  0
O  O238  1  0.77764333  0.86809309  0.24651735  1  -1.163137  0  -0.309121  -0.534415  0  2.312815  0
O  O239  1  0.72235670  0.63190817  0.74651703  1  -1.163159  0  -0.30913  -0.534465  0  2.312794  0
O  O240  1  0.55487370  0.97691631  0.34528010  1  -1.174044  0  -0.322209  -0.554534  0  2.305259  0
O  O241  1  0.94512554  0.52308329  0.84527933  1  -1.174032  0  -0.322172  -0.554523  0  2.30529  0
O  O242  1  0.94512705  0.47691206  0.65472269  1  -1.174113  0  -0.32217  -0.554476  0  2.305544  0
O  O243  1  0.55486950  0.02308769  0.15472433  1  -1.17411  0  -0.322213  -0.554472  0  2.305587  0
O  O244  1  0.44512848  0.02308641  0.65472391  1  -1.174115  0  -0.322154  -0.554449  0  2.305459  0
O  O245  1  0.05487292  0.47691355  0.15472173  1  -1.174092  0  -0.322199  -0.554488  0  2.305328  0
O  O246  1  0.05487215  0.52308551  0.34527789  1  -1.174064  0  -0.322214  -0.554476  0  2.305356  0
O  O247  1  0.44512671  0.97691724  0.84527968  1  -1.174094  0  -0.322175  -0.554512  0  2.305334  0
O  O248  1  0.56231483  0.87380198  0.25725719  1  -1.168903  0  -0.308642  -0.538928  0  2.351394  0
O  O249  1  0.93768893  0.62619412  0.75725388  1  -1.168887  0  -0.308722  -0.539004  0  2.351201  0
O  O250  1  0.93768506  0.37380417  0.74274864  1  -1.1689  0  -0.308628  -0.539056  0  2.351078  0
O  O251  1  0.56231518  0.12619762  0.24274921  1  -1.168936  0  -0.308648  -0.539094  0  2.351021  0
O  O252  1  0.43768586  0.12619707  0.74274830  1  -1.168906  0  -0.308693  -0.53913  0  2.350979  0
O  O253  1  0.06231251  0.37380493  0.24274768  1  -1.168916  0  -0.308685  -0.539044  0  2.351025  0
O  O254  1  0.06231264  0.62619488  0.25725292  1  -1.168829  0  -0.308606  -0.538883  0  2.351189  0
O  O255  1  0.43768850  0.87380584  0.75725529  1  -1.168835  0  -0.308658  -0.538951  0  2.351289  0
