# generated using pymatgen
data_KCoH14C8(NO5)2
_symmetry_space_group_name_H-M   'P 1'
_cell_length_a   5.07532741
_cell_length_b   11.09592785
_cell_length_c   12.22357091
_cell_angle_alpha   90.00085041
_cell_angle_beta   98.28248311
_cell_angle_gamma   89.99945024
_symmetry_Int_Tables_number   1
_chemical_formula_structural   KCoH14C8(NO5)2
_chemical_formula_sum   'K2 Co2 H28 C16 N4 O20'
_cell_volume   681.19625361
_cell_formula_units_Z   2
loop_
 _symmetry_equiv_pos_site_id
 _symmetry_equiv_pos_as_xyz
  1  'x, y, z'
loop_
 _atom_site_type_symbol
 _atom_site_label
 _atom_site_symmetry_multiplicity
 _atom_site_fract_x
 _atom_site_fract_y
 _atom_site_fract_z
 _atom_site_occupancy
 _atom_site_hle17_bader_spin_density
 _atom_site_hle17_ddec_charge
 _atom_site_hle17_ddec_spin_density
 _atom_site_hle17_ddec_sum_bond_order
 _atom_site_hle17_magmom
 _atom_site_hse06_10hf_bader_spin_density
 _atom_site_hse06_10hf_ddec_charge
 _atom_site_hse06_10hf_ddec_spin_density
 _atom_site_hse06_10hf_ddec_sum_bond_order
 _atom_site_hse06_10hf_magmom
 _atom_site_hse06_bader_spin_density
 _atom_site_hse06_ddec_charge
 _atom_site_hse06_ddec_spin_density
 _atom_site_hse06_ddec_sum_bond_order
 _atom_site_hse06_magmom
 _atom_site_pbe_bader_spin_density
 _atom_site_pbe_cm5_charge
 _atom_site_pbe_ddec_charge
 _atom_site_pbe_ddec_spin_density
 _atom_site_pbe_ddec_sum_bond_order
 _atom_site_pbe_magmom
K  K0  1  0.99999126  0.99999137  0.49999942  1  0  0.937662  0  0.356763  0  0  0.895362  0  0.512071  0  0  0.907574  0  0.492799  0  0  0.67304  0.886085  0  0.525994  0
K  K1  1  0.00000641  0.49999955  0.99999195  1  0  0.937657  0  0.356805  0  0  0.895366  0  0.51213  0  0  0.907564  0  0.49287  0  0  0.673053  0.886108  0  0.526046  0
Co  Co2  1  0.49999600  0.00000260  0.00000213  1  0  0.782119  0  2.774178  0  0  0.846292  0  3.156672  0  0  0.930394  0  3.106262  0  0  0.76275  0.792754  0  3.195339  0
Co  Co3  1  0.49999790  0.49999904  0.49999892  1  0  0.781994  0  2.774486  0  0  0.846254  0  3.156933  0  0  0.930318  0  3.106602  0  0  0.762807  0.792857  0  3.195369  0
H  H4  1  0.14023567  0.98202486  0.11332410  1  0  0.277392  0  0.920415  0  0  0.265233  0  0.980016  0  0  0.273875  0  0.97403  0  0  0.306438  0.259259  0  0.984278  0
H  H5  1  0.14021457  0.51798204  0.61331459  1  0  0.277307  0  0.920419  0  0  0.265153  0  0.979996  0  0  0.273795  0  0.974011  0  0  0.306391  0.259177  0  0.984263  0
H  H6  1  0.85975823  0.01797593  0.88668100  1  0  0.277324  0  0.92057  0  0  0.265217  0  0.980114  0  0  0.273861  0  0.974125  0  0  0.306393  0.259239  0  0.984385  0
H  H7  1  0.85978919  0.48202235  0.38668208  1  0  0.277299  0  0.920429  0  0  0.265117  0  0.980065  0  0  0.273758  0  0.974081  0  0  0.306409  0.259144  0  0.984324  0
H  H8  1  0.63051989  0.94429068  0.73520068  1  0  0.126065  0  0.941429  0  0  0.134692  0  1.007842  0  0  0.138554  0  1.004889  0  0  0.126475  0.131813  0  1.010142  0
H  H9  1  0.63054880  0.55569997  0.23520479  1  0  0.125933  0  0.941463  0  0  0.134631  0  1.007813  0  0  0.138487  0  1.004861  0  0  0.126472  0.131756  0  1.010113  0
H  H10  1  0.36948193  0.05571281  0.26480079  1  0  0.126109  0  0.941374  0  0  0.134706  0  1.007812  0  0  0.138597  0  1.004837  0  0  0.126487  0.131819  0  1.01012  0
H  H11  1  0.36945493  0.44429720  0.76479024  1  0  0.125877  0  0.941469  0  0  0.134558  0  1.007845  0  0  0.138418  0  1.004896  0  0  0.126429  0.131686  0  1.010146  0
H  H12  1  0.47447502  0.08700424  0.71307941  1  0  0.128051  0  0.929414  0  0  0.142347  0  0.986378  0  0  0.145552  0  0.983854  0  0  0.128961  0.139892  0  0.988416  0
H  H13  1  0.47452310  0.41299190  0.21307399  1  0  0.127997  0  0.929325  0  0  0.142308  0  0.986277  0  0  0.145506  0  0.98375  0  0  0.128987  0.13986  0  0.988317  0
H  H14  1  0.52552084  0.91299744  0.28692253  1  0  0.128024  0  0.929266  0  0  0.142316  0  0.986245  0  0  0.145527  0  0.983718  0  0  0.128931  0.13986  0  0.988287  0
H  H15  1  0.52548067  0.58700438  0.78692431  1  0  0.127935  0  0.92933  0  0  0.142243  0  0.986287  0  0  0.145445  0  0.98376  0  0  0.128962  0.139797  0  0.988333  0
H  H16  1  0.04397408  0.28063197  0.70943178  1  0  0.401755  0  0.900447  0  0  0.375292  0  0.960845  0  0  0.384913  0  0.946624  0  0  0.28191  0.368488  0  0.970899  0
H  H17  1  0.04399204  0.21937036  0.20943833  1  0  0.401814  0  0.90034  0  0  0.375347  0  0.960766  0  0  0.384973  0  0.946529  0  0  0.281956  0.368544  0  0.970818  0
H  H18  1  0.95602371  0.71937242  0.29056536  1  0  0.401759  0  0.900444  0  0  0.375296  0  0.96084  0  0  0.384917  0  0.946617  0  0  0.281914  0.368493  0  0.970892  0
H  H19  1  0.95600179  0.78062953  0.79056104  1  0  0.401835  0  0.900357  0  0  0.375364  0  0.960745  0  0  0.38499  0  0.946512  0  0  0.281943  0.368562  0  0.970795  0
H  H20  1  0.32134204  0.76719856  0.19201053  1  0  0.112921  0  0.93602  0  0  0.128937  0  0.990317  0  0  0.130931  0  0.989573  0  0  0.121876  0.127317  0  0.991101  0
H  H21  1  0.32136476  0.73280887  0.69200487  1  0  0.112908  0  0.935941  0  0  0.128844  0  0.990339  0  0  0.130883  0  0.989544  0  0  0.121868  0.127252  0  0.991085  0
H  H22  1  0.67864196  0.23280312  0.80799891  1  0  0.112992  0  0.935931  0  0  0.128888  0  0.99033  0  0  0.130942  0  0.989515  0  0  0.121885  0.127253  0  0.991128  0
H  H23  1  0.67864299  0.26719192  0.30799367  1  0  0.112932  0  0.935942  0  0  0.12885  0  0.990366  0  0  0.130885  0  0.989575  0  0  0.121837  0.127242  0  0.991132  0
H  H24  1  0.10047754  0.79155379  0.06794519  1  0  0.122044  0  0.920805  0  0  0.133295  0  0.983758  0  0  0.136809  0  0.981109  0  0  0.128035  0.130689  0  0.98576  0
H  H25  1  0.10047895  0.70845344  0.56795024  1  0  0.121942  0  0.920838  0  0  0.133184  0  0.983804  0  0  0.136694  0  0.981166  0  0  0.128016  0.130576  0  0.98581  0
H  H26  1  0.89951836  0.20844429  0.93206084  1  0  0.122048  0  0.920679  0  0  0.133292  0  0.983622  0  0  0.136805  0  0.98098  0  0  0.12801  0.130685  0  0.985623  0
H  H27  1  0.89953879  0.29155185  0.43205134  1  0  0.121978  0  0.920842  0  0  0.133231  0  0.983791  0  0  0.136741  0  0.981154  0  0  0.128018  0.130624  0  0.985793  0
H  H28  1  0.19910710  0.25989623  0.61100770  1  0  0.398121  0  0.913786  0  0  0.367383  0  0.980786  0  0  0.378833  0  0.963678  0  0  0.279465  0.359293  0  0.992855  0
H  H29  1  0.19910869  0.24009938  0.11100785  1  0  0.398097  0  0.913813  0  0  0.367369  0  0.980788  0  0  0.378813  0  0.963689  0  0  0.279474  0.359282  0  0.992854  0
H  H30  1  0.80089073  0.74010275  0.38899272  1  0  0.398121  0  0.913781  0  0  0.367384  0  0.98078  0  0  0.378834  0  0.963672  0  0  0.279469  0.359293  0  0.99285  0
H  H31  1  0.80088717  0.75990230  0.88899491  1  0  0.398118  0  0.913785  0  0  0.367404  0  0.980742  0  0  0.378851  0  0.963638  0  0  0.279485  0.359314  0  0.992811  0
C  C32  1  0.25165751  0.96098812  0.79223894  1  0  0.679258  0  3.79822  0  0  0.634527  0  4.106198  0  0  0.670426  0  4.096285  0  0  0.223506  0.60951  0  4.112602  0
C  C33  1  0.25169859  0.53900858  0.29223617  1  0  0.679403  0  3.798051  0  0  0.634688  0  4.106012  0  0  0.670585  0  4.096092  0  0  0.223598  0.609675  0  4.112417  0
C  C34  1  0.74832634  0.03900996  0.20775658  1  0  0.679161  0  3.798257  0  0  0.634478  0  4.106149  0  0  0.670387  0  4.096237  0  0  0.223409  0.609459  0  4.112557  0
C  C35  1  0.74832911  0.46098229  0.70776680  1  0  0.679246  0  3.798536  0  0  0.634597  0  4.106368  0  0  0.670495  0  4.096458  0  0  0.223527  0.609589  0  4.112769  0
C  C36  1  0.48381550  0.98704584  0.22724920  1  0  -0.161772  0  3.590282  0  0  -0.21696  0  3.844084  0  0  -0.218337  0  3.848507  0  0  -0.066103  -0.215904  0  3.841619  0
C  C37  1  0.48379254  0.51295880  0.72724361  1  0  -0.161437  0  3.590118  0  0  -0.216723  0  3.843975  0  0  -0.218056  0  3.84839  0  0  -0.066113  -0.215702  0  3.841534  0
C  C38  1  0.51618830  0.01295765  0.77275156  1  0  -0.161741  0  3.590378  0  0  -0.216982  0  3.844259  0  0  -0.218317  0  3.848671  0  0  -0.066114  -0.215934  0  3.841785  0
C  C39  1  0.51621322  0.48703928  0.27275482  1  0  -0.161673  0  3.590385  0  0  -0.216965  0  3.844297  0  0  -0.218274  0  3.848689  0  0  -0.0662  -0.215923  0  3.841837  0
C  C40  1  0.69918416  0.18850550  0.88879170  1  0  -0.143632  0  3.585969  0  0  -0.200223  0  3.842044  0  0  -0.200865  0  3.84704  0  0  -0.065112  -0.19951  0  3.838882  0
C  C41  1  0.69920628  0.31149256  0.38878748  1  0  -0.143425  0  3.585727  0  0  -0.200169  0  3.841919  0  0  -0.200793  0  3.846928  0  0  -0.065081  -0.199478  0  3.838741  0
C  C42  1  0.30081174  0.81148898  0.11121433  1  0  -0.143459  0  3.585889  0  0  -0.200246  0  3.842085  0  0  -0.200839  0  3.847096  0  0  -0.065121  -0.199542  0  3.838923  0
C  C43  1  0.30081142  0.68851454  0.61121000  1  0  -0.14326  0  3.585796  0  0  -0.200014  0  3.841999  0  0  -0.200642  0  3.847001  0  0  -0.065097  -0.199337  0  3.838823  0
C  C44  1  0.49883360  0.24116540  0.95702178  1  0  0.671147  0  3.823456  0  0  0.629193  0  4.1336  0  0  0.664711  0  4.123955  0  0  0.221614  0.604478  0  4.139747  0
C  C45  1  0.49885671  0.25882373  0.45702016  1  0  0.670868  0  3.823624  0  0  0.629115  0  4.133467  0  0  0.664599  0  4.123853  0  0  0.221625  0.604412  0  4.139601  0
C  C46  1  0.50116031  0.75883177  0.04298414  1  0  0.671152  0  3.823549  0  0  0.629262  0  4.133616  0  0  0.664781  0  4.123958  0  0  0.221631  0.604548  0  4.139768  0
C  C47  1  0.50115307  0.74117525  0.54298177  1  0  0.670889  0  3.823894  0  0  0.629056  0  4.133834  0  0  0.664555  0  4.124205  0  0  0.221516  0.604342  0  4.139986  0
N  N48  1  0.32810087  0.94387722  0.12241739  1  0  -0.274908  0  3.255682  0  0  -0.244526  0  3.524783  0  0  -0.267468  0  3.536847  0  0  -0.4796  -0.229983  0  3.517453  0
N  N49  1  0.32808704  0.55612636  0.62240964  1  0  -0.274889  0  3.255668  0  0  -0.244485  0  3.524728  0  0  -0.267425  0  3.536796  0  0  -0.4796  -0.229953  0  3.517379  0
N  N50  1  0.67189498  0.05611996  0.87758455  1  0  -0.274745  0  3.256048  0  0  -0.244396  0  3.525056  0  0  -0.267346  0  3.537125  0  0  -0.479545  -0.229853  0  3.517725  0
N  N51  1  0.67191673  0.44387622  0.37758785  1  0  -0.274678  0  3.255801  0  0  -0.244259  0  3.52488  0  0  -0.267206  0  3.536943  0  0  -0.479558  -0.229736  0  3.517531  0
O  O52  1  0.20178562  0.96268515  0.89418941  1  0  -0.544482  0  2.124332  0  0  -0.517331  0  2.385585  0  0  -0.552684  0  2.377615  0  0  -0.298814  -0.493354  0  2.391235  0
O  O53  1  0.20180672  0.53730888  0.39417565  1  0  -0.544476  0  2.124287  0  0  -0.51737  0  2.385596  0  0  -0.552713  0  2.37763  0  0  -0.298892  -0.493417  0  2.391227  0
O  O54  1  0.79820227  0.03731293  0.10581206  1  0  -0.544324  0  2.124597  0  0  -0.517185  0  2.385829  0  0  -0.552536  0  2.377853  0  0  -0.298706  -0.493209  0  2.391484  0
O  O55  1  0.79818502  0.46269641  0.60581378  1  0  -0.544545  0  2.124248  0  0  -0.517403  0  2.385459  0  0  -0.552754  0  2.377501  0  0  -0.298872  -0.493445  0  2.391081  0
O  O56  1  0.08973380  0.91854433  0.71559821  1  0  -0.624724  0  1.971518  0  0  -0.580371  0  2.20121  0  0  -0.605154  0  2.19248  0  0  -0.354779  -0.562808  0  2.206789  0
O  O57  1  0.08977196  0.58145270  0.21558194  1  0  -0.624736  0  1.971018  0  0  -0.580459  0  2.200801  0  0  -0.605235  0  2.192054  0  0  -0.354816  -0.562895  0  2.20638  0
O  O58  1  0.91027204  0.08145826  0.28440676  1  0  -0.624737  0  1.971023  0  0  -0.580421  0  2.200723  0  0  -0.605205  0  2.191982  0  0  -0.354796  -0.562854  0  2.206301  0
O  O59  1  0.91021374  0.41854448  0.78440223  1  0  -0.624503  0  1.971864  0  0  -0.580294  0  2.201677  0  0  -0.60506  0  2.192927  0  0  -0.354713  -0.562735  0  2.207253  0
O  O60  1  0.37431825  0.16127291  0.01015526  1  0  -0.566896  0  2.107248  0  0  -0.536848  0  2.366236  0  0  -0.573501  0  2.35747  0  0  -0.299093  -0.512018  0  2.372482  0
O  O61  1  0.37434111  0.33873301  0.51015924  1  0  -0.566977  0  2.107007  0  0  -0.536998  0  2.365947  0  0  -0.573634  0  2.357179  0  0  -0.299164  -0.512186  0  2.372161  0
O  O62  1  0.62567364  0.83872247  0.98984809  1  0  -0.566933  0  2.107146  0  0  -0.536897  0  2.366096  0  0  -0.573554  0  2.357337  0  0  -0.299102  -0.512063  0  2.372338  0
O  O63  1  0.62566071  0.66127048  0.48984305  1  0  -0.566977  0  2.107099  0  0  -0.536948  0  2.366018  0  0  -0.573595  0  2.357269  0  0  -0.299153  -0.512134  0  2.372236  0
O  O64  1  0.53930932  0.64881742  0.03702032  1  0  -0.6151  0  1.892708  0  0  -0.580481  0  2.115254  0  0  -0.603576  0  2.106415  0  0  -0.344944  -0.563853  0  2.120777  0
O  O65  1  0.53929405  0.85116412  0.53701572  1  0  -0.614854  0  1.893309  0  0  -0.580247  0  2.115818  0  0  -0.603329  0  2.106985  0  0  -0.344809  -0.563628  0  2.121339  0
O  O66  1  0.46068257  0.35118517  0.96298302  1  0  -0.615161  0  1.892579  0  0  -0.58051  0  2.115144  0  0  -0.603606  0  2.106308  0  0  -0.344992  -0.563882  0  2.120666  0
O  O67  1  0.46073561  0.14884207  0.46298491  1  0  -0.61477  0  1.89336  0  0  -0.580205  0  2.11585  0  0  -0.603279  0  2.107022  0  0  -0.34489  -0.563594  0  2.121366  0
O  O68  1  0.11016429  0.21597533  0.66560592  1  0  -0.845331  0  1.749281  0  0  -0.805013  0  1.895978  0  0  -0.822126  0  1.866703  0  0  -0.627666  -0.792748  0  1.916488  0
O  O69  1  0.11017505  0.28402422  0.16560884  1  0  -0.845367  0  1.749244  0  0  -0.805041  0  1.895938  0  0  -0.822145  0  1.866668  0  0  -0.627725  -0.792778  0  1.916447  0
O  O70  1  0.88983152  0.78402455  0.33439275  1  0  -0.845341  0  1.749308  0  0  -0.805024  0  1.896016  0  0  -0.822137  0  1.866736  0  0  -0.627684  -0.792757  0  1.916529  0
O  O71  1  0.88981882  0.71597656  0.83439380  1  0  -0.845403  0  1.74926  0  0  -0.805078  0  1.895892  0  0  -0.822186  0  1.866611  0  0  -0.627717  -0.792813  0  1.916408  0
