# generated using pymatgen
data_YH8C7NO8
_symmetry_space_group_name_H-M   'P 1'
_cell_length_a   7.43198127
_cell_length_b   9.15126490
_cell_length_c   15.64770515
_cell_angle_alpha   103.44858667
_cell_angle_beta   89.99906606
_cell_angle_gamma   89.99778741
_symmetry_Int_Tables_number   1
_chemical_formula_structural   YH8C7NO8
_chemical_formula_sum   'Y4 H32 C28 N4 O32'
_cell_volume   1035.04987757
_cell_formula_units_Z   4
loop_
 _symmetry_equiv_pos_site_id
 _symmetry_equiv_pos_as_xyz
  1  'x, y, z'
loop_
 _atom_site_type_symbol
 _atom_site_label
 _atom_site_symmetry_multiplicity
 _atom_site_fract_x
 _atom_site_fract_y
 _atom_site_fract_z
 _atom_site_occupancy
 _atom_site_hle17_bader_spin_density
 _atom_site_hle17_ddec_charge
 _atom_site_hle17_ddec_spin_density
 _atom_site_hle17_ddec_sum_bond_order
 _atom_site_hle17_magmom
 _atom_site_hse06_10hf_bader_spin_density
 _atom_site_hse06_10hf_ddec_charge
 _atom_site_hse06_10hf_ddec_spin_density
 _atom_site_hse06_10hf_ddec_sum_bond_order
 _atom_site_hse06_10hf_magmom
 _atom_site_hse06_bader_spin_density
 _atom_site_hse06_ddec_charge
 _atom_site_hse06_ddec_spin_density
 _atom_site_hse06_ddec_sum_bond_order
 _atom_site_hse06_magmom
 _atom_site_pbe_bader_spin_density
 _atom_site_pbe_cm5_charge
 _atom_site_pbe_ddec_charge
 _atom_site_pbe_ddec_spin_density
 _atom_site_pbe_ddec_sum_bond_order
 _atom_site_pbe_magmom
Y  Y0  1  0.68362402  0.99148185  0.74893990  1  0  2.020951  0  1.874094  0  0  1.811908  0  2.373272  0  0  1.883241  0  2.306538  0  0  1.299  1.76173  0  2.417099  0
Y  Y1  1  0.18362059  0.50853109  0.75106289  1  0  2.020862  0  1.874131  0  0  1.81179  0  2.373509  0  0  1.883196  0  2.306644  0  0  1.29898  1.761618  0  2.417358  0
Y  Y2  1  0.31636914  0.00852135  0.25106352  1  0  2.020956  0  1.874119  0  0  1.81196  0  2.37326  0  0  1.883263  0  2.306584  0  0  1.299014  1.761769  0  2.41709  0
Y  Y3  1  0.81637258  0.49146341  0.24893346  1  0  2.020872  0  1.874161  0  0  1.811745  0  2.373596  0  0  1.883243  0  2.306566  0  0  1.298963  1.76156  0  2.417432  0
H  H4  1  0.02147549  0.82698086  0.69798754  1  0  0.433469  0  0.867423  0  0  0.404197  0  0.926951  0  0  0.416595  0  0.908875  0  0  0.303614  0.395378  0  0.939816  0
H  H5  1  0.52146259  0.67304192  0.80200907  1  0  0.433545  0  0.867278  0  0  0.404266  0  0.926824  0  0  0.416665  0  0.908745  0  0  0.303626  0.395448  0  0.939689  0
H  H6  1  0.97851767  0.17301376  0.30200627  1  0  0.43329  0  0.86769  0  0  0.404093  0  0.927093  0  0  0.416491  0  0.909016  0  0  0.303541  0.395274  0  0.939955  0
H  H7  1  0.47853326  0.32695235  0.19799171  1  0  0.433532  0  0.867303  0  0  0.404273  0  0.926826  0  0  0.416674  0  0.908742  0  0  0.303591  0.395449  0  0.939699  0
H  H8  1  0.99902997  0.83902061  0.79599996  1  0  0.427132  0  0.886093  0  0  0.39471  0  0.952002  0  0  0.406156  0  0.935641  0  0  0.300599  0.386694  0  0.963437  0
H  H9  1  0.49903296  0.66101922  0.70399547  1  0  0.427343  0  0.885782  0  0  0.394854  0  0.951793  0  0  0.406298  0  0.935436  0  0  0.300674  0.386842  0  0.963221  0
H  H10  1  0.00097530  0.16098655  0.20399191  1  0  0.427351  0  0.885763  0  0  0.394852  0  0.951801  0  0  0.406294  0  0.935445  0  0  0.300685  0.386838  0  0.963229  0
H  H11  1  0.50097904  0.33898202  0.29600190  1  0  0.427382  0  0.885747  0  0  0.394913  0  0.951724  0  0  0.406354  0  0.93537  0  0  0.300698  0.386899  0  0.963152  0
H  H12  1  0.42925566  0.15135031  0.89759084  1  0  0.440573  0  0.852465  0  0  0.408682  0  0.917206  0  0  0.420015  0  0.900744  0  0  0.299545  0.400607  0  0.928912  0
H  H13  1  0.92926765  0.34865689  0.60240676  1  0  0.440565  0  0.852453  0  0  0.408664  0  0.917214  0  0  0.420004  0  0.900741  0  0  0.299557  0.400592  0  0.928918  0
H  H14  1  0.57074154  0.84865847  0.10241407  1  0  0.440516  0  0.852551  0  0  0.408619  0  0.917304  0  0  0.419953  0  0.900845  0  0  0.299502  0.400541  0  0.929015  0
H  H15  1  0.07072821  0.65133761  0.39758958  1  0  0.440567  0  0.85244  0  0  0.408622  0  0.917291  0  0  0.419965  0  0.900815  0  0  0.29949  0.400545  0  0.928999  0
H  H16  1  0.38430597  0.18706406  0.80253647  1  0  0.437152  0  0.864332  0  0  0.403971  0  0.930023  0  0  0.416442  0  0.911905  0  0  0.303161  0.395178  0  0.942768  0
H  H17  1  0.88432071  0.31297379  0.69747061  1  0  0.436989  0  0.864562  0  0  0.40386  0  0.930196  0  0  0.416329  0  0.912083  0  0  0.303155  0.395068  0  0.942939  0
H  H18  1  0.61568450  0.81295245  0.19747217  1  0  0.437251  0  0.864224  0  0  0.404102  0  0.929859  0  0  0.416573  0  0.911739  0  0  0.303238  0.395307  0  0.942603  0
H  H19  1  0.11568052  0.68701519  0.30252297  1  0  0.437077  0  0.864442  0  0  0.403932  0  0.930085  0  0  0.416402  0  0.911969  0  0  0.303193  0.39514  0  0.942826  0
H  H20  1  0.80004127  0.01968310  0.56141561  1  0  0.423322  0  0.828419  0  0  0.402028  0  0.890391  0  0  0.410691  0  0.880542  0  0  0.320002  0.395456  0  0.898247  0
H  H21  1  0.30003682  0.48033215  0.93858679  1  0  0.423211  0  0.828348  0  0  0.401905  0  0.890354  0  0  0.41057  0  0.880502  0  0  0.319932  0.395335  0  0.898216  0
H  H22  1  0.19993844  0.98032131  0.43858608  1  0  0.423229  0  0.828422  0  0  0.401915  0  0.890453  0  0  0.410582  0  0.880594  0  0  0.319937  0.395336  0  0.898327  0
H  H23  1  0.69994962  0.51967005  0.06141392  1  0  0.423362  0  0.828258  0  0  0.402059  0  0.890257  0  0  0.410724  0  0.880406  0  0  0.320001  0.395485  0  0.898126  0
H  H24  1  0.94100316  0.89666996  0.57176346  1  0  0.425252  0  0.847253  0  0  0.392318  0  0.925232  0  0  0.403801  0  0.9083  0  0  0.302415  0.384035  0  0.937471  0
H  H25  1  0.44100055  0.60333106  0.92823740  1  0  0.425198  0  0.847331  0  0  0.392255  0  0.925324  0  0  0.40374  0  0.90839  0  0  0.302395  0.383977  0  0.937556  0
H  H26  1  0.05898192  0.10333676  0.42823730  1  0  0.425305  0  0.847183  0  0  0.39229  0  0.925288  0  0  0.403776  0  0.908353  0  0  0.302375  0.38401  0  0.937522  0
H  H27  1  0.55899531  0.39666736  0.07177104  1  0  0.425273  0  0.847221  0  0  0.392337  0  0.925197  0  0  0.403817  0  0.908273  0  0  0.302468  0.384057  0  0.937434  0
H  H28  1  0.01520601  0.38561399  0.01784167  1  0  0.1289  0  0.955024  0  0  0.134359  0  1.024643  0  0  0.139052  0  1.021109  0  0  0.112506  0.13074  0  1.027925  0
H  H29  1  0.51519699  0.11437311  0.48215548  1  0  0.128848  0  0.955115  0  0  0.134312  0  1.024719  0  0  0.139009  0  1.021177  0  0  0.112487  0.130693  0  1.027997  0
H  H30  1  0.98480329  0.61438153  0.98215674  1  0  0.128787  0  0.955161  0  0  0.134294  0  1.024719  0  0  0.138977  0  1.021206  0  0  0.112461  0.13068  0  1.027997  0
H  H31  1  0.48480693  0.88560104  0.51784033  1  0  0.128937  0  0.955155  0  0  0.134381  0  1.024737  0  0  0.139067  0  1.021214  0  0  0.112525  0.130766  0  1.028019  0
H  H32  1  0.76177861  0.02049203  0.10421921  1  0  0.140687  0  0.955344  0  0  0.148273  0  1.018783  0  0  0.153153  0  1.015333  0  0  0.117161  0.14473  0  1.021563  0
H  H33  1  0.26175669  0.47949793  0.39578283  1  0  0.140811  0  0.955456  0  0  0.148339  0  1.018908  0  0  0.153218  0  1.015462  0  0  0.117215  0.144802  0  1.021688  0
H  H34  1  0.23823069  0.97951020  0.89578087  1  0  0.140701  0  0.955343  0  0  0.148327  0  1.018731  0  0  0.153206  0  1.015286  0  0  0.117181  0.144785  0  1.021514  0
H  H35  1  0.73824454  0.52049622  0.60422049  1  0  0.140783  0  0.95546  0  0  0.14847  0  1.018742  0  0  0.153349  0  1.01529  0  0  0.117278  0.144931  0  1.021528  0
C  C36  1  0.92113311  0.27982331  0.84230603  1  0  0.678075  0  3.827646  0  0  0.626496  0  4.113891  0  0  0.662699  0  4.102548  0  0  0.248585  0.601657  0  4.121441  0
C  C37  1  0.42114150  0.22020154  0.65768408  1  0  0.678647  0  3.827539  0  0  0.626983  0  4.113926  0  0  0.663185  0  4.102576  0  0  0.248659  0.60215  0  4.121475  0
C  C38  1  0.07887082  0.72018354  0.15769219  1  0  0.677997  0  3.828096  0  0  0.626607  0  4.113988  0  0  0.662812  0  4.102641  0  0  0.248556  0.601767  0  4.121536  0
C  C39  1  0.57886243  0.77979021  0.34232207  1  0  0.678452  0  3.828033  0  0  0.626846  0  4.114352  0  0  0.663048  0  4.103007  0  0  0.24858  0.602009  0  4.121897  0
C  C40  1  0.88755296  0.21170773  0.91939981  1  0  0.116806  0  3.803837  0  0  0.118392  0  4.050825  0  0  0.121549  0  4.068778  0  0  0.110537  0.11637  0  4.038609  0
C  C41  1  0.38755786  0.28831721  0.58059122  1  0  0.116837  0  3.804289  0  0  0.118278  0  4.051497  0  0  0.121433  0  4.069453  0  0  0.11065  0.11625  0  4.039294  0
C  C42  1  0.11244693  0.78829697  0.08059616  1  0  0.116786  0  3.804119  0  0  0.118414  0  4.050907  0  0  0.121574  0  4.068851  0  0  0.110609  0.116391  0  4.038696  0
C  C43  1  0.61245683  0.71167482  0.41940922  1  0  0.116887  0  3.804714  0  0  0.118274  0  4.051873  0  0  0.121432  0  4.069825  0  0  0.110696  0.116249  0  4.039659  0
C  C44  1  0.94057432  0.28055206  0.00394724  1  0  -0.236646  0  3.674572  0  0  -0.272871  0  3.939135  0  0  -0.279972  0  3.954607  0  0  -0.089899  -0.267852  0  3.928952  0
C  C45  1  0.44056819  0.21944158  0.49604946  1  0  -0.236633  0  3.67457  0  0  -0.272807  0  3.939152  0  0  -0.279908  0  3.954615  0  0  -0.089886  -0.267791  0  3.928968  0
C  C46  1  0.05944172  0.71945007  0.99605473  1  0  -0.236557  0  3.674691  0  0  -0.272826  0  3.939184  0  0  -0.27993  0  3.954653  0  0  -0.089838  -0.267815  0  3.92901  0
C  C47  1  0.55944381  0.78053832  0.50394466  1  0  -0.23673  0  3.674951  0  0  -0.272841  0  3.939426  0  0  -0.279939  0  3.954882  0  0  -0.089886  -0.267824  0  3.929244  0
C  C48  1  0.89016021  0.21527079  0.07384724  1  0  0.420337  0  3.865071  0  0  0.406999  0  4.127072  0  0  0.425251  0  4.138352  0  0  0.106677  0.394544  0  4.119043  0
C  C49  1  0.39015588  0.28473044  0.42614910  1  0  0.420562  0  3.865377  0  0  0.407172  0  4.127365  0  0  0.42543  0  4.138618  0  0  0.10671  0.394725  0  4.119331  0
C  C50  1  0.10983699  0.78473260  0.92615237  1  0  0.420352  0  3.864798  0  0  0.407017  0  4.126841  0  0  0.425276  0  4.138113  0  0  0.106657  0.394564  0  4.11882  0
C  C51  1  0.60985477  0.71526849  0.57384919  1  0  0.420268  0  3.865985  0  0  0.406945  0  4.127784  0  0  0.425207  0  4.13904  0  0  0.106608  0.394486  0  4.119766  0
C  C52  1  0.79970881  0.07518067  0.05210982  1  0  -0.221022  0  3.61407  0  0  -0.25654  0  3.874236  0  0  -0.264911  0  3.891744  0  0  -0.087944  -0.251194  0  3.862869  0
C  C53  1  0.29972147  0.42482374  0.44789155  1  0  -0.22133  0  3.61461  0  0  -0.256797  0  3.874775  0  0  -0.265164  0  3.892276  0  0  -0.087978  -0.251464  0  3.863423  0
C  C54  1  0.20027763  0.92482493  0.94789076  1  0  -0.221136  0  3.614143  0  0  -0.256676  0  3.874291  0  0  -0.265056  0  3.891808  0  0  -0.08798  -0.25134  0  3.862937  0
C  C55  1  0.70029457  0.57518046  0.55211458  1  0  -0.221056  0  3.614609  0  0  -0.256706  0  3.874768  0  0  -0.265072  0  3.892278  0  0  -0.08794  -0.251372  0  3.863425  0
C  C56  1  0.75549656  0.01307666  0.96506076  1  0  0.117582  0  3.774312  0  0  0.119627  0  4.025012  0  0  0.122904  0  4.045035  0  0  0.109044  0.117526  0  4.0114  0
C  C57  1  0.25551914  0.48691663  0.53493929  1  0  0.117983  0  3.775313  0  0  0.120022  0  4.025803  0  0  0.123283  0  4.045852  0  0  0.109286  0.117916  0  4.012209  0
C  C58  1  0.24450064  0.98692002  0.03493719  1  0  0.117574  0  3.774449  0  0  0.119651  0  4.025141  0  0  0.122925  0  4.045179  0  0  0.109019  0.117556  0  4.011522  0
C  C59  1  0.74449690  0.51308323  0.46506299  1  0  0.117727  0  3.774907  0  0  0.119705  0  4.02548  0  0  0.122953  0  4.045563  0  0  0.109093  0.117608  0  4.011872  0
C  C60  1  0.65267807  0.86716636  0.93378363  1  0  0.648204  0  3.863297  0  0  0.592216  0  4.168239  0  0  0.625586  0  4.160351  0  0  0.226791  0.569455  0  4.17291  0
C  C61  1  0.15270685  0.63281756  0.56621179  1  0  0.648029  0  3.863555  0  0  0.592262  0  4.168176  0  0  0.625634  0  4.160287  0  0  0.22669  0.569512  0  4.172839  0
C  C62  1  0.34731912  0.13283921  0.06621759  1  0  0.648248  0  3.86322  0  0  0.592233  0  4.16818  0  0  0.625603  0  4.160286  0  0  0.226759  0.569476  0  4.172845  0
C  C63  1  0.84730111  0.36718227  0.43379112  1  0  0.647831  0  3.864011  0  0  0.59216  0  4.168516  0  0  0.62553  0  4.160629  0  0  0.226644  0.569403  0  4.173181  0
N  N64  1  0.79554181  0.08162743  0.89996924  1  0  -0.439252  0  3.312611  0  0  -0.386819  0  3.561047  0  0  -0.40562  0  3.583575  0  0  -0.392305  -0.373746  0  3.545281  0
N  N65  1  0.29556827  0.41839479  0.60003297  1  0  -0.439607  0  3.313541  0  0  -0.387145  0  3.562028  0  0  -0.405946  0  3.584553  0  0  -0.392604  -0.374061  0  3.546251  0
N  N66  1  0.20445673  0.91838041  0.10003169  1  0  -0.439229  0  3.312687  0  0  -0.386843  0  3.561083  0  0  -0.405639  0  3.583617  0  0  -0.392319  -0.373753  0  3.545278  0
N  N67  1  0.70445045  0.58159984  0.39996083  1  0  -0.439385  0  3.313131  0  0  -0.386902  0  3.56165  0  0  -0.405707  0  3.584179  0  0  -0.392527  -0.373835  0  3.545908  0
O  O68  1  0.83157664  0.22274548  0.77243808  1  0  -0.66916  0  2.067504  0  0  -0.596816  0  2.297889  0  0  -0.626895  0  2.286306  0  0  -0.341829  -0.575902  0  2.305278  0
O  O69  1  0.33158153  0.27724508  0.72755904  1  0  -0.669508  0  2.067462  0  0  -0.597073  0  2.297844  0  0  -0.627169  0  2.28626  0  0  -0.341902  -0.576159  0  2.305224  0
O  O70  1  0.16842998  0.77724334  0.22755868  1  0  -0.669193  0  2.067729  0  0  -0.596928  0  2.298032  0  0  -0.626998  0  2.286434  0  0  -0.341874  -0.576021  0  2.305425  0
O  O71  1  0.66839952  0.72275837  0.27243930  1  0  -0.669436  0  2.067514  0  0  -0.597036  0  2.297887  0  0  -0.627136  0  2.286289  0  0  -0.34185  -0.576125  0  2.305278  0
O  O72  1  0.03089680  0.38755389  0.84974848  1  0  -0.660344  0  2.004114  0  0  -0.596947  0  2.247006  0  0  -0.624878  0  2.234991  0  0  -0.34323  -0.57761  0  2.254994  0
O  O73  1  0.53089549  0.11246367  0.65025319  1  0  -0.660657  0  2.00413  0  0  -0.597149  0  2.246975  0  0  -0.625066  0  2.234955  0  0  -0.343273  -0.577812  0  2.254956  0
O  O74  1  0.96908964  0.61245727  0.15025423  1  0  -0.660294  0  2.004155  0  0  -0.596973  0  2.246956  0  0  -0.624916  0  2.234934  0  0  -0.343208  -0.577634  0  2.254936  0
O  O75  1  0.46910575  0.88752646  0.34973993  1  0  -0.660493  0  2.004221  0  0  -0.597043  0  2.247087  0  0  -0.624958  0  2.235072  0  0  -0.343223  -0.577691  0  2.255051  0
O  O76  1  0.92629981  0.28238104  0.15584886  1  0  -0.710758  0  2.071543  0  0  -0.632527  0  2.307539  0  0  -0.661427  0  2.298377  0  0  -0.406952  -0.611989  0  2.31289  0
O  O77  1  0.42630252  0.21761713  0.34415888  1  0  -0.710785  0  2.071859  0  0  -0.632511  0  2.307771  0  0  -0.661386  0  2.29864  0  0  -0.406819  -0.611976  0  2.313118  0
O  O78  1  0.07368124  0.71762572  0.84415126  1  0  -0.710659  0  2.071319  0  0  -0.632542  0  2.307372  0  0  -0.661417  0  2.298182  0  0  -0.40695  -0.612016  0  2.312738  0
O  O79  1  0.57370275  0.78237846  0.65583827  1  0  -0.710682  0  2.071914  0  0  -0.632375  0  2.307738  0  0  -0.661244  0  2.298572  0  0  -0.406809  -0.611848  0  2.313099  0
O  O80  1  0.62207730  0.83251976  0.85060010  1  0  -0.679553  0  2.050179  0  0  -0.606141  0  2.283545  0  0  -0.635719  0  2.27335  0  0  -0.336945  -0.585487  0  2.289904  0
O  O81  1  0.12207092  0.66750493  0.64939537  1  0  -0.679418  0  2.049733  0  0  -0.606091  0  2.283024  0  0  -0.635675  0  2.272827  0  0  -0.336873  -0.585435  0  2.289377  0
O  O82  1  0.37790644  0.16748232  0.14940315  1  0  -0.679536  0  2.050083  0  0  -0.606098  0  2.283427  0  0  -0.635667  0  2.273233  0  0  -0.336869  -0.585441  0  2.289777  0
O  O83  1  0.87792224  0.33248454  0.35061108  1  0  -0.67929  0  2.049884  0  0  -0.606018  0  2.28311  0  0  -0.635601  0  2.272903  0  0  -0.336754  -0.585358  0  2.289466  0
O  O84  1  0.60159983  0.78965376  0.98630794  1  0  -0.620115  0  1.92863  0  0  -0.564829  0  2.145398  0  0  -0.588963  0  2.135559  0  0  -0.306483  -0.5478  0  2.151996  0
O  O85  1  0.10158355  0.71036594  0.51371250  1  0  -0.620166  0  1.928803  0  0  -0.564931  0  2.145468  0  0  -0.589086  0  2.135662  0  0  -0.30651  -0.547901  0  2.152064  0
O  O86  1  0.39842428  0.21034370  0.01369716  1  0  -0.620124  0  1.928854  0  0  -0.564859  0  2.145644  0  0  -0.58899  0  2.135806  0  0  -0.306459  -0.547838  0  2.152244  0
O  O87  1  0.89841634  0.28963296  0.48628643  1  0  -0.620057  0  1.928931  0  0  -0.564898  0  2.145573  0  0  -0.589048  0  2.135763  0  0  -0.306546  -0.547871  0  2.152171  0
O  O88  1  0.96505053  0.89554264  0.75029866  1  0  -0.901155  0  1.897311  0  0  -0.844829  0  2.102161  0  0  -0.869652  0  2.068275  0  0  -0.654032  -0.82723  0  2.125352  0
O  O89  1  0.46503457  0.60448841  0.74969443  1  0  -0.901384  0  1.896853  0  0  -0.845023  0  2.1018  0  0  -0.869837  0  2.067879  0  0  -0.654102  -0.827425  0  2.12499  0
O  O90  1  0.03495474  0.10445669  0.24969139  1  0  -0.901181  0  1.897266  0  0  -0.844874  0  2.102147  0  0  -0.869701  0  2.068294  0  0  -0.654089  -0.827279  0  2.125341  0
O  O91  1  0.53496398  0.39551379  0.25030628  1  0  -0.901419  0  1.896928  0  0  -0.845079  0  2.101818  0  0  -0.869918  0  2.06792  0  0  -0.654125  -0.827481  0  2.125017  0
O  O92  1  0.44088029  0.11331205  0.83291477  1  0  -0.900359  0  1.867053  0  0  -0.840705  0  2.061047  0  0  -0.864506  0  2.026083  0  0  -0.625555  -0.823826  0  2.085226  0
O  O93  1  0.94089387  0.38671034  0.66708696  1  0  -0.900207  0  1.867342  0  0  -0.840583  0  2.061238  0  0  -0.864393  0  2.026264  0  0  -0.625555  -0.82371  0  2.085423  0
O  O94  1  0.55912094  0.88670350  0.16709052  1  0  -0.900396  0  1.867088  0  0  -0.840747  0  2.061039  0  0  -0.864548  0  2.026064  0  0  -0.625581  -0.823873  0  2.085223  0
O  O95  1  0.05911274  0.61328082  0.33290824  1  0  -0.900266  0  1.86716  0  0  -0.840576  0  2.061079  0  0  -0.864404  0  2.02609  0  0  -0.62549  -0.823701  0  2.08527  0
O  O96  1  0.87026714  0.98298228  0.60458765  1  0  -0.820033  0  1.837411  0  0  -0.765119  0  2.024516  0  0  -0.784596  0  1.996375  0  0  -0.574554  -0.751424  0  2.044563  0
O  O97  1  0.37026555  0.51702711  0.89541248  1  0  -0.819856  0  1.837348  0  0  -0.764933  0  2.024475  0  0  -0.784423  0  1.996327  0  0  -0.574442  -0.75124  0  2.04452  0
O  O98  1  0.12972737  0.01702469  0.39540803  1  0  -0.820006  0  1.837249  0  0  -0.765007  0  2.024459  0  0  -0.78448  0  1.996316  0  0  -0.574448  -0.75131  0  2.044511  0
O  O99  1  0.62972223  0.48298279  0.10459259  1  0  -0.820089  0  1.837219  0  0  -0.765146  0  2.02436  0  0  -0.784637  0  1.996199  0  0  -0.57458  -0.75145  0  2.044416  0
