# generated using pymatgen
data_SnH16C8O5
_symmetry_space_group_name_H-M   'P 1'
_cell_length_a   6.34261713
_cell_length_b   8.91136868
_cell_length_c   11.36248436
_cell_angle_alpha   69.90720827
_cell_angle_beta   73.77497005
_cell_angle_gamma   69.15134053
_symmetry_Int_Tables_number   1
_chemical_formula_structural   SnH16C8O5
_chemical_formula_sum   'Sn2 H32 C16 O10'
_cell_volume   554.53641470
_cell_formula_units_Z   2
loop_
 _symmetry_equiv_pos_site_id
 _symmetry_equiv_pos_as_xyz
  1  'x, y, z'
loop_
 _atom_site_type_symbol
 _atom_site_label
 _atom_site_symmetry_multiplicity
 _atom_site_fract_x
 _atom_site_fract_y
 _atom_site_fract_z
 _atom_site_occupancy
 _atom_site_hle17_bader_spin_density
 _atom_site_hle17_ddec_charge
 _atom_site_hle17_ddec_spin_density
 _atom_site_hle17_ddec_sum_bond_order
 _atom_site_hle17_magmom
 _atom_site_hse06_10hf_bader_spin_density
 _atom_site_hse06_10hf_ddec_charge
 _atom_site_hse06_10hf_ddec_spin_density
 _atom_site_hse06_10hf_ddec_sum_bond_order
 _atom_site_hse06_10hf_magmom
 _atom_site_hse06_bader_spin_density
 _atom_site_hse06_ddec_charge
 _atom_site_hse06_ddec_spin_density
 _atom_site_hse06_ddec_sum_bond_order
 _atom_site_hse06_magmom
 _atom_site_pbe_bader_spin_density
 _atom_site_pbe_cm5_charge
 _atom_site_pbe_ddec_charge
 _atom_site_pbe_ddec_spin_density
 _atom_site_pbe_ddec_sum_bond_order
 _atom_site_pbe_magmom
Sn  Sn0  1  0.35216810  0.24985297  0.75008269  1  0  1.466974  0  2.757264  0  0  1.30427  0  3.251317  0  0  1.355062  0  3.225943  0  0  0.607015  1.268829  0  3.268331  0
Sn  Sn1  1  0.64783310  0.75014712  0.24991731  1  0  1.467052  0  2.757398  0  0  1.304388  0  3.251457  0  0  1.355179  0  3.226075  0  0  0.606982  1.26892  0  3.268463  0
H  H2  1  0.04662625  0.50727891  0.82588527  1  0  0.116316  0  0.974323  0  0  0.131735  0  1.033663  0  0  0.134397  0  1.034738  0  0  0.092351  0.129928  0  1.032958  0
H  H3  1  0.38007185  0.99249760  0.67412744  1  0  0.117546  0  0.975608  0  0  0.132683  0  1.035083  0  0  0.135336  0  1.036145  0  0  0.092715  0.130829  0  1.034366  0
H  H4  1  0.95337300  0.49272490  0.17411279  1  0  0.116317  0  0.974326  0  0  0.131733  0  1.033669  0  0  0.134393  0  1.034746  0  0  0.092345  0.129922  0  1.032962  0
H  H5  1  0.61993073  0.00750123  0.32587196  1  0  0.117523  0  0.97564  0  0  0.132659  0  1.03512  0  0  0.13531  0  1.036183  0  0  0.092692  0.130802  0  1.034399  0
H  H6  1  0.21010919  0.37755251  0.94665209  1  0  0.113999  0  0.975991  0  0  0.129094  0  1.036427  0  0  0.131143  0  1.038656  0  0  0.091658  0.127584  0  1.035357  0
H  H7  1  0.53467830  0.12231753  0.55345524  1  0  0.114958  0  0.974828  0  0  0.130203  0  1.035038  0  0  0.13219  0  1.037325  0  0  0.091337  0.128303  0  1.034024  0
H  H8  1  0.78988560  0.62244757  0.05334774  1  0  0.113964  0  0.976014  0  0  0.129057  0  1.036457  0  0  0.131106  0  1.038686  0  0  0.091639  0.127548  0  1.035393  0
H  H9  1  0.46532614  0.87768131  0.44654556  1  0  0.114949  0  0.97483  0  0  0.130188  0  1.035051  0  0  0.132173  0  1.037342  0  0  0.09131  0.128284  0  1.034044  0
H  H10  1  0.36071604  0.64026617  0.70839110  1  0  0.04138  0  0.944743  0  0  0.061928  0  1.006719  0  0  0.061696  0  1.007598  0  0  0.081876  0.062007  0  1.006501  0
H  H11  1  0.70969963  0.85955852  0.79159900  1  0  0.041595  0  0.945325  0  0  0.061883  0  1.007649  0  0  0.061671  0  1.008473  0  0  0.08152  0.061803  0  1.007516  0
H  H12  1  0.63928743  0.35973391  0.29160829  1  0  0.041358  0  0.944749  0  0  0.061911  0  1.006728  0  0  0.061679  0  1.007606  0  0  0.081873  0.061988  0  1.006511  0
H  H13  1  0.29030067  0.14044159  0.20840188  1  0  0.041582  0  0.945369  0  0  0.061857  0  1.007705  0  0  0.061645  0  1.008529  0  0  0.0815  0.06177  0  1.007575  0
H  H14  1  0.54112769  0.50092024  0.81653309  1  0  0.056086  0  0.940547  0  0  0.075755  0  1.001502  0  0  0.076402  0  1.001728  0  0  0.087847  0.075239  0  1.001325  0
H  H15  1  0.85885419  0.99898578  0.68341116  1  0  0.05759  0  0.940998  0  0  0.076975  0  1.001828  0  0  0.077617  0  1.002065  0  0  0.088459  0.076487  0  1.001765  0
H  H16  1  0.45887222  0.49907609  0.18346720  1  0  0.056114  0  0.940499  0  0  0.075767  0  1.001486  0  0  0.076414  0  1.001712  0  0  0.087833  0.075247  0  1.001309  0
H  H17  1  0.14114700  0.00101430  0.31658884  1  0  0.057581  0  0.940993  0  0  0.076961  0  1.001827  0  0  0.077605  0  1.002062  0  0  0.088441  0.076468  0  1.001763  0
H  H18  1  0.08639347  0.76242283  0.88413820  1  0  0.095125  0  0.953296  0  0  0.117301  0  1.014263  0  0  0.118441  0  1.014583  0  0  0.083455  0.116414  0  1.014275  0
H  H19  1  0.73325171  0.73745489  0.61587932  1  0  0.096515  0  0.952746  0  0  0.11886  0  1.013477  0  0  0.11995  0  1.013889  0  0  0.084107  0.117691  0  1.013749  0
H  H20  1  0.91361145  0.23757603  0.11586374  1  0  0.095188  0  0.953237  0  0  0.117343  0  1.014232  0  0  0.118484  0  1.01455  0  0  0.083492  0.116453  0  1.014241  0
H  H21  1  0.26674493  0.26254648  0.38412278  1  0  0.096495  0  0.952756  0  0  0.118836  0  1.013495  0  0  0.119925  0  1.013911  0  0  0.084105  0.117678  0  1.013757  0
H  H22  1  0.36521959  0.77637886  0.86657227  1  0  0.091543  0  0.972398  0  0  0.112788  0  1.035106  0  0  0.113252  0  1.036506  0  0  0.081533  0.111751  0  1.035914  0
H  H23  1  0.00849952  0.72357916  0.63328009  1  0  0.092726  0  0.974094  0  0  0.113438  0  1.037611  0  0  0.114015  0  1.038831  0  0  0.082475  0.112821  0  1.036913  0
H  H24  1  0.63478486  0.22361873  0.13342766  1  0  0.091556  0  0.972403  0  0  0.112806  0  1.035106  0  0  0.113274  0  1.0365  0  0  0.081533  0.111767  0  1.035912  0
H  H25  1  0.99149948  0.27641846  0.36672194  1  0  0.092722  0  0.974133  0  0  0.113426  0  1.037651  0  0  0.114003  0  1.038873  0  0  0.082469  0.112807  0  1.036952  0
H  H26  1  0.26632080  0.62060068  0.99366956  1  0  0.094305  0  0.951589  0  0  0.117975  0  1.009614  0  0  0.119093  0  1.00991  0  0  0.084768  0.117383  0  1.009243  0
H  H27  1  0.88081183  0.87937156  0.50626693  1  0  0.093702  0  0.951944  0  0  0.117768  0  1.00962  0  0  0.118862  0  1.009953  0  0  0.084437  0.11679  0  1.009594  0
H  H28  1  0.73368502  0.37939817  0.00633150  1  0  0.094187  0  0.951747  0  0  0.1179  0  1.009728  0  0  0.119017  0  1.010025  0  0  0.08471  0.117309  0  1.009367  0
H  H29  1  0.11918945  0.12062604  0.49373449  1  0  0.093644  0  0.951977  0  0  0.117694  0  1.009671  0  0  0.118803  0  1.009989  0  0  0.084407  0.11672  0  1.009654  0
H  H30  1  0.90831629  0.31201306  0.68064108  1  0  0.444555  0  0.846212  0  0  0.410694  0  0.913076  0  0  0.423039  0  0.894852  0  0  0.309005  0.401795  0  0.926199  0
H  H31  1  0.90068786  0.18812380  0.81946788  1  0  0.446044  0  0.843944  0  0  0.412009  0  0.911164  0  0  0.42434  0  0.892945  0  0  0.309324  0.403193  0  0.924198  0
H  H32  1  0.09167803  0.68798701  0.31935762  1  0  0.444565  0  0.846197  0  0  0.410703  0  0.913065  0  0  0.423056  0  0.894833  0  0  0.308973  0.401798  0  0.926196  0
H  H33  1  0.09931017  0.81187505  0.18053275  1  0  0.446028  0  0.843992  0  0  0.412  0  0.911201  0  0  0.42433  0  0.892984  0  0  0.309312  0.403179  0  0.92424  0
C  C34  1  0.22227035  0.44473413  0.84497173  1  0  -0.482654  0  3.588871  0  0  -0.504438  0  3.860985  0  0  -0.519079  0  3.880132  0  0  -0.232194  -0.494292  0  3.847909  0
C  C35  1  0.51221414  0.05506149  0.65511520  1  0  -0.485059  0  3.592561  0  0  -0.506792  0  3.864752  0  0  -0.52139  0  3.88396  0  0  -0.231862  -0.495585  0  3.850068  0
C  C36  1  0.77772720  0.55526597  0.15502862  1  0  -0.482702  0  3.588928  0  0  -0.504467  0  3.861022  0  0  -0.51911  0  3.880167  0  0  -0.232218  -0.49432  0  3.847945  0
C  C37  1  0.48778706  0.94493860  0.34488481  1  0  -0.485138  0  3.592613  0  0  -0.50687  0  3.864791  0  0  -0.521476  0  3.884013  0  0  -0.231895  -0.495662  0  3.850108  0
C  C38  1  0.36043885  0.56807795  0.80898329  1  0  -0.008583  0  3.77004  0  0  -0.045867  0  4.035602  0  0  -0.04442  0  4.053897  0  0  -0.171162  -0.046478  0  4.022742  0
C  C39  1  0.73777372  0.93179982  0.69099394  1  0  -0.010212  0  3.774939  0  0  -0.047162  0  4.040653  0  0  -0.045714  0  4.058889  0  0  -0.171722  -0.04801  0  4.027535  0
C  C40  1  0.63956284  0.43192089  0.19101698  1  0  -0.008569  0  3.770028  0  0  -0.045859  0  4.035593  0  0  -0.044416  0  4.053893  0  0  -0.171153  -0.046475  0  4.022734  0
C  C41  1  0.26222609  0.06820153  0.30900667  1  0  -0.010196  0  3.774962  0  0  -0.047122  0  4.040619  0  0  -0.045676  0  4.058862  0  0  -0.171696  -0.047971  0  4.027499  0
C  C42  1  0.26446647  0.68835110  0.89269044  1  0  -0.27526  0  3.670316  0  0  -0.344991  0  3.91049  0  0  -0.347356  0  3.92175  0  0  -0.247447  -0.343335  0  3.903919  0
C  C43  1  0.84577964  0.81158260  0.60724118  1  0  -0.277193  0  3.673012  0  0  -0.347  0  3.912961  0  0  -0.349434  0  3.924166  0  0  -0.248604  -0.344919  0  3.905387  0
C  C44  1  0.73553846  0.31164651  0.10731063  1  0  -0.275288  0  3.67038  0  0  -0.345025  0  3.910552  0  0  -0.347392  0  3.921811  0  0  -0.247479  -0.343368  0  3.903986  0
C  C45  1  0.15421474  0.18841751  0.39276067  1  0  -0.277127  0  3.673048  0  0  -0.346906  0  3.912992  0  0  -0.349355  0  3.924194  0  0  -0.248595  -0.344838  0  3.905418  0
C  C46  1  0.62124227  0.47906039  0.51490057  1  0  0.529656  0  3.919149  0  0  0.474591  0  4.227309  0  0  0.50493  0  4.219069  0  0  0.227957  0.453981  0  4.232395  0
C  C47  1  0.61519377  0.02093570  0.98503856  1  0  0.528327  0  3.921292  0  0  0.472517  0  4.230521  0  0  0.502951  0  4.222175  0  0  0.226726  0.452029  0  4.236506  0
C  C48  1  0.37875776  0.52092493  0.48511597  1  0  0.52984  0  3.918752  0  0  0.474826  0  4.226895  0  0  0.505149  0  4.218654  0  0  0.228051  0.454209  0  4.23198  0
C  C49  1  0.38478671  0.97907793  0.01494615  1  0  0.528227  0  3.921378  0  0  0.472515  0  4.230493  0  0  0.502946  0  4.222144  0  0  0.226731  0.45204  0  4.236474  0
O  O50  1  0.66668614  0.36660642  0.61671147  1  0  -0.587544  0  2.111316  0  0  -0.51817  0  2.343696  0  0  -0.544729  0  2.337529  0  0  -0.259932  -0.499555  0  2.347336  0
O  O51  1  0.64982329  0.13361329  0.88331213  1  0  -0.588227  0  2.114  0  0  -0.5183  0  2.346322  0  0  -0.544934  0  2.340179  0  0  -0.259718  -0.499725  0  2.35063  0
O  O52  1  0.33330747  0.63341219  0.38327189  1  0  -0.587629  0  2.110312  0  0  -0.518403  0  2.342797  0  0  -0.544926  0  2.336595  0  0  -0.259983  -0.499761  0  2.346413  0
O  O53  1  0.35015061  0.86637453  0.11670432  1  0  -0.588287  0  2.113122  0  0  -0.518391  0  2.345392  0  0  -0.545039  0  2.339257  0  0  -0.259804  -0.499806  0  2.349683  0
O  O54  1  0.75632723  0.55825571  0.43704432  1  0  -0.549123  0  2.072876  0  0  -0.488528  0  2.314947  0  0  -0.512455  0  2.308373  0  0  -0.26205  -0.472128  0  2.319333  0
O  O55  1  0.75183330  0.94154603  0.06274070  1  0  -0.54705  0  2.07249  0  0  -0.486029  0  2.314454  0  0  -0.509958  0  2.307855  0  0  -0.26053  -0.469668  0  2.320114  0
O  O56  1  0.24368414  0.44175174  0.56294610  1  0  -0.549099  0  2.073398  0  0  -0.488455  0  2.315403  0  0  -0.512396  0  2.308893  0  0  -0.262023  -0.472076  0  2.319821  0
O  O57  1  0.24816877  0.05844420  0.93726925  1  0  -0.546962  0  2.0735  0  0  -0.485953  0  2.315419  0  0  -0.509884  0  2.308848  0  0  -0.260506  -0.46959  0  2.321021  0
O  O58  1  0.99953915  0.25003790  0.75007324  1  0  -0.827944  0  1.946379  0  0  -0.765157  0  2.157096  0  0  -0.784861  0  2.121842  0  0  -0.543181  -0.751098  0  2.181809  0
O  O59  1  0.00046157  0.74996217  0.24992563  1  0  -0.827985  0  1.946402  0  0  -0.765157  0  2.157081  0  0  -0.784878  0  2.121803  0  0  -0.543207  -0.751104  0  2.18181  0
