# generated using pymatgen
data_Ni3H24C42N6O13
_symmetry_space_group_name_H-M   'P 1'
_cell_length_a   15.42179457
_cell_length_b   16.43864071
_cell_length_c   16.42864194
_cell_angle_alpha   120.02009116
_cell_angle_beta   89.97086207
_cell_angle_gamma   90.00002781
_symmetry_Int_Tables_number   1
_chemical_formula_structural   Ni3H24C42N6O13
_chemical_formula_sum   'Ni6 H48 C84 N12 O26'
_cell_volume   3606.16072279
_cell_formula_units_Z   2
loop_
 _symmetry_equiv_pos_site_id
 _symmetry_equiv_pos_as_xyz
  1  'x, y, z'
loop_
 _atom_site_type_symbol
 _atom_site_label
 _atom_site_symmetry_multiplicity
 _atom_site_fract_x
 _atom_site_fract_y
 _atom_site_fract_z
 _atom_site_occupancy
 _atom_site_pbe_bader_charge
 _atom_site_pbe_bader_spin_density
 _atom_site_pbe_cm5_charge
 _atom_site_pbe_ddec_charge
 _atom_site_pbe_ddec_spin_density
 _atom_site_pbe_ddec_sum_bond_order
 _atom_site_pbe_magmom
Ni  Ni0  1  0.24990929  0.26817814  0.53634608  1  1.284828  0.866474  0.713761  0.990885  1.152052  2.703119  0.853
Ni  Ni1  1  0.24947546  0.26694235  0.73072978  1  1.298513  -1.192191  0.707799  0.993134  -1.379449  2.668322  -1.175
Ni  Ni2  1  0.24947616  0.46379172  0.73072501  1  1.29777  -1.192294  0.707875  0.993182  -1.379421  2.66853  -1.175
Ni  Ni3  1  0.75000997  0.73216307  0.46431844  1  1.287832  -1.046903  0.711715  0.996827  -1.212859  2.681829  -1.033
Ni  Ni4  1  0.75000673  0.73203919  0.26769549  1  1.289665  -1.041651  0.712612  0.997519  -1.20704  2.686604  -1.028
Ni  Ni5  1  0.75000603  0.53565892  0.26769591  1  1.289115  -1.042055  0.712613  0.997495  -1.207404  2.686459  -1.028
H  H6  1  0.44529496  0.33669419  0.40123706  1  0.113536  2.8e-05  0.102569  0.1067  8.9e-05  1.007514  0.0
H  H7  1  0.44464080  0.06518070  0.66273239  1  0.118653  -0.000411  0.103057  0.107454  -0.000225  1.006866  0.0
H  H8  1  0.44477947  0.59801831  0.93508773  1  0.077645  -0.000516  0.102322  0.106317  -0.000252  1.008338  0.0
H  H9  1  0.94502614  0.66300283  0.59786702  1  0.073015  -0.000115  0.102999  0.107148  -6.6e-05  1.00725  0.0
H  H10  1  0.94490406  0.93473172  0.33661683  1  0.117138  -0.000442  0.102724  0.10682  -0.000218  1.007285  0.0
H  H11  1  0.94513344  0.40208239  0.06519959  1  0.061621  -0.0005  0.102467  0.106549  -0.000241  1.008214  0.0
H  H12  1  0.55519438  0.66321950  0.06540085  1  0.116763  -0.000491  0.102003  0.107453  -0.000242  1.006872  0.0
H  H13  1  0.55503784  0.93486213  0.59793928  1  0.062296  -6e-05  0.102799  0.107188  -3.9e-05  1.00698  0.0
H  H14  1  0.55564252  0.40221871  0.33640105  1  0.107226  -0.000376  0.102688  0.107178  -0.000189  1.007357  0.0
H  H15  1  0.05523087  0.33669985  0.93440475  1  0.116783  -0.000461  0.10228  0.106447  -0.000229  1.00765  0.0
H  H16  1  0.05497699  0.06526192  0.40174439  1  0.076116  1e-05  0.102401  0.106634  6.4e-05  1.007232  0.0
H  H17  1  0.05517579  0.59768990  0.66302411  1  0.075638  -0.000442  0.103342  0.108182  -0.000241  1.006314  0.0
H  H18  1  0.55503322  0.66308524  0.59794693  1  0.070838  -6e-05  0.102801  0.107161  -3.9e-05  1.006998  0.0
H  H19  1  0.55564525  0.93418896  0.33639656  1  0.107131  -0.000376  0.102633  0.107082  -0.000188  1.007323  0.0
H  H20  1  0.55519431  0.40217063  0.06539423  1  0.104705  -0.000494  0.102043  0.107464  -0.000243  1.006896  0.0
H  H21  1  0.05497317  0.33648035  0.40174164  1  0.109734  7e-06  0.10242  0.106616  6.4e-05  1.0072  0.0
H  H22  1  0.05517370  0.06533296  0.66302474  1  0.121078  -0.000431  0.103296  0.10814  -0.000239  1.006193  0.0
H  H23  1  0.05523289  0.59770018  0.93440637  1  0.103469  -0.000466  0.1023  0.106476  -0.000231  1.007671  0.0
H  H24  1  0.44477875  0.33706379  0.93507923  1  0.076609  -0.000515  0.102285  0.106263  -0.000251  1.008366  0.0
H  H25  1  0.44529618  0.06454749  0.40123735  1  0.069603  3.5e-05  0.102631  0.106772  8.9e-05  1.007556  0.0
H  H26  1  0.44463899  0.59755300  0.66273588  1  0.076033  -0.000422  0.103081  0.107509  -0.000226  1.007029  0.0
H  H27  1  0.94513545  0.66311120  0.06519948  1  0.076912  -0.000497  0.102474  0.1066  -0.000241  1.008303  0.0
H  H28  1  0.94502167  0.93486573  0.59786461  1  0.064667  -0.000116  0.102987  0.107124  -6.5e-05  1.007256  0.0
H  H29  1  0.94490262  0.40188911  0.33661647  1  0.112311  -0.00044  0.10271  0.106825  -0.000219  1.007248  0.0
H  H30  1  0.24916123  0.06841148  0.38785155  1  0.1162  -0.000132  0.129854  0.106008  -9.4e-05  0.986931  0.0
H  H31  1  0.24987748  0.31877939  0.93206458  1  0.162965  -0.001206  0.128713  0.103742  -0.000452  0.986715  -0.001
H  H32  1  0.25017719  0.61405394  0.68144729  1  0.10617  -0.001272  0.128135  0.103494  -0.000482  0.988383  -0.001
H  H33  1  0.74986316  0.93194267  0.61293076  1  0.120727  -0.000998  0.129131  0.104684  -0.000362  0.986888  -0.001
H  H34  1  0.74982282  0.68101069  0.06783992  1  0.159011  -0.000974  0.129298  0.105012  -0.000354  0.986277  -0.001
H  H35  1  0.74981602  0.38713971  0.31910799  1  0.104331  -0.00098  0.129178  0.104849  -0.000355  0.98685  -0.001
H  H36  1  0.74981358  0.93196839  0.31910744  1  0.157589  -0.000974  0.129183  0.104846  -0.000354  0.986856  -0.001
H  H37  1  0.74985985  0.68098886  0.61293090  1  0.104685  -0.000998  0.12915  0.104716  -0.000362  0.98689  -0.001
H  H38  1  0.74982209  0.38682798  0.06784156  1  0.150176  -0.000977  0.129354  0.10511  -0.000356  0.986183  -0.001
H  H39  1  0.25017964  0.06739037  0.68144558  1  0.166625  -0.001256  0.128149  0.103525  -0.00048  0.98834  -0.001
H  H40  1  0.24916260  0.31943874  0.38785462  1  0.155682  -0.000123  0.129856  0.10601  -9.4e-05  0.986982  0.0
H  H41  1  0.24987691  0.61328439  0.93206914  1  0.105111  -0.001217  0.128777  0.104127  -0.000453  0.986772  -0.001
H  H42  1  0.24985377  0.97425093  0.21080020  1  0.079092  -7.9e-05  0.114466  0.122145  -3e-05  1.001441  0.0
H  H43  1  0.24982802  0.23642647  0.02684230  1  0.119614  -0.000672  0.113651  0.121238  -0.000324  1.002846  0.0
H  H44  1  0.25014059  0.79101084  0.76458612  1  0.124501  -0.000665  0.113626  0.120837  -0.000326  1.003023  0.0
H  H45  1  0.74993836  0.02616347  0.78998113  1  0.075401  -0.000599  0.11398  0.121511  -0.000289  1.001942  0.0
H  H46  1  0.74994212  0.76383602  0.97373787  1  0.131402  -0.000569  0.114076  0.121577  -0.000284  1.002138  0.0
H  H47  1  0.74992189  0.21021294  0.23641037  1  0.07689  -0.000591  0.113862  0.121557  -0.000285  1.002098  0.0
H  H48  1  0.74991989  0.02619480  0.23640733  1  0.132805  -0.00057  0.11383  0.121521  -0.000285  1.002065  0.0
H  H49  1  0.74993727  0.76381767  0.78998111  1  0.074989  -0.000597  0.11398  0.121516  -0.000288  1.0019  0.0
H  H50  1  0.74994133  0.20989967  0.97373706  1  0.075653  -0.00059  0.114085  0.12159  -0.000285  1.00213  0.0
H  H51  1  0.25014258  0.97356832  0.76458254  1  0.073104  -0.000677  0.113632  0.120818  -0.000325  1.003053  0.0
H  H52  1  0.24985552  0.23655278  0.21080403  1  0.086965  -7.9e-05  0.114451  0.122168  -2.9e-05  1.001458  0.0
H  H53  1  0.24983077  0.79041471  0.02684231  1  0.125202  -0.000677  0.11366  0.121307  -0.000325  1.002814  0.0
C  C54  1  0.36997342  0.42592082  0.57294370  1  1.572772  0.000471  0.223106  0.586151  0.00074  4.154665  0.0
C  C55  1  0.36997724  0.14702338  0.57293869  1  1.575007  0.000445  0.223146  0.586133  0.000741  4.154574  0.0
C  C56  1  0.37004058  0.42624219  0.85247316  1  1.582031  0.001885  0.21997  0.585372  -0.00037  4.161539  0.003
C  C57  1  0.87028540  0.57375738  0.42604335  1  1.582663  0.001394  0.223019  0.5862  -0.000554  4.158039  0.002
C  C58  1  0.87028288  0.85228936  0.42604395  1  1.572694  0.001303  0.222963  0.586179  -0.000555  4.157904  0.002
C  C59  1  0.87029899  0.57379719  0.14760181  1  1.583028  0.001384  0.223374  0.587289  -0.000539  4.156864  0.002
C  C60  1  0.62951230  0.57412441  0.14826600  1  1.580297  0.00128  0.221885  0.586449  -0.000773  4.163497  0.002
C  C61  1  0.62959239  0.85159495  0.42585262  1  1.573241  0.00123  0.223018  0.586431  -0.000758  4.163189  0.002
C  C62  1  0.62958842  0.57426038  0.42585179  1  1.58293  0.001295  0.223058  0.586357  -0.000757  4.16319  0.002
C  C63  1  0.12895494  0.42543733  0.85086505  1  1.564139  0.001553  0.2212  0.586585  -0.000607  4.168899  0.002
C  C64  1  0.12928829  0.14813659  0.57420577  1  1.584213  0.000575  0.222435  0.584902  0.000459  4.168201  0.0
C  C65  1  0.12928706  0.42607072  0.57421050  1  1.581596  0.000611  0.222413  0.584806  0.000458  4.168356  0.0
C  C66  1  0.43834488  0.46365253  0.53539603  1  -0.123091  0.003832  -0.014624  -0.023583  0.002665  3.959233  0.003
C  C67  1  0.43834867  0.07174463  0.53539465  1  -0.020563  0.003832  -0.014609  -0.023485  0.00267  3.95921  0.003
C  C68  1  0.43818485  0.46407137  0.92814060  1  -0.027515  -0.016122  -0.014814  -0.023141  -0.00965  3.956347  -0.013
C  C69  1  0.93839477  0.53591395  0.46377565  1  -0.118953  -0.013556  -0.014346  -0.022382  -0.008076  3.954364  -0.011
C  C70  1  0.93839163  0.92786354  0.46377305  1  -0.015496  -0.013453  -0.014337  -0.022306  -0.008072  3.954275  -0.011
C  C71  1  0.93852662  0.53604760  0.07210169  1  -0.027202  -0.012107  -0.01557  -0.024922  -0.007274  3.958934  -0.01
C  C72  1  0.56167476  0.53625044  0.07250804  1  -0.104409  -0.014485  -0.01554  -0.024224  -0.00868  3.957534  -0.012
C  C73  1  0.56179281  0.92743615  0.46363600  1  -0.023839  -0.015853  -0.015197  -0.023635  -0.009506  3.956139  -0.012
C  C74  1  0.56178881  0.53620903  0.46364248  1  -0.077562  -0.015911  -0.015023  -0.023354  -0.009509  3.95587  -0.012
C  C75  1  0.06161671  0.46363644  0.92727291  1  -0.098744  -0.016802  -0.015044  -0.023102  -0.010056  3.954835  -0.013
C  C76  1  0.06153373  0.07237582  0.53593367  1  -0.10172  -0.001413  -0.014459  -0.022506  -0.000729  3.957144  -0.001
C  C77  1  0.06153319  0.46355532  0.53593224  1  -0.077118  -0.001385  -0.014503  -0.022463  -0.000735  3.95714  -0.001
C  C78  1  0.46971816  0.40813151  0.44353406  1  -0.051006  -0.001595  -0.08847  -0.102202  -0.00087  3.991069  -0.001
C  C79  1  0.46936004  0.03576470  0.59131544  1  -0.111302  6.7e-05  -0.087325  -0.100857  0.000136  3.988691  0.0
C  C80  1  0.46936446  0.55591909  0.96438039  1  -0.07496  -0.000668  -0.08846  -0.101649  -0.000323  3.990941  -0.001
C  C81  1  0.96951615  0.59154843  0.55569221  1  -0.014393  0.000538  -0.087773  -0.101656  0.000368  3.98931  0.0
C  C82  1  0.96944367  0.96408900  0.40806715  1  -0.110803  -0.000501  -0.087524  -0.101067  -0.000287  3.988348  0.0
C  C83  1  0.96965365  0.44415767  0.03583246  1  -0.061452  -0.000826  -0.088725  -0.102373  -0.000439  3.991537  -0.001
C  C84  1  0.53060415  0.59183942  0.03619020  1  -0.034114  -0.00074  -0.088961  -0.103777  -0.000397  3.990175  -0.001
C  C85  1  0.53058485  0.96395061  0.55560036  1  0.017144  0.000835  -0.088279  -0.10198  0.000584  3.988688  0.001
C  C86  1  0.53092976  0.44424026  0.40782053  1  -0.039799  -0.000196  -0.087532  -0.101072  -0.000117  3.988386  0.0
C  C87  1  0.03069967  0.40813660  0.96377038  1  -0.033675  -0.000436  -0.08832  -0.101085  -0.000203  3.988941  0.0
C  C88  1  0.03051806  0.03603185  0.44396895  1  0.063203  -0.001386  -0.087977  -0.101847  -0.000773  3.98998  -0.001
C  C89  1  0.03058948  0.55556330  0.59160489  1  0.055443  0.000187  -0.087676  -0.100938  0.000202  3.987214  0.0
C  C90  1  0.53058021  0.59165573  0.55560436  1  0.048034  0.000881  -0.088349  -0.102017  0.000583  3.98882  0.001
C  C91  1  0.53093315  0.96358285  0.40781737  1  -0.032761  -0.000194  -0.087375  -0.10075  -0.000116  3.98847  0.0
C  C92  1  0.53060216  0.44434325  0.03618765  1  0.038387  -0.000692  -0.08889  -0.103696  -0.000397  3.990189  -0.001
C  C93  1  0.03051687  0.40793842  0.44397002  1  -0.099021  -0.001444  -0.087932  -0.101723  -0.000774  3.989918  -0.001
C  C94  1  0.03058740  0.03604176  0.59160329  1  -0.123268  0.000207  -0.087667  -0.100903  0.000204  3.987162  0.0
C  C95  1  0.03070036  0.55562989  0.96377216  1  0.041613  -0.000385  -0.088351  -0.10112  -0.000205  3.989081  0.0
C  C96  1  0.46936377  0.40845710  0.96437408  1  -0.06959  -0.000664  -0.08835  -0.101554  -0.000322  3.990903  -0.001
C  C97  1  0.46972001  0.03540368  0.44352936  1  -0.066489  -0.001622  -0.088522  -0.102348  -0.000869  3.991118  -0.001
C  C98  1  0.46935758  0.55555537  0.59131924  1  0.004434  2e-05  -0.087291  -0.100857  0.000134  3.988784  0.0
C  C99  1  0.96965369  0.59167113  0.03583475  1  -0.069765  -0.000827  -0.088796  -0.102502  -0.00044  3.991662  -0.001
C  C100  1  0.96951171  0.96414587  0.55569224  1  0.030945  0.000495  -0.087718  -0.101634  0.000369  3.98912  0.0
C  C101  1  0.96944548  0.44397932  0.40806605  1  0.010255  -0.000436  -0.087494  -0.101095  -0.000288  3.988236  0.0
C  C102  1  0.24929557  0.10213818  0.34535217  1  0.554663  -0.002697  0.062311  0.100506  -0.001544  3.912498  -0.002
C  C103  1  0.24986274  0.24256619  0.89861374  1  0.456168  0.003087  0.062797  0.10586  0.001731  3.914112  0.002
C  C104  1  0.25006204  0.65646310  0.75775511  1  0.632015  0.003177  0.061459  0.102356  0.001837  3.919555  0.002
C  C105  1  0.74986563  0.89824411  0.65546038  1  0.657522  0.003338  0.061762  0.101539  0.001913  3.912274  0.002
C  C106  1  0.74983033  0.75724511  0.10164226  1  0.450812  0.003228  0.061984  0.101847  0.001887  3.910964  0.002
C  C107  1  0.74982612  0.34457597  0.24283317  1  0.51304  0.003224  0.061603  0.101637  0.001882  3.912637  0.002
C  C108  1  0.74982562  0.89825552  0.24283285  1  0.448886  0.003221  0.061606  0.101645  0.001881  3.912556  0.002
C  C109  1  0.74986559  0.75721917  0.65546037  1  0.515051  0.003276  0.061757  0.101497  0.001912  3.912475  0.002
C  C110  1  0.74983087  0.34439387  0.10164333  1  0.63355  0.003288  0.061994  0.10186  0.001887  3.911055  0.002
C  C111  1  0.25006383  0.10128828  0.75775422  1  0.462185  0.003166  0.06132  0.102116  0.001835  3.919532  0.002
C  C112  1  0.24929626  0.24321387  0.34535375  1  0.435699  -0.002755  0.062299  0.100472  -0.001545  3.912623  -0.002
C  C113  1  0.24986091  0.65604582  0.89861449  1  0.695376  0.003198  0.062765  0.105239  0.001731  3.915073  0.002
C  C114  1  0.24972075  0.05068375  0.24767534  1  -0.051513  0.000573  -0.073094  -0.150415  0.000409  3.935776  0.0
C  C115  1  0.24984645  0.19668923  0.95036194  1  -0.051186  -0.003768  -0.0745  -0.153294  -0.002151  3.936814  -0.003
C  C116  1  0.25004210  0.75405643  0.80406449  1  -0.22575  -0.00343  -0.074597  -0.152221  -0.001953  3.938134  -0.003
C  C117  1  0.74991510  0.94973458  0.75314719  1  -0.053434  -0.003384  -0.07386  -0.151545  -0.001913  3.935727  -0.002
C  C118  1  0.74990943  0.80345647  0.05021945  1  -0.040402  -0.003317  -0.073596  -0.150988  -0.001888  3.935289  -0.002
C  C119  1  0.74989918  0.24695030  0.19671207  1  -0.085374  -0.003324  -0.074171  -0.152442  -0.001899  3.936164  -0.002
C  C120  1  0.74989742  0.94975949  0.19671113  1  -0.042423  -0.003331  -0.074149  -0.152407  -0.001897  3.936081  -0.002
C  C121  1  0.74991441  0.80341223  0.75314610  1  -0.085554  -0.003349  -0.073879  -0.15157  -0.001913  3.935691  -0.002
C  C122  1  0.74990993  0.24676139  0.05022046  1  -0.058718  -0.003344  -0.073612  -0.151024  -0.001891  3.935417  -0.002
C  C123  1  0.25004256  0.05000119  0.80406198  1  0.010244  -0.003406  -0.074523  -0.152127  -0.001949  3.937933  -0.003
C  C124  1  0.24972209  0.19699213  0.24767580  1  0.113253  0.000618  -0.07309  -0.150455  0.000409  3.935856  0.0
C  C125  1  0.24984595  0.75366776  0.95036340  1  -0.137381  -0.003829  -0.074516  -0.153347  -0.002155  3.937039  -0.003
C  C126  1  0.24989299  0.09856779  0.19713462  1  -0.155365  -0.002963  0.009019  0.040285  -0.001668  3.975641  -0.002
C  C127  1  0.24996081  0.09827394  0.90257322  1  -0.071098  0.004212  0.007631  0.038594  0.002768  3.976924  0.003
C  C128  1  0.24995971  0.80429643  0.90257335  1  0.097922  0.00419  0.007691  0.038769  0.00277  3.976569  0.003
C  C129  1  0.74995619  0.90186031  0.80371944  1  0.092523  0.004172  0.008285  0.039821  0.002738  3.974773  0.003
C  C130  1  0.74995064  0.90190741  0.09820263  1  -0.066691  0.004131  0.008142  0.039025  0.002698  3.974156  0.003
C  C131  1  0.74995174  0.19629363  0.09820379  1  0.037866  0.004137  0.008159  0.039066  0.0027  3.974124  0.003
C  C132  1  0.25005669  0.04651144  0.09302101  1  1.168201  -0.001068  0.262752  0.383109  -0.000569  4.008594  -0.001
C  C133  1  0.25000212  0.04646601  0.95470614  1  1.115941  0.000435  0.264205  0.386439  0.000273  4.00526  0.0
C  C134  1  0.25000171  0.90824006  0.95470715  1  1.009225  0.000467  0.264168  0.386346  0.000272  4.005339  0.0
C  C135  1  0.75000842  0.95390868  0.90781658  1  0.963502  -0.000193  0.263689  0.383434  -9.8e-05  4.008825  0.0
C  C136  1  0.75001304  0.95395805  0.04620427  1  1.113302  -0.000206  0.264103  0.385632  -9.6e-05  4.004761  0.0
C  C137  1  0.75001346  0.09224610  0.04620565  1  1.013778  -0.000214  0.264097  0.38569  -9.6e-05  4.00474  0.0
N  N138  1  0.24902628  0.19646816  0.39293856  1  -1.078678  -0.003871  -0.296404  -0.146484  -0.00105  3.505982  -0.001
N  N139  1  0.25000818  0.19557433  0.80426504  1  -1.058632  -0.044162  -0.29861  -0.160525  -0.026701  3.50562  -0.04
N  N140  1  0.25000505  0.60868769  0.80426830  1  -1.207148  -0.044206  -0.2987  -0.160675  -0.026706  3.506054  -0.04
N  N141  1  0.74986973  0.80390080  0.60780096  1  -1.183374  -0.036319  -0.298004  -0.152797  -0.021968  3.509055  -0.033
N  N142  1  0.74981781  0.80390433  0.19604255  1  -1.067509  -0.035675  -0.297263  -0.152807  -0.021593  3.507248  -0.033
N  N143  1  0.74981835  0.39213739  0.19604336  1  -1.181889  -0.035721  -0.297303  -0.152959  -0.021614  3.507361  -0.033
N  N144  1  0.25008767  0.09696688  0.04914045  1  -1.153255  0.001049  -0.300651  -0.400825  0.000688  3.196461  0.001
N  N145  1  0.24991778  0.95212938  0.90426205  1  -1.227715  0.00094  -0.301428  -0.40129  0.000579  3.199772  0.001
N  N146  1  0.25008660  0.95217404  0.04914090  1  -1.227474  0.001045  -0.300635  -0.400792  0.000688  3.196431  0.001
N  N147  1  0.75001374  0.90349263  0.95177098  1  -1.204835  0.001925  -0.301031  -0.40061  0.001234  3.198759  0.002
N  N148  1  0.75002994  0.04834256  0.09668574  1  -1.104037  0.001912  -0.301077  -0.401022  0.001219  3.196431  0.002
N  N149  1  0.75001351  0.04827952  0.95177161  1  -1.099742  0.001933  -0.301012  -0.400635  0.001235  3.198606  0.002
O  O150  1  0.26017570  0.33298695  0.66596647  1  -0.808048  -0.074021  -0.45946  -0.751659  -0.043142  2.255169  -0.065
O  O151  1  0.75626734  0.66661235  0.33322103  1  -0.815924  0.099208  -0.472208  -0.775299  0.054366  2.244453  0.083
O  O152  1  0.34382195  0.34273855  0.51731335  1  -1.109275  0.076434  -0.289278  -0.522373  0.050537  2.38185  0.07
O  O153  1  0.34332315  0.17429397  0.65577207  1  -1.114902  -0.058085  -0.289576  -0.522457  -0.034033  2.395239  -0.053
O  O154  1  0.34379256  0.48164694  0.82481325  1  -1.121627  -0.073455  -0.292604  -0.528576  -0.042194  2.379162  -0.068
O  O155  1  0.84403444  0.65683179  0.48157958  1  -1.120656  -0.062519  -0.290547  -0.525229  -0.035941  2.390035  -0.057
O  O156  1  0.84399572  0.82469919  0.34298272  1  -1.116837  -0.062701  -0.290222  -0.524765  -0.036054  2.39109  -0.058
O  O157  1  0.84394551  0.51833642  0.17516328  1  -1.11451  -0.06234  -0.29051  -0.524928  -0.035858  2.392183  -0.057
O  O158  1  0.65573500  0.65724205  0.17617068  1  -1.115773  -0.068559  -0.291473  -0.529717  -0.039273  2.401783  -0.063
O  O159  1  0.65570566  0.82379602  0.48117245  1  -1.117515  -0.068011  -0.291637  -0.529256  -0.038981  2.401008  -0.063
O  O160  1  0.65582112  0.51906978  0.34266944  1  -1.122428  -0.067558  -0.291529  -0.529005  -0.038699  2.403708  -0.062
O  O161  1  0.15494157  0.34216547  0.82257028  1  -1.118971  -0.071268  -0.295278  -0.535779  -0.040744  2.401923  -0.066
O  O162  1  0.15529716  0.17696013  0.51957891  1  -1.114308  0.059468  -0.289823  -0.52731  0.039738  2.401227  0.054
O  O163  1  0.15566379  0.48189714  0.65701797  1  -1.125412  -0.072208  -0.291316  -0.528911  -0.041931  2.415264  -0.066
O  O164  1  0.65570237  0.65738638  0.48117428  1  -1.122675  -0.068033  -0.291718  -0.529283  -0.038985  2.400612  -0.063
O  O165  1  0.65582509  0.82359813  0.34266241  1  -1.117039  -0.067545  -0.29158  -0.529138  -0.038702  2.403492  -0.062
O  O166  1  0.65573107  0.51891758  0.17616750  1  -1.118119  -0.068542  -0.291402  -0.529528  -0.039269  2.402363  -0.063
O  O167  1  0.15529397  0.34261410  0.51957721  1  -1.116955  0.059481  -0.289848  -0.527262  0.03974  2.400978  0.054
O  O168  1  0.15566500  0.17511717  0.65701974  1  -1.119931  -0.072171  -0.291337  -0.528934  -0.041927  2.414879  -0.066
O  O169  1  0.15494485  0.48039886  0.82256599  1  -1.116614  -0.07121  -0.295358  -0.535961  -0.040727  2.402342  -0.066
O  O170  1  0.34379382  0.34316819  0.82481592  1  -1.122924  -0.0735  -0.292702  -0.528685  -0.042204  2.378846  -0.068
O  O171  1  0.34382255  0.17457830  0.51731504  1  -1.109013  0.076394  -0.289294  -0.52238  0.050524  2.381857  0.07
O  O172  1  0.34331610  0.48147751  0.65577067  1  -1.121793  -0.058111  -0.289528  -0.522406  -0.034039  2.395627  -0.053
O  O173  1  0.84394425  0.65682713  0.17516203  1  -1.113811  -0.062353  -0.290555  -0.524959  -0.035859  2.391523  -0.057
O  O174  1  0.84402994  0.82475313  0.48157711  1  -1.116179  -0.062461  -0.290477  -0.525172  -0.035929  2.39014  -0.057
O  O175  1  0.84399693  0.51828930  0.34298792  1  -1.117897  -0.062716  -0.290162  -0.524664  -0.036051  2.391198  -0.058
