# generated using pymatgen
data_NiH16C24S2(NO)4
_symmetry_space_group_name_H-M   'P 1'
_cell_length_a   8.27002121
_cell_length_b   9.60007795
_cell_length_c   14.88550000
_cell_angle_alpha   92.06406847
_cell_angle_beta   95.79697967
_cell_angle_gamma   105.29225148
_symmetry_Int_Tables_number   1
_chemical_formula_structural   NiH16C24S2(NO)4
_chemical_formula_sum   'Ni2 H32 C48 S4 N8 O8'
_cell_volume   1131.70873572
_cell_formula_units_Z   2
loop_
 _symmetry_equiv_pos_site_id
 _symmetry_equiv_pos_as_xyz
  1  'x, y, z'
loop_
 _atom_site_type_symbol
 _atom_site_label
 _atom_site_symmetry_multiplicity
 _atom_site_fract_x
 _atom_site_fract_y
 _atom_site_fract_z
 _atom_site_occupancy
 _atom_site_hle17_ddec_charge
 _atom_site_hle17_ddec_spin_density
 _atom_site_hle17_ddec_sum_bond_order
 _atom_site_hle17_magmom
 _atom_site_hse06_10hf_ddec_charge
 _atom_site_hse06_10hf_ddec_spin_density
 _atom_site_hse06_10hf_ddec_sum_bond_order
 _atom_site_hse06_10hf_magmom
 _atom_site_hse06_ddec_charge
 _atom_site_hse06_ddec_spin_density
 _atom_site_hse06_ddec_sum_bond_order
 _atom_site_hse06_magmom
 _atom_site_pbe_bader_charge
 _atom_site_pbe_bader_spin_density
 _atom_site_pbe_cm5_charge
 _atom_site_pbe_ddec_charge
 _atom_site_pbe_ddec_spin_density
 _atom_site_pbe_ddec_sum_bond_order
 _atom_site_pbe_magmom
Ni  Ni0  1  0.00000090  0.99999990  0.00000045  1  0.597661  -1.706144  2.498419  -1.348  0.622521  -1.747021  2.894855  -1.475  0.717472  -1.858144  2.818197  -1.604  1.004467  -1.361438  0.599591  0.565416  -1.628786  2.942745  -1.35
Ni  Ni1  1  0.50000010  0.50000049  0.99999901  1  0.616804  1.710516  2.454174  1.354  0.642563  1.753849  2.849432  1.485  0.741039  1.86593  2.771067  1.616  1.019478  1.367694  0.608083  0.579423  1.633516  2.90112  1.356
H  H2  1  0.10089693  0.74060559  0.07854394  1  0.08061  -0.000664  0.957222  -0.001  0.086486  -0.000557  1.025589  -0.001  0.088786  -0.000414  1.023261  -0.001  0.107141  -0.001885  0.109458  0.084811  -0.000678  1.027396  -0.001
H  H3  1  0.89910657  0.25939431  0.92145827  1  0.08057  -0.000664  0.957256  -0.001  0.086438  -0.000557  1.025633  -0.001  0.088736  -0.000413  1.02331  -0.001  0.107155  -0.001885  0.109445  0.084765  -0.000678  1.027435  -0.001
H  H4  1  0.16892825  0.61541636  0.45997894  1  0.398255  -0.0  0.900189  0.0  0.365522  0.0  0.980931  0.0  0.378709  0.0  0.963626  0.0  0.66453  -4e-06  0.304706  0.356293  2e-06  0.990651  0.0
H  H5  1  0.83107160  0.38458355  0.54002105  1  0.398267  -0.0  0.900159  0.0  0.365521  0.0  0.98092  0.0  0.378707  0.0  0.963627  0.0  0.664525  -4e-06  0.304702  0.356291  2e-06  0.990639  0.0
H  H6  1  0.94469589  0.07707991  0.18976318  1  0.075476  -0.000687  0.9741  -0.001  0.079979  -0.000586  1.045078  -0.001  0.08229  -0.00042  1.042483  -0.001  0.10933  -0.002025  0.111568  0.078259  -0.000769  1.047244  -0.001
H  H7  1  0.05530275  0.92292000  0.81023674  1  0.075485  -0.000687  0.974106  -0.001  0.079981  -0.000586  1.045091  -0.001  0.082295  -0.00042  1.042495  -0.001  0.109331  -0.002024  0.111564  0.078261  -0.000769  1.047257  -0.001
H  H8  1  0.97902684  0.99224808  0.34657087  1  0.129302  -0.000242  0.928001  0.0  0.138137  -0.000368  0.985549  0.0  0.141791  -0.000256  0.983871  0.0  0.134582  -0.000981  0.118469  0.135502  -0.000461  0.986829  -0.001
H  H9  1  0.02097335  0.00775290  0.65342916  1  0.129291  -0.000242  0.92801  0.0  0.138125  -0.000368  0.985558  0.0  0.14178  -0.000256  0.98388  0.0  0.134586  -0.000981  0.118469  0.135491  -0.000461  0.986836  -0.001
H  H10  1  0.43081619  0.36091252  0.81238949  1  0.085183  0.000776  0.954111  0.001  0.093297  0.000686  1.017736  0.001  0.095657  0.000496  1.015119  0.001  0.127401  0.002188  0.114546  0.091364  0.000877  1.020191  0.001
H  H11  1  0.56918278  0.63908846  0.18760779  1  0.085171  0.000776  0.95411  0.001  0.0933  0.000686  1.017726  0.001  0.095651  0.000496  1.015131  0.001  0.127323  0.002188  0.114537  0.091365  0.000878  1.020185  0.001
H  H12  1  0.08021808  0.76774833  0.55478605  1  0.402849  3e-06  0.884574  0.0  0.3717  -2e-06  0.961721  0.0  0.385124  -0.0  0.947532  0.0  0.65418  2e-06  0.307712  0.362263  -3e-06  0.971633  0.0
H  H13  1  0.91978123  0.23225374  0.44521329  1  0.40286  3e-06  0.884568  0.0  0.371716  -2e-06  0.961707  0.0  0.38514  -0.0  0.947517  0.0  0.654188  2e-06  0.30772  0.362279  -3e-06  0.971619  0.0
H  H14  1  0.14490004  0.64306772  0.22882782  1  0.109541  0.000484  0.966763  0.0  0.116271  0.000303  1.033053  0.0  0.119749  0.000204  1.031825  0.0  0.120143  4.9e-05  0.103351  0.113539  0.000382  1.034572  0.0
H  H15  1  0.85510015  0.35693326  0.77117356  1  0.109563  0.000484  0.966727  0.0  0.116288  0.000303  1.033019  0.0  0.119774  0.000205  1.031781  0.0  0.120144  4.9e-05  0.103348  0.113555  0.000382  1.034538  0.0
H  H16  1  0.14201325  0.74684341  0.79172935  1  0.115378  0.000278  0.957287  0.0  0.123248  0.000378  1.020979  0.0  0.126694  0.000277  1.018909  0.0  0.123324  0.000966  0.111874  0.120797  0.000478  1.022507  0.001
H  H17  1  0.85798728  0.25315866  0.20827072  1  0.115401  0.000277  0.957271  0.0  0.123271  0.000378  1.020957  0.0  0.126715  0.000277  1.018893  0.0  0.123566  0.000965  0.111889  0.120817  0.000478  1.022493  0.001
H  H18  1  0.32209620  0.42148126  0.65834820  1  0.107958  0.000299  0.968814  0.0  0.115441  0.000394  1.033984  0.0  0.119002  0.00028  1.031788  0.0  0.098589  0.001061  0.11006  0.112627  0.000492  1.036187  0.001
H  H19  1  0.67790068  0.57852081  0.34164966  1  0.107933  0.000298  0.968829  0.0  0.11541  0.000394  1.03401  0.0  0.118972  0.00028  1.031811  0.0  0.098617  0.001061  0.110043  0.112585  0.000492  1.036224  0.001
H  H20  1  0.26339380  0.67832049  0.93886628  1  0.085207  0.000688  0.956674  0.001  0.090521  0.000586  1.025261  0.001  0.093136  0.000458  1.022654  0.001  0.12328  0.001951  0.110952  0.088295  0.000724  1.02783  0.001
H  H21  1  0.73661003  0.32168050  0.06113328  1  0.085235  0.000688  0.956673  0.001  0.090551  0.000586  1.025247  0.001  0.093168  0.000458  1.022638  0.001  0.123579  0.001951  0.110965  0.088326  0.000724  1.027816  0.001
H  H22  1  0.62979663  0.78989236  0.33730003  1  0.073966  -1.4e-05  0.991961  0.0  0.088064  1e-06  1.05306  0.0  0.089979  -1e-06  1.052742  0.0  0.034891  1e-06  0.093259  0.08643  2e-06  1.054258  0.0
H  H23  1  0.37020289  0.21010646  0.66269992  1  0.073976  -1.4e-05  0.991975  0.0  0.088075  1e-06  1.053069  0.0  0.089989  -1e-06  1.052753  0.0  0.034899  1e-06  0.093268  0.086441  2e-06  1.054268  0.0
H  H24  1  0.44024976  0.09361597  0.18350150  1  0.094888  -0.0  0.955826  0.0  0.104996  -5.3e-05  1.020258  0.0  0.107888  -3.3e-05  1.019428  0.0  0.084654  -9.2e-05  0.096031  0.102905  -6.3e-05  1.020819  0.0
H  H25  1  0.55975131  0.90638394  0.81649923  1  0.094865  0.0  0.955806  0.0  0.105011  -5.3e-05  1.020206  0.0  0.107897  -3.3e-05  1.019375  0.0  0.084639  -9.2e-05  0.096037  0.102919  -6.3e-05  1.020768  0.0
H  H26  1  0.33893554  0.27848870  0.25990502  1  0.091964  -2.9e-05  0.953292  0.0  0.105182  -1.1e-05  1.011937  0.0  0.107819  -8e-06  1.011449  0.0  0.068698  6e-06  0.097245  0.103247  -1.3e-05  1.012543  0.0
H  H27  1  0.66106450  0.72150796  0.74009491  1  0.091927  -2.9e-05  0.953308  0.0  0.105155  -1.1e-05  1.011943  0.0  0.107789  -7e-06  1.011456  0.0  0.068777  6e-06  0.097225  0.103223  -1.3e-05  1.012543  0.0
H  H28  1  0.56738447  0.88767265  0.19098422  1  0.082759  3.5e-05  0.983472  0.0  0.0937  -1.7e-05  1.047543  0.0  0.096275  -2.1e-05  1.046369  0.0  0.084011  -6.4e-05  0.090819  0.09173  -1.1e-05  1.048478  0.0
H  H29  1  0.43262126  0.11233050  0.80901618  1  0.082759  3.5e-05  0.98349  0.0  0.093701  -1.7e-05  1.047554  0.0  0.096275  -2.1e-05  1.046385  0.0  0.084  -6.4e-05  0.090817  0.091746  -1.1e-05  1.048477  0.0
H  H30  1  0.27912585  0.39162220  0.40174496  1  0.094973  2e-06  0.946356  0.0  0.109787  6e-06  0.998517  0.0  0.113007  4e-06  0.996705  0.0  0.068172  6e-06  0.100163  0.107383  7e-06  1.000265  0.0
H  H31  1  0.72086900  0.60837338  0.59825398  1  0.095011  2e-06  0.946333  0.0  0.109791  6e-06  0.998527  0.0  0.11301  4e-06  0.99672  0.0  0.068176  7e-06  0.100154  0.107387  7e-06  1.000276  0.0
H  H32  1  0.66735767  0.70654650  0.45251663  1  0.079066  9e-06  0.987604  0.0  0.091342  2.3e-05  1.051132  0.0  0.09416  1.4e-05  1.048951  0.0  0.040929  4.9e-05  0.094453  0.089305  3.3e-05  1.052694  0.0
H  H33  1  0.33263597  0.29344907  0.54748358  1  0.079114  9e-06  0.987502  0.0  0.091378  2.3e-05  1.051049  0.0  0.094197  1.4e-05  1.048866  0.0  0.041442  4.9e-05  0.094462  0.089339  3.3e-05  1.052616  0.0
C  C34  1  0.37856728  0.16335962  0.97771610  1  0.291596  0.005769  3.958877  0.016  0.291558  0.000993  4.269237  0.01  0.322938  0.000713  4.281024  0.009  0.571066  -0.005349  0.156861  0.269114  0.000914  4.261929  0.011
C  C35  1  0.62143568  0.83664245  0.02228412  1  0.29154  0.005771  3.958883  0.016  0.291494  0.000993  4.269254  0.01  0.322876  0.000714  4.281041  0.009  0.571003  -0.005348  0.156802  0.269052  0.000914  4.26194  0.011
C  C36  1  0.14872203  0.32141969  0.07164046  1  0.287532  -0.008226  3.957257  -0.018  0.288136  -0.002625  4.26882  -0.012  0.31844  -0.001829  4.281383  -0.01  0.562064  0.00127  0.154834  0.267208  -0.003131  4.260157  -0.013
C  C37  1  0.85127937  0.67858130  0.92835830  1  0.287641  -0.008224  3.957124  -0.018  0.288242  -0.002625  4.26869  -0.012  0.318545  -0.001828  4.281252  -0.01  0.562118  0.001271  0.154871  0.267314  -0.00313  4.260026  -0.013
C  C38  1  0.07576631  0.79390734  0.13938424  1  0.126289  0.009738  3.669189  0.011  0.101803  0.002088  3.922002  0.003  0.109038  0.002654  3.940645  0.004  0.48775  0.003898  0.049085  0.096451  0.001805  3.910109  0.003
C  C39  1  0.92423408  0.20609040  0.86061640  1  0.126432  0.009745  3.669315  0.011  0.101946  0.002088  3.922096  0.003  0.109183  0.002653  3.940742  0.004  0.487757  0.003898  0.049156  0.096595  0.001805  3.910205  0.003
C  C40  1  0.06465616  0.81053430  0.29983828  1  -0.033263  0.009502  3.756046  0.011  -0.016274  0.002959  3.994039  0.003  -0.020293  0.002927  4.015305  0.003  -0.024449  0.005747  -0.000806  -0.013633  0.003357  3.97946  0.004
C  C41  1  0.93534491  0.18946560  0.70016245  1  -0.033206  0.009509  3.755988  0.011  -0.016229  0.002962  3.993989  0.003  -0.020244  0.002928  4.015259  0.003  -0.02454  0.005748  -0.000795  -0.013586  0.003357  3.979409  0.004
C  C42  1  0.22499656  0.58931037  0.71343818  1  -0.024815  -0.009799  3.751627  -0.011  -0.007676  -0.002944  3.987469  -0.003  -0.010013  -0.002877  4.006616  -0.003  -0.018755  -0.005481  0.002193  -0.006454  -0.003246  3.975009  -0.003
C  C43  1  0.77500208  0.41068953  0.28656174  1  -0.024814  -0.009804  3.751611  -0.011  -0.007636  -0.002942  3.987397  -0.003  -0.009971  -0.002877  4.006542  -0.003  -0.018777  -0.005482  0.002183  -0.006414  -0.003246  3.974933  -0.003
C  C44  1  0.17298611  0.63124033  0.62197893  1  0.667447  -0.000206  3.783003  0.0  0.611874  -0.000205  4.086503  0.0  0.646212  -8.8e-05  4.075691  0.0  1.544615  -0.000667  0.248032  0.588258  -0.000384  4.093901  0.0
C  C45  1  0.82701199  0.36876174  0.37802235  1  0.667398  -0.000206  3.783079  0.0  0.611825  -0.000204  4.086561  0.0  0.646162  -8.7e-05  4.075749  0.0  1.544626  -0.000667  0.248004  0.58821  -0.000384  4.093958  0.0
C  C46  1  0.08940159  0.75783751  0.39170414  1  0.663062  0.000116  3.790368  -0.001  0.608574  0.000158  4.095169  0.0  0.64231  6.6e-05  4.085501  0.0  1.522136  0.000667  0.244364  0.585488  0.000351  4.101408  0.0
C  C47  1  0.91059981  0.24216347  0.60829731  1  0.66307  0.000116  3.790351  -0.001  0.608577  0.000159  4.095144  0.0  0.642311  6.6e-05  4.08548  0.0  1.522129  0.000667  0.244378  0.585492  0.000351  4.101381  0.0
C  C48  1  0.98776954  0.98119122  0.20209401  1  0.128265  0.009734  3.672201  0.012  0.101353  0.002098  3.931111  0.003  0.108264  0.002676  3.950096  0.004  0.460433  0.003926  0.052173  0.09636  0.001728  3.918925  0.003
C  C49  1  0.01223240  0.01880761  0.79790540  1  0.128235  0.009741  3.672263  0.012  0.101315  0.002097  3.931156  0.003  0.108223  0.002676  3.950148  0.004  0.46038  0.003927  0.052149  0.096321  0.001728  3.918972  0.003
C  C50  1  0.00679471  0.93376042  0.28868081  1  -0.098787  -0.009739  3.677426  -0.011  -0.124642  -0.003086  3.92833  -0.004  -0.128545  -0.003082  3.947779  -0.004  0.014096  -0.00533  -0.066422  -0.121667  -0.003219  3.915039  -0.004
C  C51  1  0.99320669  0.06624056  0.71131929  1  -0.098762  -0.009747  3.677402  -0.011  -0.124618  -0.003088  3.928315  -0.004  -0.128522  -0.003082  3.94776  -0.004  0.014179  -0.00533  -0.066429  -0.121644  -0.003219  3.915026  -0.004
C  C52  1  0.36620165  0.44559599  0.80425459  1  0.121088  -0.009396  3.691093  -0.011  0.094315  -0.001783  3.947724  -0.003  0.102696  -0.002401  3.9658  -0.004  0.477447  -0.003024  0.047525  0.088232  -0.001261  3.936388  -0.002
C  C53  1  0.63379543  0.55440284  0.19574388  1  0.121144  -0.009402  3.691  -0.011  0.09436  -0.001783  3.947648  -0.003  0.102738  -0.002402  3.965721  -0.004  0.477495  -0.003024  0.047556  0.088278  -0.001261  3.936308  -0.002
C  C54  1  0.09939908  0.73931344  0.22349185  1  -0.105295  -0.009385  3.699599  -0.011  -0.129607  -0.002722  3.94566  -0.004  -0.133994  -0.002859  3.966334  -0.004  0.005517  -0.004869  -0.075016  -0.126522  -0.002809  3.932134  -0.004
C  C55  1  0.90060198  0.26068646  0.77650955  1  -0.105402  -0.009393  3.699656  -0.011  -0.129709  -0.002723  3.945734  -0.004  -0.134107  -0.002859  3.966406  -0.004  0.005529  -0.004869  -0.075059  -0.126624  -0.002809  3.932208  -0.004
C  C56  1  0.20454765  0.66062322  0.79313967  1  -0.097851  0.009931  3.676833  0.011  -0.121272  0.003344  3.922811  0.004  -0.124799  0.003275  3.940225  0.004  -0.020519  0.0057  -0.068526  -0.119294  0.003546  3.912043  0.004
C  C57  1  0.79545132  0.33937777  0.20685963  1  -0.097842  0.009936  3.676885  0.011  -0.121274  0.003343  3.922854  0.004  -0.124802  0.003274  3.940267  0.004  -0.020662  0.0057  -0.068531  -0.119297  0.003546  3.912084  0.004
C  C58  1  0.30456397  0.47789433  0.71972141  1  -0.114006  0.009573  3.717406  0.011  -0.141319  0.002973  3.972486  0.004  -0.146198  0.002979  3.992073  0.004  0.003159  0.005083  -0.075508  -0.138151  0.003052  3.960004  0.004
C  C59  1  0.69543379  0.52210665  0.28027714  1  -0.113968  0.009579  3.717358  0.011  -0.141287  0.002972  3.972428  0.004  -0.146164  0.002979  3.992012  0.004  0.003157  0.005083  -0.075463  -0.138111  0.003052  3.959949  0.004
C  C60  1  0.27153594  0.62267902  0.87524076  1  0.128894  -0.009652  3.670693  -0.012  0.103045  -0.001773  3.925644  -0.003  0.111408  -0.00234  3.943169  -0.004  0.473812  -0.003603  0.052646  0.096807  -0.001524  3.915191  -0.003
C  C61  1  0.72846547  0.37732197  0.12475867  1  0.128793  -0.009657  3.670773  -0.012  0.102943  -0.001773  3.925729  -0.003  0.111304  -0.00234  3.943255  -0.004  0.473487  -0.003602  0.052625  0.096707  -0.001523  3.915274  -0.003
C  C62  1  0.53765067  0.93696916  0.41743131  1  0.019891  4e-05  3.766441  0.0  0.025768  1.4e-05  4.006816  0.0  0.026042  2e-05  4.029861  0.0  -0.048022  1.3e-05  -0.010718  0.025793  1.1e-05  3.990861  0.0
C  C63  1  0.46234573  0.06302750  0.58256908  1  0.019994  4.5e-05  3.766324  0.0  0.02584  1.4e-05  4.006768  0.0  0.026114  1.9e-05  4.029811  0.0  -0.048209  1.3e-05  -0.010711  0.025865  1.1e-05  3.990812  0.0
C  C64  1  0.46677114  0.05791950  0.41438060  1  -0.023995  3.4e-05  3.703832  0.0  -0.016315  2.4e-05  3.931081  0.0  -0.018181  1.7e-05  3.955234  0.0  -0.034113  4.8e-05  -0.006619  -0.014363  3.4e-05  3.913601  0.0
C  C65  1  0.53322648  0.94207715  0.58561986  1  -0.024057  3.1e-05  3.703916  0.0  -0.016347  2.5e-05  3.931153  0.0  -0.018212  1.7e-05  3.955309  0.0  -0.033906  4.8e-05  -0.006626  -0.014396  3.4e-05  3.913674  0.0
C  C66  1  0.57083156  0.87717744  0.50490182  1  0.017421  1e-06  3.762504  0.0  0.02489  -1e-05  4.002941  0.0  0.024754  -6e-06  4.026455  0.0  -0.033282  -4e-06  -0.010055  0.025398  -5e-06  3.985488  0.0
C  C67  1  0.42916762  0.12282030  0.49509808  1  0.017479  -4e-06  3.762315  0.0  0.024897  -1e-05  4.00285  0.0  0.024762  -6e-06  4.026363  0.0  -0.033292  -4e-06  -0.010046  0.025405  -5e-06  3.985397  0.0
C  C68  1  0.43293085  0.11546889  0.32866508  1  0.049571  -3.6e-05  3.818767  0.0  0.065599  -7e-06  4.048258  0.0  0.065099  -1e-05  4.074506  0.0  0.029802  -2.4e-05  -0.014493  0.06618  -1.2e-05  4.030469  0.0
C  C69  1  0.56706711  0.88452885  0.67133609  1  0.049599  -3.2e-05  3.818841  0.0  0.06555  -7e-06  4.048438  0.0  0.065045  -1.1e-05  4.074696  0.0  0.029846  -2.4e-05  -0.01449  0.066131  -1.2e-05  4.030649  0.0
C  C70  1  0.57309185  0.88000957  0.33644173  1  -0.108466  -7.2e-05  3.747681  0.0  -0.127941  -3.3e-05  3.994895  0.0  -0.130309  -2.9e-05  4.016191  0.0  0.015314  -4.7e-05  -0.096886  -0.127443  -2.9e-05  3.981993  0.0
C  C71  1  0.42690800  0.11999034  0.66355826  1  -0.108532  -7.9e-05  3.747688  0.0  -0.127995  -3.3e-05  3.994904  0.0  -0.130364  -2.9e-05  4.016203  0.0  0.015306  -4.7e-05  -0.096912  -0.127498  -2.9e-05  3.982007  0.0
C  C72  1  0.46886999  0.05118279  0.24848384  1  -0.114113  2.9e-05  3.7474  0.0  -0.134101  -2.5e-05  3.997629  0.0  -0.136864  -1.5e-05  4.019876  0.0  -0.117598  7.4e-05  -0.095674  -0.132575  -1.2e-05  3.982642  0.0
C  C73  1  0.53112986  0.94881711  0.75151682  1  -0.114087  2.2e-05  3.747377  0.0  -0.134087  -2.6e-05  3.997632  0.0  -0.136839  -1.5e-05  4.019869  0.0  -0.117606  7.4e-05  -0.095659  -0.132561  -1.2e-05  3.982648  0.0
C  C74  1  0.36429272  0.23611071  0.32537733  1  -0.118446  -2.9e-05  3.758418  0.0  -0.136999  1.1e-05  4.00642  0.0  -0.140434  5e-06  4.029455  0.0  -0.052995  7e-06  -0.094652  -0.135486  1.1e-05  3.991647  0.0
C  C75  1  0.63570402  0.76388703  0.67462176  1  -0.118464  -3.6e-05  3.758426  0.0  -0.136999  1.1e-05  4.006443  0.0  -0.140428  5e-06  4.029474  0.0  -0.053023  7e-06  -0.094642  -0.135484  1.1e-05  3.991663  0.0
C  C76  1  0.53875151  0.93572787  0.25284231  1  -0.077231  -2.4e-05  3.821292  0.0  -0.089841  -4.9e-05  4.072797  0.0  -0.091879  -3.5e-05  4.095188  0.0  -0.071818  -4.5e-05  -0.100979  -0.087884  -5.7e-05  4.057726  0.0
C  C77  1  0.46124834  0.06427203  0.74715768  1  -0.077245  -1.9e-05  3.821342  0.0  -0.08985  -4.8e-05  4.072848  0.0  -0.091888  -3.5e-05  4.095238  0.0  -0.071807  -4.5e-05  -0.100999  -0.087906  -5.7e-05  4.057771  0.0
C  C78  1  0.33079469  0.29829409  0.40389937  1  -0.064042  3.7e-05  3.802568  0.0  -0.079397  9e-06  4.056928  0.0  -0.080622  1e-05  4.077435  0.0  -0.066549  2.2e-05  -0.097043  -0.078523  1.7e-05  4.042764  0.0
C  C79  1  0.66920050  0.70170256  0.59610028  1  -0.064084  4.2e-05  3.802586  0.0  -0.079414  9e-06  4.056949  0.0  -0.080635  1e-05  4.077444  0.0  -0.066636  2.2e-05  -0.097039  -0.07854  1.6e-05  4.042788  0.0
C  C80  1  0.63722888  0.75824226  0.51241371  1  -0.093793  -1.3e-05  3.729296  0.0  -0.118128  1.7e-05  3.983343  0.0  -0.119594  1.1e-05  4.002742  0.0  0.020588  2.5e-05  -0.091572  -0.11532  1.2e-05  3.968164  0.0
C  C81  1  0.36276630  0.24175440  0.48758527  1  -0.093942  -6e-06  3.729086  0.0  -0.118246  1.6e-05  3.983155  0.0  -0.119712  1e-05  4.002556  0.0  0.020101  2.5e-05  -0.091595  -0.115437  1.2e-05  3.967977  0.0
S  S82  1  0.28744594  0.99208142  0.98177440  1  -0.237006  -0.08168  2.31753  -0.094  -0.264983  -0.052853  2.680543  -0.061  -0.298813  -0.039241  2.674476  -0.046  0.131521  -0.095124  -0.099933  -0.240945  -0.061221  2.685233  -0.069
S  S83  1  0.71255668  0.00791956  0.01822712  1  -0.236985  -0.081673  2.31762  -0.094  -0.264953  -0.05285  2.680628  -0.061  -0.29878  -0.039239  2.674558  -0.046  0.13162  -0.09511  -0.099925  -0.240928  -0.061217  2.685336  -0.069
S  S84  1  0.25528125  0.49048901  0.08832904  1  -0.258136  0.079263  2.24647  0.09  -0.286701  0.049642  2.593353  0.057  -0.320085  0.035468  2.58473  0.041  0.115373  0.093956  -0.105268  -0.262096  0.059478  2.599721  0.066
S  S85  1  0.74471705  0.50950981  0.91166815  1  -0.258171  0.07927  2.246311  0.09  -0.286747  0.049645  2.593204  0.057  -0.320133  0.035471  2.584578  0.041  0.115322  0.093963  -0.105276  -0.262145  0.059482  2.599581  0.066
N  N86  1  0.44455654  0.28796555  0.97351507  1  -0.489567  0.011427  3.070062  0.016  -0.475421  0.013104  3.371319  0.017  -0.510536  0.013008  3.376386  0.017  -1.28811  0.015247  -0.391964  -0.451737  0.012651  3.368209  0.016
N  N87  1  0.55544418  0.71203327  0.02648427  1  -0.489532  0.011424  3.069976  0.016  -0.475397  0.013102  3.37127  0.017  -0.510511  0.013006  3.376334  0.017  -1.288062  0.015243  -0.39192  -0.451711  0.012649  3.368156  0.016
N  N88  1  0.07186398  0.19828447  0.05914200  1  -0.482357  -0.009244  3.08429  -0.013  -0.468656  -0.012842  3.382685  -0.016  -0.502576  -0.013158  3.388998  -0.016  -1.279918  -0.014255  -0.388001  -0.446173  -0.012137  3.377972  -0.015
N  N89  1  0.92813762  0.80171327  0.94085736  1  -0.482401  -0.009248  3.084311  -0.013  -0.468676  -0.012844  3.382659  -0.016  -0.502597  -0.01316  3.388973  -0.016  -1.279925  -0.014259  -0.387986  -0.446201  -0.01214  3.377963  -0.015
N  N90  1  0.02181442  0.91338038  0.12853028  1  -0.255894  -0.061424  3.3044  -0.088  -0.209986  -0.041537  3.574424  -0.062  -0.239016  -0.034066  3.600383  -0.052  -1.191235  -0.076813  -0.307011  -0.190942  -0.047894  3.557606  -0.069
N  N91  1  0.97818718  0.08661736  0.87147042  1  -0.255952  -0.06143  3.304458  -0.088  -0.210002  -0.041536  3.574422  -0.062  -0.239034  -0.034066  3.600383  -0.052  -1.191234  -0.076815  -0.307001  -0.190957  -0.047894  3.557603  -0.069
N  N92  1  0.35429950  0.51961434  0.88072774  1  -0.257339  0.060716  3.326417  0.087  -0.212285  0.040929  3.599467  0.06  -0.242417  0.033766  3.624901  0.051  -1.207993  0.074605  -0.313498  -0.192524  0.046684  3.583034  0.067
N  N93  1  0.64570035  0.48038556  0.11927091  1  -0.257334  0.06072  3.326322  0.087  -0.212285  0.040929  3.599384  0.06  -0.242413  0.033766  3.624818  0.051  -1.208008  0.074605  -0.313531  -0.192524  0.046684  3.58295  0.067
O  O94  1  0.19738614  0.56506253  0.55309172  1  -0.55404  -0.00121  1.998832  -0.002  -0.504163  -0.000402  2.216561  -0.001  -0.526492  -0.00037  2.207413  -0.001  -1.151817  -0.000891  -0.27686  -0.489216  -0.000491  2.222397  -0.001
O  O95  1  0.80261284  0.43493845  0.44690824  1  -0.554014  -0.001211  1.998899  -0.002  -0.504143  -0.000402  2.216637  -0.001  -0.526471  -0.00037  2.207491  -0.001  -1.151876  -0.000891  -0.276853  -0.489196  -0.000491  2.222472  -0.001
O  O96  1  0.15378743  0.64596803  0.39396480  1  -0.539513  0.000315  2.103463  0.001  -0.489014  9.1e-05  2.322744  0.0  -0.511862  7.2e-05  2.307  0.0  -1.17706  0.000399  -0.319211  -0.473328  0.000152  2.331967  0.0
O  O97  1  0.84621364  0.35403188  0.60603660  1  -0.539572  0.000315  2.103415  0.001  -0.489042  9.1e-05  2.322673  0.0  -0.511892  7.2e-05  2.306942  0.0  -1.177041  0.000399  -0.319228  -0.473357  0.000152  2.331894  0.0
O  O98  1  0.10482922  0.74051794  0.62087402  1  -0.52279  -0.000438  2.085555  -0.001  -0.471041  -0.000184  2.301763  0.0  -0.494034  -0.000139  2.288642  0.0  -1.153445  -0.000478  -0.307203  -0.455347  -0.000263  2.310627  0.0
O  O99  1  0.89517165  0.25948521  0.37912610  1  -0.522778  -0.000438  2.085558  -0.001  -0.471034  -0.000184  2.301751  0.0  -0.494027  -0.000139  2.28863  0.0  -1.153398  -0.000478  -0.307197  -0.455339  -0.000263  2.310613  0.0
O  O100  1  0.05030500  0.81658165  0.45926211  1  -0.54489  0.001224  1.972155  0.002  -0.497328  0.000428  2.185542  0.001  -0.518928  0.000404  2.176412  0.001  -1.152916  0.000968  -0.272312  -0.482783  0.00054  2.191679  0.001
O  O101  1  0.94969728  0.18341825  0.54073802  1  -0.544868  0.001225  1.972146  0.002  -0.497315  0.000427  2.185542  0.001  -0.518907  0.000403  2.176399  0.001  -1.152893  0.000968  -0.272283  -0.48277  0.00054  2.191677  0.001
