# generated using pymatgen
data_PrH6C10N5O7
_symmetry_space_group_name_H-M   'P 1'
_cell_length_a   7.98372961
_cell_length_b   7.98372076
_cell_length_c   19.82843287
_cell_angle_alpha   90.00002160
_cell_angle_beta   90.00004827
_cell_angle_gamma   90.01670214
_symmetry_Int_Tables_number   1
_chemical_formula_structural   PrH6C10N5O7
_chemical_formula_sum   'Pr4 H24 C40 N20 O28'
_cell_volume   1263.86163661
_cell_formula_units_Z   4
loop_
 _symmetry_equiv_pos_site_id
 _symmetry_equiv_pos_as_xyz
  1  'x, y, z'
loop_
 _atom_site_type_symbol
 _atom_site_label
 _atom_site_symmetry_multiplicity
 _atom_site_fract_x
 _atom_site_fract_y
 _atom_site_fract_z
 _atom_site_occupancy
 _atom_site_hle17_bader_spin_density
 _atom_site_hle17_ddec_charge
 _atom_site_hle17_ddec_spin_density
 _atom_site_hle17_ddec_sum_bond_order
 _atom_site_hle17_magmom
 _atom_site_hse06_10hf_bader_spin_density
 _atom_site_hse06_10hf_ddec_charge
 _atom_site_hse06_10hf_ddec_spin_density
 _atom_site_hse06_10hf_ddec_sum_bond_order
 _atom_site_hse06_10hf_magmom
 _atom_site_hse06_bader_spin_density
 _atom_site_hse06_ddec_charge
 _atom_site_hse06_ddec_spin_density
 _atom_site_hse06_ddec_sum_bond_order
 _atom_site_hse06_magmom
 _atom_site_pbe_bader_spin_density
 _atom_site_pbe_cm5_charge
 _atom_site_pbe_ddec_charge
 _atom_site_pbe_ddec_spin_density
 _atom_site_pbe_ddec_sum_bond_order
 _atom_site_pbe_magmom
Pr  Pr0  1  0.27867571  0.72132724  0.25000019  1  0  2.111702  0  1.710954  0  0  1.877226  0  2.245841  0  0  1.928383  0  2.196272  0  0  1.47141  1.838839  0  2.283265  0
Pr  Pr1  1  0.77863811  0.77863647  0.00000019  1  0  2.111559  0  1.710472  0  0  1.877622  0  2.244144  0  0  1.928476  0  2.195108  0  0  1.471084  1.839181  0  2.28164  0
Pr  Pr2  1  0.72132586  0.27867235  0.75000041  1  0  2.111723  0  1.710901  0  0  1.877277  0  2.245726  0  0  1.928423  0  2.196178  0  0  1.471417  1.838887  0  2.28316  0
Pr  Pr3  1  0.22136418  0.22136414  0.49999973  1  0  2.11157  0  1.710482  0  0  1.877656  0  2.244124  0  0  1.928494  0  2.195115  0  0  1.471107  1.839193  0  2.281673  0
H  H4  1  0.94740784  0.31767096  0.99733014  1  0  0.094303  0  0.9291  0  0  0.102418  0  0.989907  0  0  0.104919  0  0.987387  0  0  0.128654  0.10053  0  0.991787  0
H  H5  1  0.18297301  0.44753391  0.74749333  1  0  0.094308  0  0.929145  0  0  0.102629  0  0.989907  0  0  0.105187  0  0.987273  0  0  0.128652  0.100674  0  0.991869  0
H  H6  1  0.05259048  0.68232761  0.49732933  1  0  0.094287  0  0.9291  0  0  0.102416  0  0.989889  0  0  0.104918  0  0.987367  0  0  0.128658  0.100528  0  0.991769  0
H  H7  1  0.81702855  0.55246568  0.24749377  1  0  0.094247  0  0.929188  0  0  0.102646  0  0.989893  0  0  0.105202  0  0.987262  0  0  0.128644  0.100681  0  0.991865  0
H  H8  1  0.44753333  0.18297130  0.25250618  1  0  0.094283  0  0.929128  0  0  0.102633  0  0.9899  0  0  0.105186  0  0.987276  0  0  0.128648  0.100691  0  0.991843  0
H  H9  1  0.31767139  0.94740660  0.00267003  1  0  0.094277  0  0.929129  0  0  0.102389  0  0.98994  0  0  0.104891  0  0.987418  0  0  0.128636  0.100501  0  0.99182  0
H  H10  1  0.55246323  0.81702955  0.75250541  1  0  0.094235  0  0.929192  0  0  0.102632  0  0.989924  0  0  0.105187  0  0.987295  0  0  0.12865  0.1007  0  0.991852  0
H  H11  1  0.68232840  0.05259151  0.50267071  1  0  0.094283  0  0.929106  0  0  0.102397  0  0.989902  0  0  0.104899  0  0.98738  0  0  0.128642  0.100509  0  0.991782  0
H  H12  1  0.07582150  0.13544293  0.08727722  1  0  0.14241  0  0.960995  0  0  0.14684  0  1.021704  0  0  0.151866  0  1.019243  0  0  0.118977  0.143182  0  1.023745  0
H  H13  1  0.36482537  0.57581144  0.83757764  1  0  0.142411  0  0.960824  0  0  0.146853  0  1.021441  0  0  0.151864  0  1.019015  0  0  0.119029  0.143204  0  1.023462  0
H  H14  1  0.92417972  0.86455650  0.58727558  1  0  0.142369  0  0.961064  0  0  0.146809  0  1.021755  0  0  0.151836  0  1.019294  0  0  0.118975  0.143153  0  1.023792  0
H  H15  1  0.63517513  0.42418824  0.33757750  1  0  0.142438  0  0.960805  0  0  0.146885  0  1.021413  0  0  0.151891  0  1.019002  0  0  0.119039  0.143236  0  1.023435  0
H  H16  1  0.57580932  0.36482748  0.16242143  1  0  0.142421  0  0.960801  0  0  0.146865  0  1.021416  0  0  0.151872  0  1.019002  0  0  0.119014  0.143215  0  1.023438  0
H  H17  1  0.13544495  0.07582067  0.91272370  1  0  0.142429  0  0.96098  0  0  0.146863  0  1.02169  0  0  0.151891  0  1.019228  0  0  0.11899  0.143207  0  1.023731  0
H  H18  1  0.42418705  0.63517704  0.66242161  1  0  0.142438  0  0.960848  0  0  0.146877  0  1.02146  0  0  0.151889  0  1.019032  0  0  0.119022  0.143227  0  1.023483  0
H  H19  1  0.86455570  0.92417908  0.41272371  1  0  0.142418  0  0.960986  0  0  0.146851  0  1.0217  0  0  0.151878  0  1.019239  0  0  0.118982  0.143194  0  1.023741  0
H  H20  1  0.19953089  0.28282714  0.18921269  1  0  0.084647  0  0.942052  0  0  0.08739  0  1.015102  0  0  0.090119  0  1.01212  0  0  0.1252  0.085331  0  1.017304  0
H  H21  1  0.21704916  0.69946662  0.93945608  1  0  0.08432  0  0.941785  0  0  0.087137  0  1.015075  0  0  0.089881  0  1.012065  0  0  0.12498  0.085066  0  1.017278  0
H  H22  1  0.80047054  0.71717365  0.68921199  1  0  0.084664  0  0.942018  0  0  0.087413  0  1.015058  0  0  0.090135  0  1.012094  0  0  0.125231  0.085354  0  1.017262  0
H  H23  1  0.78295155  0.30053315  0.43945647  1  0  0.084255  0  0.941844  0  0  0.087074  0  1.015122  0  0  0.089816  0  1.012115  0  0  0.124977  0.085006  0  1.017327  0
H  H24  1  0.69946546  0.21704970  0.06054299  1  0  0.084372  0  0.9417  0  0  0.087173  0  1.014992  0  0  0.089921  0  1.011981  0  0  0.124986  0.085102  0  1.017195  0
H  H25  1  0.28282759  0.19953130  0.81078779  1  0  0.084679  0  0.942007  0  0  0.087422  0  1.015039  0  0  0.090148  0  1.01207  0  0  0.125214  0.085362  0  1.01724  0
H  H26  1  0.30053069  0.78295097  0.56054163  1  0  0.084369  0  0.941631  0  0  0.087176  0  1.014923  0  0  0.089927  0  1.011911  0  0  0.124985  0.085105  0  1.017125  0
H  H27  1  0.71717285  0.80046960  0.31078773  1  0  0.084649  0  0.94204  0  0  0.087399  0  1.015063  0  0  0.090121  0  1.0121  0  0  0.125216  0.085341  0  1.017265  0
C  C28  1  0.10266942  0.60508377  0.09574187  1  0  0.268985  0  3.786016  0  0  0.258178  0  4.0343  0  0  0.26764  0  4.046707  0  0  0.25389  0.251754  0  4.025998  0
C  C29  1  0.89518920  0.60273087  0.84567974  1  0  0.270381  0  3.783494  0  0  0.257045  0  4.035141  0  0  0.26646  0  4.047565  0  0  0.253884  0.250723  0  4.026683  0
C  C30  1  0.89733307  0.39491567  0.59574166  1  0  0.268988  0  3.786039  0  0  0.258165  0  4.03434  0  0  0.267629  0  4.046742  0  0  0.253893  0.251747  0  4.026035  0
C  C31  1  0.10481006  0.39726882  0.34567991  1  0  0.270399  0  3.783528  0  0  0.25707  0  4.035158  0  0  0.266488  0  4.047579  0  0  0.253877  0.250748  0  4.0267  0
C  C32  1  0.60273247  0.89518938  0.15432048  1  0  0.270391  0  3.783534  0  0  0.257096  0  4.035156  0  0  0.266507  0  4.047575  0  0  0.253891  0.250774  0  4.026701  0
C  C33  1  0.60508400  0.10266861  0.90425917  1  0  0.269201  0  3.785913  0  0  0.258334  0  4.034252  0  0  0.267796  0  4.046657  0  0  0.253956  0.251912  0  4.025952  0
C  C34  1  0.39726764  0.10481138  0.65432007  1  0  0.270431  0  3.783479  0  0  0.257124  0  4.035133  0  0  0.266536  0  4.047548  0  0  0.253922  0.250807  0  4.026676  0
C  C35  1  0.39491538  0.89733113  0.40425901  1  0  0.269145  0  3.785969  0  0  0.258288  0  4.034306  0  0  0.267751  0  4.046712  0  0  0.253939  0.251865  0  4.026005  0
C  C36  1  0.01127334  0.37203497  0.04068908  1  0  0.213594  0  3.62699  0  0  0.180928  0  3.886292  0  0  0.191984  0  3.898437  0  0  0.086298  0.173763  0  3.878061  0
C  C37  1  0.12841888  0.51134084  0.79081949  1  0  0.213539  0  3.624077  0  0  0.180451  0  3.883626  0  0  0.191485  0  3.895819  0  0  0.086526  0.173343  0  3.875396  0
C  C38  1  0.98872528  0.62796443  0.54068843  1  0  0.213586  0  3.627065  0  0  0.180906  0  3.886392  0  0  0.191961  0  3.898538  0  0  0.086256  0.173741  0  3.878163  0
C  C39  1  0.87158151  0.48865879  0.29081994  1  0  0.213627  0  3.623975  0  0  0.18041  0  3.883645  0  0  0.191443  0  3.895838  0  0  0.086524  0.17331  0  3.875417  0
C  C40  1  0.51134137  0.12841704  0.20917951  1  0  0.21366  0  3.624087  0  0  0.18046  0  3.883781  0  0  0.191495  0  3.895971  0  0  0.086545  0.173342  0  3.875549  0
C  C41  1  0.37203554  0.01127251  0.95931188  1  0  0.213604  0  3.627176  0  0  0.180944  0  3.886482  0  0  0.192002  0  3.898625  0  0  0.086308  0.173779  0  3.878252  0
C  C42  1  0.48865635  0.87158251  0.70917924  1  0  0.21362  0  3.624014  0  0  0.180352  0  3.883752  0  0  0.191387  0  3.895945  0  0  0.086452  0.17323  0  3.875518  0
C  C43  1  0.62796521  0.98872603  0.45931182  1  0  0.213627  0  3.627074  0  0  0.180983  0  3.886371  0  0  0.192041  0  3.898513  0  0  0.086324  0.173817  0  3.87814  0
C  C44  1  0.08110205  0.27161455  0.09078129  1  0  -0.141926  0  3.61133  0  0  -0.153272  0  3.86097  0  0  -0.16348  0  3.878923  0  0  -0.064214  -0.146946  0  3.849302  0
C  C45  1  0.22865544  0.58109238  0.84102217  1  0  -0.142469  0  3.608723  0  0  -0.153413  0  3.85864  0  0  -0.163614  0  3.876584  0  0  -0.06438  -0.147098  0  3.84698  0
C  C46  1  0.91889793  0.72838489  0.59078064  1  0  -0.141935  0  3.611357  0  0  -0.153287  0  3.861018  0  0  -0.163494  0  3.87897  0  0  -0.064221  -0.146959  0  3.849351  0
C  C47  1  0.77134631  0.41890730  0.34102257  1  0  -0.142571  0  3.608788  0  0  -0.153505  0  3.858768  0  0  -0.163708  0  3.876707  0  0  -0.064419  -0.147191  0  3.847107  0
C  C48  1  0.58109150  0.22865489  0.15897688  1  0  -0.142568  0  3.608791  0  0  -0.153495  0  3.858754  0  0  -0.163696  0  3.876694  0  0  -0.064398  -0.147179  0  3.8471  0
C  C49  1  0.27161641  0.08110122  0.90921966  1  0  -0.141921  0  3.611447  0  0  -0.153286  0  3.861083  0  0  -0.163494  0  3.879034  0  0  -0.064212  -0.146963  0  3.849419  0
C  C50  1  0.41890235  0.77134837  0.65897606  1  0  -0.142528  0  3.608722  0  0  -0.153418  0  3.858678  0  0  -0.163618  0  3.876625  0  0  -0.064324  -0.147103  0  3.847024  0
C  C51  1  0.72838423  0.91889852  0.40921962  1  0  -0.141915  0  3.611394  0  0  -0.153287  0  3.861036  0  0  -0.163495  0  3.878987  0  0  -0.064207  -0.14696  0  3.849371  0
C  C52  1  0.15351489  0.35244585  0.14569538  1  0  0.211517  0  3.641323  0  0  0.176211  0  3.904926  0  0  0.186845  0  3.919128  0  0  0.08271  0.169375  0  3.895225  0
C  C53  1  0.14761871  0.65346539  0.89588479  1  0  0.212781  0  3.640604  0  0  0.176927  0  3.904621  0  0  0.187558  0  3.918817  0  0  0.083222  0.170106  0  3.894905  0
C  C54  1  0.84648646  0.64755365  0.64569469  1  0  0.211565  0  3.641222  0  0  0.176253  0  3.904842  0  0  0.186886  0  3.919041  0  0  0.08271  0.169414  0  3.895144  0
C  C55  1  0.85238190  0.34653434  0.39588521  1  0  0.2129  0  3.640664  0  0  0.177069  0  3.904653  0  0  0.187701  0  3.918846  0  0  0.083276  0.170241  0  3.894944  0
C  C56  1  0.65346561  0.14762050  0.10411375  1  0  0.212682  0  3.640603  0  0  0.176872  0  3.904568  0  0  0.187497  0  3.918771  0  0  0.083182  0.17005  0  3.894852  0
C  C57  1  0.35244628  0.15351406  0.85430561  1  0  0.21148  0  3.641415  0  0  0.176203  0  3.905005  0  0  0.186835  0  3.919205  0  0  0.082687  0.169369  0  3.895301  0
C  C58  1  0.34653064  0.85238146  0.60411292  1  0  0.212712  0  3.640471  0  0  0.176879  0  3.904458  0  0  0.187499  0  3.918666  0  0  0.08318  0.170057  0  3.894741  0
C  C59  1  0.64755300  0.84648689  0.35430553  1  0  0.211505  0  3.641392  0  0  0.176222  0  3.904999  0  0  0.186854  0  3.919199  0  0  0.082691  0.169383  0  3.8953  0
C  C60  1  0.12698365  0.79263020  0.09526580  1  0  0.625047  0  3.922687  0  0  0.571715  0  4.226079  0  0  0.606113  0  4.213474  0  0  0.228564  0.548343  0  4.233876  0
C  C61  1  0.70766886  0.62705935  0.84513957  1  0  0.623901  0  3.923933  0  0  0.57143  0  4.227276  0  0  0.605878  0  4.214615  0  0  0.228255  0.548007  0  4.235103  0
C  C62  1  0.87301759  0.20737050  0.59526506  1  0  0.624997  0  3.92279  0  0  0.571678  0  4.226159  0  0  0.606081  0  4.213544  0  0  0.228539  0.548301  0  4.233965  0
C  C63  1  0.29233165  0.37294034  0.34513981  1  0  0.623876  0  3.923967  0  0  0.57141  0  4.227288  0  0  0.605853  0  4.214635  0  0  0.228244  0.54799  0  4.235113  0
C  C64  1  0.62706092  0.70766883  0.15486061  1  0  0.623992  0  3.923802  0  0  0.571445  0  4.227246  0  0  0.605912  0  4.214557  0  0  0.228264  0.548015  0  4.235084  0
C  C65  1  0.79263022  0.12698287  0.90473528  1  0  0.62495  0  3.92289  0  0  0.571665  0  4.226224  0  0  0.606068  0  4.213608  0  0  0.228555  0.548289  0  4.23403  0
C  C66  1  0.37293919  0.29233318  0.65486071  1  0  0.623995  0  3.923782  0  0  0.57143  0  4.227271  0  0  0.605897  0  4.214579  0  0  0.22826  0.547999  0  4.235109  0
C  C67  1  0.20737041  0.87301812  0.40473557  1  0  0.624891  0  3.922886  0  0  0.571577  0  4.226259  0  0  0.605977  0  4.213651  0  0  0.228506  0.548199  0  4.234064  0
N  N68  1  0.16867763  0.52023449  0.14760477  1  0  -0.437005  0  3.177001  0  0  -0.383902  0  3.439425  0  0  -0.400409  0  3.454877  0  0  -0.35088  -0.372686  0  3.428923  0
N  N69  1  0.97983724  0.66862479  0.89764302  1  0  -0.438191  0  3.176659  0  0  -0.384139  0  3.440034  0  0  -0.40059  0  3.455477  0  0  -0.351032  -0.372937  0  3.429497  0
N  N70  1  0.83132622  0.47976501  0.64760456  1  0  -0.437015  0  3.176929  0  0  -0.383903  0  3.43934  0  0  -0.400408  0  3.454791  0  0  -0.350864  -0.372687  0  3.428838  0
N  N71  1  0.02016337  0.33137494  0.39764366  1  0  -0.438237  0  3.176645  0  0  -0.384195  0  3.440015  0  0  -0.400645  0  3.455455  0  0  -0.351053  -0.37299  0  3.429481  0
N  N72  1  0.66862624  0.97983619  0.10235674  1  0  -0.438127  0  3.176633  0  0  -0.384077  0  3.439952  0  0  -0.40053  0  3.455402  0  0  -0.350978  -0.372872  0  3.429411  0
N  N73  1  0.52023473  0.16867556  0.85239626  1  0  -0.437137  0  3.176988  0  0  -0.384031  0  3.439425  0  0  -0.400536  0  3.454874  0  0  -0.350945  -0.372814  0  3.428923  0
N  N74  1  0.33137126  0.02016577  0.60235578  1  0  -0.438191  0  3.17661  0  0  -0.384122  0  3.439933  0  0  -0.400573  0  3.455382  0  0  -0.351002  -0.372917  0  3.429394  0
N  N75  1  0.47976454  0.83132538  0.35239562  1  0  -0.437102  0  3.177014  0  0  -0.38399  0  3.439458  0  0  -0.400496  0  3.454906  0  0  -0.350936  -0.372772  0  3.428955  0
N  N76  1  0.01730124  0.53968951  0.04402622  1  0  -0.414764  0  3.17997  0  0  -0.365599  0  3.44242  0  0  -0.381273  0  3.456855  0  0  -0.334585  -0.354977  0  3.43267  0
N  N77  1  0.96074757  0.51740800  0.79400597  1  0  -0.414797  0  3.177787  0  0  -0.364791  0  3.441376  0  0  -0.380451  0  3.45581  0  0  -0.334598  -0.354224  0  3.43159  0
N  N78  1  0.98269864  0.46030989  0.54402605  1  0  -0.414772  0  3.180062  0  0  -0.365606  0  3.442525  0  0  -0.381281  0  3.456961  0  0  -0.334591  -0.354986  0  3.432776  0
N  N79  1  0.03925284  0.48259163  0.29400613  1  0  -0.414781  0  3.177747  0  0  -0.364747  0  3.441388  0  0  -0.380409  0  3.455822  0  0  -0.334576  -0.354179  0  3.431599  0
N  N80  1  0.51740852  0.96074790  0.20599375  1  0  -0.414855  0  3.17793  0  0  -0.364823  0  3.441559  0  0  -0.380483  0  3.455992  0  0  -0.334617  -0.354257  0  3.431779  0
N  N81  1  0.53968989  0.01730166  0.95597428  1  0  -0.414807  0  3.180102  0  0  -0.365627  0  3.442558  0  0  -0.381301  0  3.456993  0  0  -0.334583  -0.355007  0  3.432811  0
N  N82  1  0.48258919  0.03925290  0.70599335  1  0  -0.414811  0  3.177856  0  0  -0.364767  0  3.441512  0  0  -0.380428  0  3.455947  0  0  -0.334591  -0.354205  0  3.43174  0
N  N83  1  0.46030960  0.98269688  0.45597466  1  0  -0.414806  0  3.180029  0  0  -0.365633  0  3.442487  0  0  -0.381306  0  3.456921  0  0  -0.334592  -0.355009  0  3.432735  0
N  N84  1  0.00988814  0.99011135  0.24999966  1  0  0.707693  0  4.12314  0  0  0.74246  0  4.405876  0  0  0.771522  0  4.41003  0  0  0.08909  0.722582  0  4.402723  0
N  N85  1  0.50974086  0.50974017  0.00000012  1  0  0.707199  0  4.123681  0  0  0.740426  0  4.408428  0  0  0.769354  0  4.412663  0  0  0.088625  0.720545  0  4.405277  0
N  N86  1  0.99011217  0.00988699  0.75000044  1  0  0.707711  0  4.12309  0  0  0.742484  0  4.405818  0  0  0.77154  0  4.409972  0  0  0.089111  0.722606  0  4.402667  0
N  N87  1  0.49026018  0.49025918  0.50000030  1  0  0.707157  0  4.123722  0  0  0.740386  0  4.40846  0  0  0.769315  0  4.412694  0  0  0.088641  0.720508  0  4.405306  0
O  O88  1  0.23219148  0.85320629  0.13610113  1  0  -0.663193  0  2.052003  0  0  -0.612956  0  2.301669  0  0  -0.638242  0  2.294615  0  0  -0.369323  -0.595099  0  2.306024  0
O  O89  1  0.64704587  0.73204544  0.88604548  1  0  -0.662873  0  2.051896  0  0  -0.612717  0  2.301252  0  0  -0.637962  0  2.294178  0  0  -0.369112  -0.594856  0  2.305638  0
O  O90  1  0.76780859  0.14679445  0.63610034  1  0  -0.663156  0  2.051929  0  0  -0.612936  0  2.301594  0  0  -0.638222  0  2.294541  0  0  -0.369303  -0.595076  0  2.305952  0
O  O91  1  0.35295347  0.26795303  0.38604572  1  0  -0.662898  0  2.051884  0  0  -0.612758  0  2.301265  0  0  -0.637998  0  2.294191  0  0  -0.369121  -0.594895  0  2.305653  0
O  O92  1  0.73204683  0.64704447  0.11395472  1  0  -0.662956  0  2.051792  0  0  -0.612779  0  2.301187  0  0  -0.63803  0  2.294102  0  0  -0.36913  -0.594915  0  2.305578  0
O  O93  1  0.85320493  0.23219200  0.86390000  1  0  -0.663144  0  2.05202  0  0  -0.612933  0  2.301676  0  0  -0.638219  0  2.294622  0  0  -0.369298  -0.595073  0  2.306033  0
O  O94  1  0.26795445  0.35295625  0.61395479  1  0  -0.662934  0  2.051815  0  0  -0.612752  0  2.301223  0  0  -0.638  0  2.294138  0  0  -0.36912  -0.594886  0  2.305616  0
O  O95  1  0.14679436  0.76780770  0.36389974  1  0  -0.663157  0  2.051912  0  0  -0.612929  0  2.301585  0  0  -0.638217  0  2.294533  0  0  -0.369313  -0.595068  0  2.305941  0
O  O96  1  0.04240869  0.87577708  0.05259525  1  0  -0.662901  0  2.032616  0  0  -0.608018  0  2.28644  0  0  -0.631916  0  2.275018  0  0  -0.374037  -0.590958  0  2.293771  0
O  O97  1  0.62452995  0.54267176  0.80238832  1  0  -0.662839  0  2.034479  0  0  -0.607889  0  2.288064  0  0  -0.631852  0  2.2766  0  0  -0.374202  -0.590825  0  2.29542  0
O  O98  1  0.95759246  0.12422358  0.55259503  1  0  -0.662855  0  2.032723  0  0  -0.607979  0  2.286541  0  0  -0.631876  0  2.275115  0  0  -0.374016  -0.590917  0  2.293876  0
O  O99  1  0.37547047  0.45732788  0.30238910  1  0  -0.66281  0  2.034522  0  0  -0.607851  0  2.288112  0  0  -0.631813  0  2.276651  0  0  -0.374189  -0.590787  0  2.295466  0
O  O100  1  0.54267224  0.62453115  0.19761182  1  0  -0.662823  0  2.034467  0  0  -0.607834  0  2.288079  0  0  -0.631805  0  2.276607  0  0  -0.374189  -0.590765  0  2.295434  0
O  O101  1  0.87577832  0.04240663  0.94740432  1  0  -0.662906  0  2.032819  0  0  -0.608037  0  2.286629  0  0  -0.631937  0  2.275203  0  0  -0.374052  -0.590976  0  2.293962  0
O  O102  1  0.45732796  0.37546965  0.69761197  1  0  -0.662869  0  2.034472  0  0  -0.607879  0  2.288093  0  0  -0.631849  0  2.27662  0  0  -0.374208  -0.59081  0  2.295449  0
O  O103  1  0.12422240  0.95759440  0.44740459  1  0  -0.662817  0  2.032863  0  0  -0.60794  0  2.28669  0  0  -0.631837  0  2.275267  0  0  -0.373984  -0.590876  0  2.294022  0
O  O104  1  0.16374816  0.02473928  0.26329971  1  0  -0.532988  0  1.790401  0  0  -0.514903  0  2.020169  0  0  -0.532733  0  2.014731  0  0  -0.234799  -0.502119  0  2.023631  0
O  O105  1  0.47514164  0.66359197  0.01326189  1  0  -0.532671  0  1.789774  0  0  -0.514227  0  2.020082  0  0  -0.532031  0  2.014801  0  0  -0.234584  -0.501431  0  2.023541  0
O  O106  1  0.83625218  0.97526032  0.76329957  1  0  -0.533001  0  1.79042  0  0  -0.514901  0  2.020163  0  0  -0.532719  0  2.01471  0  0  -0.234799  -0.502117  0  2.023627  0
O  O107  1  0.52485943  0.33640614  0.51326155  1  0  -0.53267  0  1.789739  0  0  -0.5142  0  2.020019  0  0  -0.532003  0  2.014738  0  0  -0.234595  -0.501403  0  2.02348  0
O  O108  1  0.66359226  0.47514011  0.98673874  1  0  -0.532643  0  1.789724  0  0  -0.514188  0  2.020021  0  0  -0.531993  0  2.014741  0  0  -0.234566  -0.501392  0  2.023479  0
O  O109  1  0.02473865  0.16374716  0.73670120  1  0  -0.532968  0  1.790311  0  0  -0.514899  0  2.02009  0  0  -0.532728  0  2.014658  0  0  -0.234799  -0.502114  0  2.023551  0
O  O110  1  0.33640729  0.52485971  0.48673902  1  0  -0.532618  0  1.789714  0  0  -0.514194  0  2.020039  0  0  -0.531999  0  2.014761  0  0  -0.234569  -0.501396  0  2.023497  0
O  O111  1  0.97526163  0.83625117  0.23670023  1  0  -0.53298  0  1.790386  0  0  -0.514916  0  2.020193  0  0  -0.53273  0  2.014724  0  0  -0.234804  -0.50213  0  2.023652  0
O  O112  1  0.90032710  0.09967265  0.24999975  1  0  -0.394443  0  1.746805  0  0  -0.389416  0  1.946815  0  0  -0.402405  0  1.946216  0  0  -0.15337  -0.380029  0  1.947173  0
O  O113  1  0.40015454  0.40015373  0.00000010  1  0  -0.394804  0  1.749228  0  0  -0.389033  0  1.949845  0  0  -0.401877  0  1.949136  0  0  -0.15307  -0.379678  0  1.950249  0
O  O114  1  0.09967321  0.90032694  0.74999985  1  0  -0.394468  0  1.746814  0  0  -0.38945  0  1.946824  0  0  -0.402435  0  1.946227  0  0  -0.153389  -0.380063  0  1.947183  0
O  O115  1  0.59984650  0.59984562  0.50000033  1  0  -0.394783  0  1.749264  0  0  -0.389016  0  1.949887  0  0  -0.401857  0  1.949173  0  0  -0.153078  -0.379662  0  1.950291  0
