# generated using pymatgen
data_NiH10C8S2(N2O3)2
_symmetry_space_group_name_H-M   'P 1'
_cell_length_a   7.18905061
_cell_length_b   12.41769835
_cell_length_c   12.34858159
_cell_angle_alpha   85.31828731
_cell_angle_beta   73.65970868
_cell_angle_gamma   72.80145089
_symmetry_Int_Tables_number   1
_chemical_formula_structural   NiH10C8S2(N2O3)2
_chemical_formula_sum   'Ni2 H20 C16 S4 N8 O12'
_cell_volume   1010.54614466
_cell_formula_units_Z   2
loop_
 _symmetry_equiv_pos_site_id
 _symmetry_equiv_pos_as_xyz
  1  'x, y, z'
loop_
 _atom_site_type_symbol
 _atom_site_label
 _atom_site_symmetry_multiplicity
 _atom_site_fract_x
 _atom_site_fract_y
 _atom_site_fract_z
 _atom_site_occupancy
 _atom_site_pbe_bader_charge
 _atom_site_pbe_bader_spin_density
 _atom_site_pbe_cm5_charge
 _atom_site_pbe_ddec_charge
 _atom_site_pbe_ddec_spin_density
 _atom_site_pbe_ddec_sum_bond_order
 _atom_site_pbe_magmom
Ni  Ni0  1  0.50373510  0.99573056  0.99244401  1  1.235845  1.610357  0.622126  0.935339  1.790574  2.285565  1.601
Ni  Ni1  1  0.25714663  0.49139548  0.49804441  1  1.235582  1.611432  0.624057  0.938467  1.790469  2.285249  1.602
H  H2  1  0.67142936  0.75041399  0.97498069  1  0.562208  0.000304  0.309681  0.300913  0.000178  0.981799  0.0
H  H3  1  0.14184095  0.05139636  0.07160606  1  0.627748  -0.000264  0.328836  0.406885  -0.000348  0.87567  0.0
H  H4  1  0.40135509  0.24246502  0.01551922  1  0.548459  0.000309  0.306023  0.295772  0.000156  0.990793  0.0
H  H5  1  0.16554778  0.94603862  0.00211764  1  0.632329  0.000232  0.337814  0.422055  0.000102  0.847232  0.0
H  H6  1  0.34360374  0.97553764  0.23956902  1  0.538168  0.000321  0.303995  0.291699  0.000136  1.000053  0.0
H  H7  1  0.82628877  0.05556986  0.96047791  1  0.648012  -0.000138  0.340656  0.423278  -0.000198  0.843176  0.0
H  H8  1  0.59452305  0.01585424  0.74861680  1  0.547194  0.00027  0.309258  0.298875  0.00014  0.988137  0.0
H  H9  1  0.74440287  0.02907981  0.08740246  1  0.613208  -3.6e-05  0.333976  0.410477  -0.000135  0.866627  0.0
H  H10  1  0.35069731  0.47448998  0.25247633  1  0.540946  0.000293  0.309419  0.299875  0.000158  0.984336  0.0
H  H11  1  0.47053594  0.57619295  0.55318643  1  0.624456  -0.000537  0.323271  0.403047  -0.000581  0.887296  0.0
H  H12  1  0.09209305  0.51427447  0.74396981  1  0.543908  0.000322  0.306983  0.297231  0.000163  0.989136  0.0
H  H13  1  0.61458900  0.51812905  0.44019976  1  0.633557  -0.000135  0.336022  0.418118  -0.000227  0.851308  0.0
H  H14  1  0.18995526  0.73942506  0.47611426  1  0.531637  0.000335  0.304081  0.291257  0.000151  0.997696  0.0
H  H15  1  0.89584634  0.45958549  0.54226005  1  0.640047  0.000315  0.341206  0.427114  0.00018  0.841178  0.0
H  H16  1  0.39457854  0.24819843  0.51717579  1  0.534146  0.00028  0.309009  0.296765  0.000155  0.991206  0.0
H  H17  1  0.88513542  0.58662733  0.52407288  1  0.618498  0.000333  0.335883  0.412881  0.000156  0.862065  0.0
H  H18  1  0.89499451  0.85079600  0.64096616  1  0.130823  0.000122  0.095117  0.153461  5.6e-05  1.067989  0.0
H  H19  1  0.36940920  0.13958648  0.35210936  1  0.149716  0.000116  0.094837  0.15325  6e-05  1.069181  0.0
H  H20  1  0.48677087  0.63772921  0.13859930  1  0.15331  0.000149  0.094275  0.152437  9.1e-05  1.071532  0.0
H  H21  1  0.27946784  0.35067967  0.85217136  1  0.134998  8.1e-05  0.095531  0.151188  1e-06  1.068736  0.0
C  C22  1  0.76296623  0.81147685  0.81515172  1  1.215445  0.003137  0.218945  0.555892  0.001763  4.116679  0.002
C  C23  1  0.37557273  0.18199020  0.17771888  1  1.053521  0.002436  0.202792  0.525014  0.001164  4.165398  0.002
C  C24  1  0.42501264  0.81403002  0.17723618  1  1.148944  0.002436  0.209054  0.541561  0.001363  4.14244  0.002
C  C25  1  0.45108686  0.17681903  0.81033421  1  1.149134  0.002366  0.214919  0.550696  0.001033  4.118824  0.001
C  C26  1  0.36094180  0.31452065  0.31337564  1  1.182233  0.002977  0.219739  0.558382  0.001641  4.114753  0.002
C  C27  1  0.01806018  0.67630406  0.68336161  1  1.102675  0.002005  0.20265  0.525295  0.000852  4.162089  0.002
C  C28  1  0.33260220  0.67679942  0.31479609  1  1.133526  0.002764  0.207393  0.537727  0.001611  4.14971  0.003
C  C29  1  0.31953330  0.30950564  0.67815310  1  1.170758  0.003028  0.216809  0.554143  0.001612  4.118949  0.002
C  C30  1  0.88307485  0.61691456  0.87572091  1  0.681577  -0.000252  0.225276  0.398766  -0.000362  4.124708  0.0
C  C31  1  0.89173303  0.78590354  0.70573334  1  0.01333  0.012904  -0.156636  -0.501161  0.007981  3.945941  0.009
C  C32  1  0.37163512  0.37510409  0.11878311  1  0.705731  -0.000245  0.225674  0.39785  -0.000355  4.127884  0.0
C  C33  1  0.36992869  0.20470305  0.28752245  1  0.033692  0.012078  -0.156916  -0.501931  0.007555  3.947639  0.009
C  C34  1  0.25025460  0.87300165  0.37304948  1  0.683776  -0.000175  0.222405  0.397126  -0.000271  4.134078  0.0
C  C35  1  0.42109671  0.70278178  0.20344715  1  0.026355  0.006229  -0.158262  -0.498791  0.004269  3.946496  0.006
C  C36  1  0.50992659  0.11633691  0.61721311  1  0.742805  -0.000319  0.229913  0.410531  -0.000448  4.118776  0.0
C  C37  1  0.34287673  0.28576266  0.78718572  1  0.020075  0.017049  -0.152273  -0.493029  0.010371  3.927055  0.012
S  S38  1  0.87485899  0.51794239  0.97335252  1  0.004448  0.001121  -0.213895  -0.400684  0.000309  2.082621  0.001
S  S39  1  0.37775345  0.47303367  0.02003753  1  -0.012397  0.001115  -0.211946  -0.398072  0.000324  2.088567  0.001
S  S40  1  0.15162942  0.97160567  0.47156045  1  -0.01215  0.001692  -0.213151  -0.397409  0.000776  2.096022  0.001
S  S41  1  0.60666186  0.01748204  0.51832288  1  -0.043339  0.000779  -0.233844  -0.430756  -5e-05  2.071621  0.0
N  N42  1  0.76721580  0.72719448  0.89498212  1  -1.310201  0.002313  -0.383431  -0.375098  0.001014  3.52246  0.002
N  N43  1  0.37974925  0.26634480  0.09805697  1  -1.276216  0.001065  -0.390662  -0.382759  0.000216  3.547452  0.001
N  N44  1  0.33840327  0.89393405  0.26224423  1  -1.292328  0.000297  -0.393762  -0.389166  -0.000399  3.546213  0.001
N  N45  1  0.52566334  0.09700388  0.72569764  1  -1.308571  0.002522  -0.386182  -0.37723  0.00108  3.530923  0.002
N  N46  1  0.35838473  0.39446630  0.22920411  1  -1.28513  0.00203  -0.384439  -0.375295  0.000859  3.525664  0.002
N  N47  1  0.00641698  0.59654230  0.76745260  1  -1.292788  0.00105  -0.389701  -0.381861  0.000179  3.545021  0.001
N  N48  1  0.25216422  0.76220569  0.39427964  1  -1.28298  0.000353  -0.394034  -0.388773  -0.000326  3.546676  0.001
N  N49  1  0.40677944  0.22506456  0.59815062  1  -1.290587  0.00302  -0.386247  -0.376819  0.001355  3.533241  0.003
O  O50  1  0.64023244  0.91005259  0.84393772  1  -1.162148  0.060376  -0.314717  -0.549219  0.032528  2.366091  0.055
O  O51  1  0.37714408  0.08413160  0.14571118  1  -1.183578  0.055098  -0.332615  -0.602717  0.029599  2.364003  0.05
O  O52  1  0.50583066  0.84586961  0.07728288  1  -1.173475  0.056357  -0.323257  -0.572604  0.030406  2.373805  0.052
O  O53  1  0.48866227  0.14657136  0.90683012  1  -1.166009  0.060382  -0.327378  -0.579097  0.032373  2.354029  0.055
O  O54  1  0.35675675  0.34356686  0.41202909  1  -1.158691  0.06002  -0.315303  -0.550283  0.032307  2.370126  0.055
O  O55  1  0.14862294  0.64446236  0.58610973  1  -1.189113  0.055385  -0.331433  -0.602183  0.029779  2.364512  0.051
O  O56  1  0.32344593  0.57640513  0.34746705  1  -1.174354  0.055605  -0.323276  -0.575018  0.029991  2.372303  0.051
O  O57  1  0.21774771  0.40642227  0.64848320  1  -1.170082  0.061711  -0.325175  -0.573957  0.033157  2.363939  0.056
O  O58  1  0.19673320  0.01810967  0.99592328  1  -1.178085  0.057056  -0.541241  -0.714419  0.031313  2.090962  0.049
O  O59  1  0.79008920  0.99621983  0.01185458  1  -1.17635  0.055366  -0.536951  -0.712319  0.030302  2.078696  0.048
O  O60  1  0.54128419  0.50242986  0.51653795  1  -1.18112  0.057938  -0.542254  -0.714542  0.031915  2.063689  0.05
O  O61  1  0.95752909  0.51178260  0.49161623  1  -1.173129  0.054471  -0.538647  -0.718177  0.029778  2.099445  0.047
